0:0:0
     RDKit          3D

 90 95  0  0  1  0  0  0  0  0999 V2000
   -1.3593   -8.2689    4.1419 C   0  0  0  0  0  0  0  0  0  0  0  0
   -0.6576   -8.7663    3.0154 O   0  0  0  0  0  0  0  0  0  0  0  0
    0.7738   -8.7148    3.0657 C   0  0  0  0  0  0  0  0  0  0  0  0
    1.3693   -7.3395    2.6512 C   0  0  1  0  0  0  0  0  0  0  0  0
    0.7341   -7.0507    1.2523 C   0  0  0  0  0  0  0  0  0  0  0  0
    0.9059   -6.3139    3.7410 C   0  0  0  0  0  0  0  0  0  0  0  0
    1.9245   -5.1609    4.1462 C   0  0  2  0  0  0  0  0  0  0  0  0
    1.2830   -4.3663    5.1644 O   0  0  0  0  0  0  0  0  0  0  0  0
    0.8018   -4.9961    6.3430 C   0  0  0  0  0  0  0  0  0  0  0  0
    2.1466   -4.2642    2.8453 C   0  0  2  0  0  0  0  0  0  0  0  0
    3.3869   -4.9053    2.1866 C   0  0  1  0  0  0  0  0  0  0  0  0
    4.6027   -4.1393    1.6494 C   0  0  1  0  0  0  0  0  0  0  0  0
    4.4271   -3.9490    0.2404 O   0  0  0  0  0  0  0  0  0  0  0  0
    5.6242   -3.8720   -0.5115 C   0  0  0  0  0  0  0  0  0  0  0  0
    5.0570   -2.8262    2.3151 C   0  0  0  0  0  0  0  0  0  0  0  0
    4.2812   -2.1194    3.4246 C   0  0  2  0  0  0  0  0  0  0  0  0
    4.1055   -2.6789    4.8408 C   0  0  1  0  0  0  0  0  0  0  0  0
    5.0847   -3.7259    5.3331 C   0  0  0  0  0  0  0  0  0  0  0  0
    4.4766   -5.1858    5.5373 C   0  0  1  0  0  0  0  0  0  0  0  0
    5.5787   -6.0432    5.3315 O   0  0  0  0  0  0  0  0  0  0  0  0
    4.2157   -5.4022    7.0642 C   0  0  0  0  0  0  0  0  0  0  0  0
    5.3172   -5.1485    7.8928 O   0  0  0  0  0  0  0  0  0  0  0  0
    3.3409   -5.8015    4.5244 C   0  0  1  0  0  0  0  0  0  0  0  0
    3.0806   -7.0423    5.1682 O   0  0  0  0  0  0  0  0  0  0  0  0
    3.7471   -6.1519    3.0553 C   0  0  1  0  0  0  0  0  0  0  0  0
    2.9521   -7.3792    2.4662 C   0  0  1  0  0  0  0  0  0  0  0  0
    3.5412   -8.6103    2.8599 O   0  0  0  0  0  0  0  0  0  0  0  0
    3.6453   -1.4158    5.6041 C   0  0  1  0  0  0  0  0  0  0  0  0
    2.9322   -1.7398    6.9371 C   0  0  0  0  0  0  0  0  0  0  0  0
    4.8388   -0.6230    5.8182 O   0  0  0  0  0  0  0  0  0  0  0  0
    4.7774    0.4508    6.7560 C   0  0  0  0  0  0  0  0  0  0  0  0
    2.6708   -0.8022    4.5224 C   0  0  1  0  0  0  0  0  0  0  0  0
    2.8496    0.6921    4.2395 C   0  0  0  0  0  0  0  0  0  0  0  0
    1.9329    1.6689    4.2995 C   0  0  0  0  0  0  0  0  0  0  0  0
    2.3099    3.1109    4.0022 C   0  0  0  0  0  0  0  0  0  0  0  0
    0.4518    1.5024    4.6320 C   0  0  0  0  0  0  0  0  0  0  0  0
    2.8746   -1.6385    3.2491 C   0  0  1  0  0  0  0  0  0  0  0  0
    2.0271   -1.5664    1.9831 C   0  0  1  0  0  0  0  0  0  0  0  0
    2.6007   -1.9163    0.7876 O   0  0  0  0  0  0  0  0  0  0  0  0
    1.8311   -2.7010    2.9660 C   0  0  1  0  0  0  0  0  0  0  0  0
   -2.4307   -8.5826    4.0532 H   0  0  0  0  0  0  0  0  0  0  0  0
   -1.2080   -7.1381    4.1806 H   0  0  0  0  0  0  0  0  0  0  0  0
   -1.0281   -8.7664    5.0724 H   0  0  0  0  0  0  0  0  0  0  0  0
    1.1640   -9.0447    4.0263 H   0  0  0  0  0  0  0  0  0  0  0  0
    1.1069   -9.4603    2.3482 H   0  0  0  0  0  0  0  0  0  0  0  0
    1.0385   -6.1326    0.7644 H   0  0  0  0  0  0  0  0  0  0  0  0
   -0.3553   -7.0545    1.2841 H   0  0  0  0  0  0  0  0  0  0  0  0
    1.0034   -7.8528    0.5570 H   0  0  0  0  0  0  0  0  0  0  0  0
    0.0042   -5.8728    3.4348 H   0  0  0  0  0  0  0  0  0  0  0  0
    0.5938   -6.8570    4.6275 H   0  0  0  0  0  0  0  0  0  0  0  0
    0.5959   -4.2372    7.0868 H   0  0  0  0  0  0  0  0  0  0  0  0
    1.5498   -5.6757    6.7708 H   0  0  0  0  0  0  0  0  0  0  0  0
   -0.1220   -5.5605    6.1915 H   0  0  0  0  0  0  0  0  0  0  0  0
    1.3333   -4.5381    2.1731 H   0  0  0  0  0  0  0  0  0  0  0  0
    2.9939   -5.2947    1.2482 H   0  0  0  0  0  0  0  0  0  0  0  0
    5.4522   -4.8253    1.7239 H   0  0  0  0  0  0  0  0  0  0  0  0
    5.3691   -3.7257   -1.5587 H   0  0  0  0  0  0  0  0  0  0  0  0
    6.2026   -4.7929   -0.4292 H   0  0  0  0  0  0  0  0  0  0  0  0
    6.2581   -3.0414   -0.2039 H   0  0  0  0  0  0  0  0  0  0  0  0
    6.0658   -2.9868    2.6597 H   0  0  0  0  0  0  0  0  0  0  0  0
    5.1757   -2.0868    1.5252 H   0  0  0  0  0  0  0  0  0  0  0  0
    4.8706   -1.2164    3.5208 H   0  0  0  0  0  0  0  0  0  0  0  0
    3.1979   -3.2314    4.9257 H   0  0  0  0  0  0  0  0  0  0  0  0
    5.9168   -3.7904    4.6369 H   0  0  0  0  0  0  0  0  0  0  0  0
    5.5199   -3.3334    6.2564 H   0  0  0  0  0  0  0  0  0  0  0  0
    5.2309   -6.9311    5.4353 H   0  0  0  0  0  0  0  0  0  0  0  0
    3.4004   -4.7574    7.4183 H   0  0  0  0  0  0  0  0  0  0  0  0
    3.9464   -6.4474    7.2993 H   0  0  0  0  0  0  0  0  0  0  0  0
    6.0798   -5.6176    7.5208 H   0  0  0  0  0  0  0  0  0  0  0  0
    2.3735   -7.4670    4.6695 H   0  0  0  0  0  0  0  0  0  0  0  0
    4.8039   -6.3875    2.9851 H   0  0  0  0  0  0  0  0  0  0  0  0
    3.1659   -7.3988    1.3924 H   0  0  0  0  0  0  0  0  0  0  0  0
    3.4367   -8.7180    3.8180 H   0  0  0  0  0  0  0  0  0  0  0  0
    2.1068   -2.4321    6.7802 H   0  0  0  0  0  0  0  0  0  0  0  0
    2.5003   -0.8453    7.3794 H   0  0  0  0  0  0  0  0  0  0  0  0
    3.6039   -2.1948    7.6579 H   0  0  0  0  0  0  0  0  0  0  0  0
    5.6839    1.0387    6.6557 H   0  0  0  0  0  0  0  0  0  0  0  0
    4.7342    0.0720    7.7780 H   0  0  0  0  0  0  0  0  0  0  0  0
    3.9281    1.1120    6.5963 H   0  0  0  0  0  0  0  0  0  0  0  0
    1.6597   -0.9957    4.8500 H   0  0  0  0  0  0  0  0  0  0  0  0
    3.8605    0.9714    3.9667 H   0  0  0  0  0  0  0  0  0  0  0  0
    2.0933    3.7464    4.8599 H   0  0  0  0  0  0  0  0  0  0  0  0
    1.7497    3.4856    3.1521 H   0  0  0  0  0  0  0  0  0  0  0  0
    3.3761    3.2035    3.7767 H   0  0  0  0  0  0  0  0  0  0  0  0
    0.1709    2.1857    5.4287 H   0  0  0  0  0  0  0  0  0  0  0  0
    0.1732    0.4951    4.9426 H   0  0  0  0  0  0  0  0  0  0  0  0
   -0.1492    1.7700    3.7606 H   0  0  0  0  0  0  0  0  0  0  0  0
    1.2555   -0.7869    1.8994 H   0  0  0  0  0  0  0  0  0  0  0  0
    2.0404   -1.5861    0.0817 H   0  0  0  0  0  0  0  0  0  0  0  0
    0.8984   -2.6080    3.4719 H   0  0  0  0  0  0  0  0  0  0  0  0
  1  2  1  0
  1 41  1  0
  1 42  1  0
  1 43  1  0
  2  3  1  0
  4  3  1  1
  3 44  1  0
  3 45  1  0
  4 26  1  0
  4  5  1  0
  4  6  1  0
  5 46  1  0
  5 47  1  0
  5 48  1  0
  6  7  1  0
  6 49  1  0
  6 50  1  0
  7 23  1  0
  7  8  1  1
  7 10  1  0
  8  9  1  0
  9 51  1  0
  9 52  1  0
  9 53  1  0
 10 40  1  0
 10 11  1  0
 10 54  1  6
 11 25  1  0
 11 12  1  0
 11 55  1  6
 12 13  1  0
 12 15  1  0
 12 56  1  6
 13 14  1  0
 14 57  1  0
 14 58  1  0
 14 59  1  0
 15 16  1  0
 15 60  1  0
 15 61  1  0
 16 37  1  0
 16 17  1  0
 16 62  1  1
 17 18  1  0
 17 28  1  0
 17 63  1  6
 18 19  1  0
 18 64  1  0
 18 65  1  0
 19 20  1  6
 19 21  1  0
 19 23  1  0
 20 66  1  0
 21 22  1  0
 21 67  1  0
 21 68  1  0
 22 69  1  0
 23 24  1  1
 23 25  1  0
 24 70  1  0
 25 26  1  0
 25 71  1  1
 26 27  1  0
 26 72  1  6
 27 73  1  0
 28 29  1  0
 28 30  1  1
 28 32  1  0
 29 74  1  0
 29 75  1  0
 29 76  1  0
 30 31  1  0
 31 77  1  0
 31 78  1  0
 31 79  1  0
 32 33  1  0
 37 32  1  1
 32 80  1  1
 33 34  2  3
 33 81  1  0
 34 35  1  0
 34 36  1  0
 35 82  1  0
 35 83  1  0
 35 84  1  0
 36 85  1  0
 36 86  1  0
 36 87  1  0
 37 40  1  0
 37 38  1  0
 38 39  1  0
 38 40  1  0
 38 88  1  6
 39 89  1  0
 40 90  1  1
M  END
>  <i_m_ct_stereo_status>  (1) 
1

>  <s_m_source_file>  (1) 
/var/tmp/pbs.5076255.sched01/tmpgqtxr8g4/0xtbcsf6k.sdf

>  <i_m_source_file_index>  (1) 
1

>  <i_lp_mmshare_version>  (1) 
48012

>  <i_f3d_flags>  (1) 
0

>  <s_epik_input>  (1) 
W0NIM11PW0NIMl1bQ0BAXShbQ0gzXSkoW0NIMl0xKVtDQEhdKFtPSF0pW0NASF0yW0NASF0oW0NASF0oW0NIMl0zKU9bQ0gzXSlbQ0BIXShbQ0BASF00W0NAQEhdNVtPSF0pW0NAXTEoT1tDSDNdKVtDQF0yKFtPSF0pW0NAXShbT0hdKShbQ0gyXVtPSF0pW0NIMl1bQ0BIXShbQ0BASF0zW0NAXTQ1NilbQ0BAXShbQ0gzXSkoT1tDSDNdKVtDQEhdNltDSF09QyhbQ0gzXSlbQ0gzXQ==

>  <s_epik_cmdline>  (1) 
J2VwaWtfcHl0aG9uJywgJy1waHQnLCAnMi4wJywgJy1waCcsICc3LjAnLCAnLXRuJywgJzgnLCAnLW1hJywgJzIwMCcsICctaW1hZScsICc8aW5maWxlLm1hZT4nLCAnLW9tYWUnLCAnPG91dGZpbGUubWFlPic=

>  <r_lp_tautomer_probability>  (1) 
1

>  <r_epik_Ionization_Penalty>  (1) 
7.7593e-07

>  <r_epik_Ionization_Penalty_Charging>  (1) 
0

>  <r_epik_Ionization_Penalty_Neutral>  (1) 
7.7593e-07

>  <r_epik_State_Penalty>  (1) 
-0

>  <r_epik_Charging_Adjusted_Penalty>  (1) 
0

>  <i_epik_Tot_Q>  (1) 
0

>  <i_epik_Tot_abs_Q>  (1) 
0

>  <s_lp_Force_Field>  (1) 
OPLS3e

>  <r_lp_Energy>  (1) 
162.935

>  <b_lp_Chiralities_Consistent>  (1) 
1

>  <s_lp_Variant>  (1) 
0:0-1

>  <s_i_glide_gridfile>  (1) 
pfpi4k_grid

>  <i_i_glide_lignum>  (1) 
1

>  <i_i_glide_rotatable_bonds>  (1) 
12

>  <r_i_docking_score>  (1) 
-1.54508

>  <r_i_glide_ligand_efficiency>  (1) 
-0.0386269

>  <r_i_glide_ligand_efficiency_sa>  (1) 
-0.132102

>  <r_i_glide_ligand_efficiency_ln>  (1) 
-0.329519

>  <r_i_glide_gscore>  (1) 
-1.54508

>  <r_i_glide_lipo>  (1) 
-0.153694

>  <r_i_glide_hbond>  (1) 
0

>  <r_i_glide_metal>  (1) 
-0

>  <r_i_glide_rewards>  (1) 
0

>  <r_i_glide_evdw>  (1) 
-20.7882

>  <r_i_glide_ecoul>  (1) 
-3.06646

>  <r_i_glide_erotb>  (1) 
0.107995

>  <r_i_glide_esite>  (1) 
0

>  <r_i_glide_emodel>  (1) 
-18.9031

>  <r_i_glide_energy>  (1) 
-23.8546

>  <r_i_glide_einternal>  (1) 
9.60472

>  <r_i_glide_intrahb_reward>  (1) 
-0

>  <i_i_glide_confnum>  (1) 
3

>  <i_i_glide_posenum>  (1) 
2

>  <r_i_glide_eff_state_penalty>  (1) 
0

>  <ligand_id>  (1) 
0

>  <original_smiles>  (1) 
COCC1(C)CC2(OC)C3C4C(OC)CC5C(CC(O)(CO)C2(O)C4C1O)C(C)(OC)C(C=C(C)C)C51C(O)C31

>  <smiles>  (1) 
[H]OC([H])([H])C1(O[H])C([H])([H])C2([H])C3([H])C([H])([H])C([H])(OC([H])([H])[H])C4([H])C([H])(C5([H])C([H])(O[H])C35C([H])(C([H])=C(C([H])([H])[H])C([H])([H])[H])C2(OC([H])([H])[H])C([H])([H])[H])C2(OC([H])([H])[H])C([H])([H])C(C([H])([H])[H])(C([H])([H])OC([H])([H])[H])C([H])(O[H])C4([H])C12O[H]

$$$$
0:0:1
     RDKit          3D

 90 95  0  0  1  0  0  0  0  0999 V2000
   -1.4862   -8.1447    4.0918 C   0  0  0  0  0  0  0  0  0  0  0  0
   -0.7744   -8.6785    2.9830 O   0  0  0  0  0  0  0  0  0  0  0  0
    0.6524   -8.6939    3.0683 C   0  0  0  0  0  0  0  0  0  0  0  0
    1.3012   -7.3437    2.6390 C   0  0  1  0  0  0  0  0  0  0  0  0
    0.7362   -7.0700    1.2134 C   0  0  0  0  0  0  0  0  0  0  0  0
    0.8453   -6.2614    3.6709 C   0  0  0  0  0  0  0  0  0  0  0  0
    1.8596   -5.1519    4.1185 C   0  0  2  0  0  0  0  0  0  0  0  0
    1.2231   -4.3095    5.1009 O   0  0  0  0  0  0  0  0  0  0  0  0
    0.6974   -4.8942    6.2915 C   0  0  0  0  0  0  0  0  0  0  0  0
    2.1769   -4.2676    2.8311 C   0  0  2  0  0  0  0  0  0  0  0  0
    3.4278   -4.9845    2.2284 C   0  0  1  0  0  0  0  0  0  0  0  0
    4.7078   -4.2830    1.7340 C   0  0  1  0  0  0  0  0  0  0  0  0
    4.6524   -4.0944    0.3109 O   0  0  0  0  0  0  0  0  0  0  0  0
    5.0044   -5.2257   -0.4776 C   0  0  0  0  0  0  0  0  0  0  0  0
    5.1780   -2.9828    2.3757 C   0  0  0  0  0  0  0  0  0  0  0  0
    4.3822   -2.2153    3.4427 C   0  0  2  0  0  0  0  0  0  0  0  0
    4.1190   -2.7303    4.8590 C   0  0  1  0  0  0  0  0  0  0  0  0
    5.0291   -3.8075    5.4276 C   0  0  0  0  0  0  0  0  0  0  0  0
    4.3567   -5.2329    5.6284 C   0  0  1  0  0  0  0  0  0  0  0  0
    5.4791   -6.1079    5.4736 O   0  0  0  0  0  0  0  0  0  0  0  0
    4.0257   -5.4185    7.1548 C   0  0  0  0  0  0  0  0  0  0  0  0
    5.1337   -5.1835    8.0003 O   0  0  0  0  0  0  0  0  0  0  0  0
    3.2331   -5.8389    4.5853 C   0  0  1  0  0  0  0  0  0  0  0  0
    2.8713   -7.0456    5.2590 O   0  0  0  0  0  0  0  0  0  0  0  0
    3.6962   -6.2221    3.1341 C   0  0  1  0  0  0  0  0  0  0  0  0
    2.8891   -7.4243    2.5217 C   0  0  1  0  0  0  0  0  0  0  0  0
    3.4028   -8.6395    3.0392 O   0  0  0  0  0  0  0  0  0  0  0  0
    3.6699   -1.4328    5.5872 C   0  0  1  0  0  0  0  0  0  0  0  0
    2.8872   -1.7076    6.8947 C   0  0  0  0  0  0  0  0  0  0  0  0
    4.8795   -0.6867    5.8379 O   0  0  0  0  0  0  0  0  0  0  0  0
    4.8246    0.4076    6.7524 C   0  0  0  0  0  0  0  0  0  0  0  0
    2.7615   -0.8052    4.4488 C   0  0  1  0  0  0  0  0  0  0  0  0
    3.0187    0.6659    4.1595 C   0  0  0  0  0  0  0  0  0  0  0  0
    2.1238    1.6907    4.1440 C   0  0  0  0  0  0  0  0  0  0  0  0
    2.5786    3.0997    3.8458 C   0  0  0  0  0  0  0  0  0  0  0  0
    0.6351    1.5721    4.4113 C   0  0  0  0  0  0  0  0  0  0  0  0
    3.0009   -1.6776    3.1929 C   0  0  1  0  0  0  0  0  0  0  0  0
    2.2114   -1.6095    1.8934 C   0  0  1  0  0  0  0  0  0  0  0  0
    2.8383   -2.0235    0.7118 O   0  0  0  0  0  0  0  0  0  0  0  0
    1.9270   -2.7144    2.9017 C   0  0  1  0  0  0  0  0  0  0  0  0
   -2.5511   -8.4068    3.9661 H   0  0  0  0  0  0  0  0  0  0  0  0
   -1.3239   -7.0731    4.1586 H   0  0  0  0  0  0  0  0  0  0  0  0
   -1.1998   -8.6592    5.0205 H   0  0  0  0  0  0  0  0  0  0  0  0
    0.9960   -9.0027    4.0563 H   0  0  0  0  0  0  0  0  0  0  0  0
    0.9990   -9.4664    2.3887 H   0  0  0  0  0  0  0  0  0  0  0  0
    1.0990   -6.1633    0.7248 H   0  0  0  0  0  0  0  0  0  0  0  0
   -0.3518   -7.0088    1.2141 H   0  0  0  0  0  0  0  0  0  0  0  0
    0.9547   -7.9007    0.5293 H   0  0  0  0  0  0  0  0  0  0  0  0
   -0.0708   -5.7919    3.3256 H   0  0  0  0  0  0  0  0  0  0  0  0
    0.4920   -6.7832    4.5692 H   0  0  0  0  0  0  0  0  0  0  0  0
    0.4689   -4.0981    6.9951 H   0  0  0  0  0  0  0  0  0  0  0  0
    1.4172   -5.5572    6.7679 H   0  0  0  0  0  0  0  0  0  0  0  0
   -0.2307   -5.4408    6.1149 H   0  0  0  0  0  0  0  0  0  0  0  0
    1.3910   -4.5135    2.1120 H   0  0  0  0  0  0  0  0  0  0  0  0
    3.0293   -5.3686    1.2895 H   0  0  0  0  0  0  0  0  0  0  0  0
    5.5377   -4.9771    1.8914 H   0  0  0  0  0  0  0  0  0  0  0  0
    4.9044   -4.9590   -1.5258 H   0  0  0  0  0  0  0  0  0  0  0  0
    4.3576   -6.0810   -0.2911 H   0  0  0  0  0  0  0  0  0  0  0  0
    6.0359   -5.5190   -0.3011 H   0  0  0  0  0  0  0  0  0  0  0  0
    6.1594   -3.1748    2.7756 H   0  0  0  0  0  0  0  0  0  0  0  0
    5.3651   -2.2856    1.5643 H   0  0  0  0  0  0  0  0  0  0  0  0
    5.0139   -1.3335    3.5411 H   0  0  0  0  0  0  0  0  0  0  0  0
    3.1939   -3.2537    4.9206 H   0  0  0  0  0  0  0  0  0  0  0  0
    5.9093   -3.8932    4.7869 H   0  0  0  0  0  0  0  0  0  0  0  0
    5.4242   -3.4191    6.3694 H   0  0  0  0  0  0  0  0  0  0  0  0
    5.7221   -6.1109    4.5647 H   0  0  0  0  0  0  0  0  0  0  0  0
    3.2157   -4.7596    7.4581 H   0  0  0  0  0  0  0  0  0  0  0  0
    3.7335   -6.4434    7.3923 H   0  0  0  0  0  0  0  0  0  0  0  0
    5.8528   -5.6948    7.6680 H   0  0  0  0  0  0  0  0  0  0  0  0
    2.4071   -7.5802    4.6600 H   0  0  0  0  0  0  0  0  0  0  0  0
    4.7459   -6.4985    3.1174 H   0  0  0  0  0  0  0  0  0  0  0  0
    3.1647   -7.5020    1.4582 H   0  0  0  0  0  0  0  0  0  0  0  0
    4.2929   -8.7560    2.7359 H   0  0  0  0  0  0  0  0  0  0  0  0
    2.0470   -2.3687    6.7176 H   0  0  0  0  0  0  0  0  0  0  0  0
    2.4739   -0.7875    7.3031 H   0  0  0  0  0  0  0  0  0  0  0  0
    3.5159   -2.1661    7.6552 H   0  0  0  0  0  0  0  0  0  0  0  0
    5.7570    0.9606    6.6794 H   0  0  0  0  0  0  0  0  0  0  0  0
    4.7232    0.0572    7.7792 H   0  0  0  0  0  0  0  0  0  0  0  0
    4.0084    1.0983    6.5410 H   0  0  0  0  0  0  0  0  0  0  0  0
    1.7295   -0.9553    4.7373 H   0  0  0  0  0  0  0  0  0  0  0  0
    4.0459    0.9031    3.9272 H   0  0  0  0  0  0  0  0  0  0  0  0
    2.3363    3.7677    4.6781 H   0  0  0  0  0  0  0  0  0  0  0  0
    2.0763    3.4782    2.9556 H   0  0  0  0  0  0  0  0  0  0  0  0
    3.6546    3.1558    3.6811 H   0  0  0  0  0  0  0  0  0  0  0  0
    0.3393    2.2856    5.1866 H   0  0  0  0  0  0  0  0  0  0  0  0
    0.3034    0.5865    4.7298 H   0  0  0  0  0  0  0  0  0  0  0  0
    0.0839    1.8367    3.5085 H   0  0  0  0  0  0  0  0  0  0  0  0
    1.4876   -0.8167    1.7599 H   0  0  0  0  0  0  0  0  0  0  0  0
    2.3020   -1.7019   -0.0064 H   0  0  0  0  0  0  0  0  0  0  0  0
    0.9604   -2.5583    3.3686 H   0  0  0  0  0  0  0  0  0  0  0  0
  1  2  1  0
  1 41  1  0
  1 42  1  0
  1 43  1  0
  2  3  1  0
  4  3  1  1
  3 44  1  0
  3 45  1  0
  4 26  1  0
  4  5  1  0
  4  6  1  0
  5 46  1  0
  5 47  1  0
  5 48  1  0
  6  7  1  0
  6 49  1  0
  6 50  1  0
  7 23  1  0
  7  8  1  1
  7 10  1  0
  8  9  1  0
  9 51  1  0
  9 52  1  0
  9 53  1  0
 10 40  1  0
 10 11  1  0
 10 54  1  6
 11 25  1  0
 11 12  1  0
 11 55  1  6
 12 13  1  0
 12 15  1  0
 12 56  1  6
 13 14  1  0
 14 57  1  0
 14 58  1  0
 14 59  1  0
 15 16  1  0
 15 60  1  0
 15 61  1  0
 16 37  1  0
 16 17  1  0
 16 62  1  1
 17 18  1  0
 17 28  1  0
 17 63  1  6
 18 19  1  0
 18 64  1  0
 18 65  1  0
 19 20  1  6
 19 21  1  0
 19 23  1  0
 20 66  1  0
 21 22  1  0
 21 67  1  0
 21 68  1  0
 22 69  1  0
 23 24  1  1
 23 25  1  0
 24 70  1  0
 25 26  1  0
 25 71  1  1
 26 27  1  0
 26 72  1  6
 27 73  1  0
 28 29  1  0
 28 30  1  1
 28 32  1  0
 29 74  1  0
 29 75  1  0
 29 76  1  0
 30 31  1  0
 31 77  1  0
 31 78  1  0
 31 79  1  0
 32 33  1  0
 37 32  1  1
 32 80  1  1
 33 34  2  3
 33 81  1  0
 34 35  1  0
 34 36  1  0
 35 82  1  0
 35 83  1  0
 35 84  1  0
 36 85  1  0
 36 86  1  0
 36 87  1  0
 37 40  1  0
 37 38  1  0
 38 39  1  0
 38 40  1  0
 38 88  1  6
 39 89  1  0
 40 90  1  1
M  END
>  <i_m_ct_stereo_status>  (2) 
1

>  <s_m_source_file>  (2) 
/var/tmp/pbs.5076255.sched01/tmpgqtxr8g4/0xtbcsf6k.sdf

>  <i_m_source_file_index>  (2) 
1

>  <i_lp_mmshare_version>  (2) 
48012

>  <i_f3d_flags>  (2) 
0

>  <s_epik_input>  (2) 
W0NIM11PW0NIMl1bQ0BAXShbQ0gzXSkoW0NIMl0xKVtDQEhdKFtPSF0pW0NASF0yW0NASF0oW0NASF0oW0NIMl0zKU9bQ0gzXSlbQ0BIXShbQ0BASF00W0NAQEhdNVtPSF0pW0NAXTEoT1tDSDNdKVtDQF0yKFtPSF0pW0NAXShbT0hdKShbQ0gyXVtPSF0pW0NIMl1bQ0BIXShbQ0BASF0zW0NAXTQ1NilbQ0BAXShbQ0gzXSkoT1tDSDNdKVtDQEhdNltDSF09QyhbQ0gzXSlbQ0gzXQ==

>  <s_epik_cmdline>  (2) 
J2VwaWtfcHl0aG9uJywgJy1waHQnLCAnMi4wJywgJy1waCcsICc3LjAnLCAnLXRuJywgJzgnLCAnLW1hJywgJzIwMCcsICctaW1hZScsICc8aW5maWxlLm1hZT4nLCAnLW9tYWUnLCAnPG91dGZpbGUubWFlPic=

>  <r_lp_tautomer_probability>  (2) 
1

>  <r_epik_Ionization_Penalty>  (2) 
7.7593e-07

>  <r_epik_Ionization_Penalty_Charging>  (2) 
0

>  <r_epik_Ionization_Penalty_Neutral>  (2) 
7.7593e-07

>  <r_epik_State_Penalty>  (2) 
-0

>  <r_epik_Charging_Adjusted_Penalty>  (2) 
0

>  <i_epik_Tot_Q>  (2) 
0

>  <i_epik_Tot_abs_Q>  (2) 
0

>  <s_lp_Force_Field>  (2) 
OPLS3e

>  <r_lp_Energy>  (2) 
162.935

>  <b_lp_Chiralities_Consistent>  (2) 
1

>  <s_lp_Variant>  (2) 
0:0-1

>  <s_i_glide_gridfile>  (2) 
pfpi4k_grid

>  <i_i_glide_lignum>  (2) 
1

>  <i_i_glide_rotatable_bonds>  (2) 
12

>  <r_i_docking_score>  (2) 
-1.42816

>  <r_i_glide_ligand_efficiency>  (2) 
-0.0357039

>  <r_i_glide_ligand_efficiency_sa>  (2) 
-0.122106

>  <r_i_glide_ligand_efficiency_ln>  (2) 
-0.304584

>  <r_i_glide_gscore>  (2) 
-1.42816

>  <r_i_glide_lipo>  (2) 
-0.101145

>  <r_i_glide_hbond>  (2) 
0

>  <r_i_glide_metal>  (2) 
-0

>  <r_i_glide_rewards>  (2) 
0

>  <r_i_glide_evdw>  (2) 
-22.2352

>  <r_i_glide_ecoul>  (2) 
-2.15499

>  <r_i_glide_erotb>  (2) 
0.107995

>  <r_i_glide_esite>  (2) 
0

>  <r_i_glide_emodel>  (2) 
-19.2867

>  <r_i_glide_energy>  (2) 
-24.3902

>  <r_i_glide_einternal>  (2) 
10.8263

>  <r_i_glide_intrahb_reward>  (2) 
-0

>  <i_i_glide_confnum>  (2) 
1

>  <i_i_glide_posenum>  (2) 
9

>  <r_i_glide_eff_state_penalty>  (2) 
0

>  <ligand_id>  (2) 
0

>  <original_smiles>  (2) 
COCC1(C)CC2(OC)C3C4C(OC)CC5C(CC(O)(CO)C2(O)C4C1O)C(C)(OC)C(C=C(C)C)C51C(O)C31

>  <smiles>  (2) 
[H]OC([H])([H])C1(O[H])C([H])([H])C2([H])C3([H])C([H])([H])C([H])(OC([H])([H])[H])C4([H])C([H])(C5([H])C([H])(O[H])C35C([H])(C([H])=C(C([H])([H])[H])C([H])([H])[H])C2(OC([H])([H])[H])C([H])([H])[H])C2(OC([H])([H])[H])C([H])([H])C(C([H])([H])[H])(C([H])([H])OC([H])([H])[H])C([H])(O[H])C4([H])C12O[H]

$$$$
0:0:2
     RDKit          3D

 90 95  0  0  1  0  0  0  0  0999 V2000
   -1.7192   -8.2521    3.7822 C   0  0  0  0  0  0  0  0  0  0  0  0
   -1.0318   -8.8813    2.7302 O   0  0  0  0  0  0  0  0  0  0  0  0
    0.3956   -8.9008    2.7919 C   0  0  0  0  0  0  0  0  0  0  0  0
    1.0589   -7.5250    2.4470 C   0  0  1  0  0  0  0  0  0  0  0  0
    0.4079   -7.0827    1.1130 C   0  0  0  0  0  0  0  0  0  0  0  0
    0.7183   -6.5224    3.6018 C   0  0  0  0  0  0  0  0  0  0  0  0
    1.8128   -5.5016    4.0745 C   0  0  2  0  0  0  0  0  0  0  0  0
    1.2994   -4.7511    5.1950 O   0  0  0  0  0  0  0  0  0  0  0  0
    0.8520   -5.4438    6.3609 C   0  0  0  0  0  0  0  0  0  0  0  0
    2.0588   -4.5102    2.8552 C   0  0  2  0  0  0  0  0  0  0  0  0
    3.2276   -5.1976    2.0832 C   0  0  1  0  0  0  0  0  0  0  0  0
    4.4750   -4.4796    1.5494 C   0  0  1  0  0  0  0  0  0  0  0  0
    4.2501   -4.1742    0.1623 O   0  0  0  0  0  0  0  0  0  0  0  0
    5.4027   -4.2519   -0.6661 C   0  0  0  0  0  0  0  0  0  0  0  0
    5.0555   -3.2615    2.2769 C   0  0  0  0  0  0  0  0  0  0  0  0
    4.3716   -2.5843    3.4771 C   0  0  2  0  0  0  0  0  0  0  0  0
    4.2103   -3.2357    4.8500 C   0  0  1  0  0  0  0  0  0  0  0  0
    5.1222   -4.3904    5.2252 C   0  0  0  0  0  0  0  0  0  0  0  0
    4.4210   -5.8124    5.3310 C   0  0  1  0  0  0  0  0  0  0  0  0
    5.4766   -6.7050    4.9559 O   0  0  0  0  0  0  0  0  0  0  0  0
    4.2273   -6.1466    6.8579 C   0  0  0  0  0  0  0  0  0  0  0  0
    5.4074   -6.0181    7.6496 O   0  0  0  0  0  0  0  0  0  0  0  0
    3.1846   -6.2845    4.3459 C   0  0  1  0  0  0  0  0  0  0  0  0
    2.8405   -7.5345    4.9442 O   0  0  0  0  0  0  0  0  0  0  0  0
    3.5243   -6.5275    2.8374 C   0  0  1  0  0  0  0  0  0  0  0  0
    2.6289   -7.6463    2.1937 C   0  0  1  0  0  0  0  0  0  0  0  0
    3.1683   -8.9300    2.5131 O   0  0  0  0  0  0  0  0  0  0  0  0
    3.8646   -2.0086    5.7377 C   0  0  1  0  0  0  0  0  0  0  0  0
    3.1838   -2.3904    7.0763 C   0  0  0  0  0  0  0  0  0  0  0  0
    5.1138   -1.3208    5.9551 O   0  0  0  0  0  0  0  0  0  0  0  0
    5.1774   -0.3268    6.9771 C   0  0  0  0  0  0  0  0  0  0  0  0
    2.8862   -1.2477    4.7466 C   0  0  1  0  0  0  0  0  0  0  0  0
    3.1697    0.2377    4.5881 C   0  0  0  0  0  0  0  0  0  0  0  0
    2.3326    1.2901    4.8227 C   0  0  0  0  0  0  0  0  0  0  0  0
    2.8058    2.7069    4.6051 C   0  0  0  0  0  0  0  0  0  0  0  0
    0.8999    1.1878    5.3072 C   0  0  0  0  0  0  0  0  0  0  0  0
    2.9921   -1.9905    3.3931 C   0  0  1  0  0  0  0  0  0  0  0  0
    2.0944   -1.7723    2.1693 C   0  0  1  0  0  0  0  0  0  0  0  0
    2.6028   -2.0484    0.8932 O   0  0  0  0  0  0  0  0  0  0  0  0
    1.8680   -2.9675    3.0900 C   0  0  1  0  0  0  0  0  0  0  0  0
   -2.7844   -8.4981    3.6723 H   0  0  0  0  0  0  0  0  0  0  0  0
   -1.5839   -7.2068    3.7851 H   0  0  0  0  0  0  0  0  0  0  0  0
   -1.4418   -8.7021    4.7481 H   0  0  0  0  0  0  0  0  0  0  0  0
    0.7406   -9.2684    3.7600 H   0  0  0  0  0  0  0  0  0  0  0  0
    0.7249   -9.6342    2.0730 H   0  0  0  0  0  0  0  0  0  0  0  0
    0.7589   -6.1354    0.6992 H   0  0  0  0  0  0  0  0  0  0  0  0
   -0.6742   -7.0093    1.1954 H   0  0  0  0  0  0  0  0  0  0  0  0
    0.6031   -7.8269    0.3387 H   0  0  0  0  0  0  0  0  0  0  0  0
   -0.2019   -6.0040    3.3608 H   0  0  0  0  0  0  0  0  0  0  0  0
    0.4328   -7.1046    4.4765 H   0  0  0  0  0  0  0  0  0  0  0  0
    0.7074   -4.7166    7.1554 H   0  0  0  0  0  0  0  0  0  0  0  0
    1.5807   -6.1714    6.7083 H   0  0  0  0  0  0  0  0  0  0  0  0
   -0.1074   -5.9430    6.2150 H   0  0  0  0  0  0  0  0  0  0  0  0
    1.1981   -4.6680    2.1991 H   0  0  0  0  0  0  0  0  0  0  0  0
    2.7637   -5.4864    1.1403 H   0  0  0  0  0  0  0  0  0  0  0  0
    5.2716   -5.2284    1.5445 H   0  0  0  0  0  0  0  0  0  0  0  0
    5.1206   -3.9847   -1.6800 H   0  0  0  0  0  0  0  0  0  0  0  0
    5.8013   -5.2640   -0.6871 H   0  0  0  0  0  0  0  0  0  0  0  0
    6.1852   -3.5698   -0.3396 H   0  0  0  0  0  0  0  0  0  0  0  0
    6.0651   -3.5181    2.5703 H   0  0  0  0  0  0  0  0  0  0  0  0
    5.1975   -2.4786    1.5344 H   0  0  0  0  0  0  0  0  0  0  0  0
    5.0395   -1.7344    3.6085 H   0  0  0  0  0  0  0  0  0  0  0  0
    3.2769   -3.7375    4.9379 H   0  0  0  0  0  0  0  0  0  0  0  0
    5.9449   -4.4412    4.5086 H   0  0  0  0  0  0  0  0  0  0  0  0
    5.6131   -4.1079    6.1606 H   0  0  0  0  0  0  0  0  0  0  0  0
    5.2489   -7.5743    5.2113 H   0  0  0  0  0  0  0  0  0  0  0  0
    3.4716   -5.5059    7.3006 H   0  0  0  0  0  0  0  0  0  0  0  0
    3.9105   -7.1743    7.0336 H   0  0  0  0  0  0  0  0  0  0  0  0
    5.2085   -6.2449    8.5313 H   0  0  0  0  0  0  0  0  0  0  0  0
    3.5753   -8.1104    4.9108 H   0  0  0  0  0  0  0  0  0  0  0  0
    4.5570   -6.8313    2.6921 H   0  0  0  0  0  0  0  0  0  0  0  0
    2.8160   -7.6195    1.1142 H   0  0  0  0  0  0  0  0  0  0  0  0
    2.9364   -9.1225    3.4010 H   0  0  0  0  0  0  0  0  0  0  0  0
    2.3095   -3.0075    6.9110 H   0  0  0  0  0  0  0  0  0  0  0  0
    2.8391   -1.5049    7.6072 H   0  0  0  0  0  0  0  0  0  0  0  0
    3.8586   -2.9374    7.7317 H   0  0  0  0  0  0  0  0  0  0  0  0
    6.1190    0.2075    6.8779 H   0  0  0  0  0  0  0  0  0  0  0  0
    5.1544   -0.7795    7.9679 H   0  0  0  0  0  0  0  0  0  0  0  0
    4.3705    0.4028    6.9112 H   0  0  0  0  0  0  0  0  0  0  0  0
    1.8756   -1.3970    5.1065 H   0  0  0  0  0  0  0  0  0  0  0  0
    4.1620    0.4670    4.2348 H   0  0  0  0  0  0  0  0  0  0  0  0
    2.7351    3.2820    5.5342 H   0  0  0  0  0  0  0  0  0  0  0  0
    2.1863    3.2025    3.8569 H   0  0  0  0  0  0  0  0  0  0  0  0
    3.8404    2.7482    4.2650 H   0  0  0  0  0  0  0  0  0  0  0  0
    0.7629    1.8160    6.1933 H   0  0  0  0  0  0  0  0  0  0  0  0
    0.5750    0.1839    5.5690 H   0  0  0  0  0  0  0  0  0  0  0  0
    0.2268    1.5696    4.5385 H   0  0  0  0  0  0  0  0  0  0  0  0
    1.3934   -0.9502    2.1908 H   0  0  0  0  0  0  0  0  0  0  0  0
    2.0334   -1.6646    0.2432 H   0  0  0  0  0  0  0  0  0  0  0  0
    0.9498   -2.8363    3.6583 H   0  0  0  0  0  0  0  0  0  0  0  0
  1  2  1  0
  1 41  1  0
  1 42  1  0
  1 43  1  0
  2  3  1  0
  4  3  1  1
  3 44  1  0
  3 45  1  0
  4 26  1  0
  4  5  1  0
  4  6  1  0
  5 46  1  0
  5 47  1  0
  5 48  1  0
  6  7  1  0
  6 49  1  0
  6 50  1  0
  7 23  1  0
  7  8  1  1
  7 10  1  0
  8  9  1  0
  9 51  1  0
  9 52  1  0
  9 53  1  0
 10 40  1  0
 10 11  1  0
 10 54  1  6
 11 25  1  0
 11 12  1  0
 11 55  1  6
 12 13  1  0
 12 15  1  0
 12 56  1  6
 13 14  1  0
 14 57  1  0
 14 58  1  0
 14 59  1  0
 15 16  1  0
 15 60  1  0
 15 61  1  0
 16 37  1  0
 16 17  1  0
 16 62  1  1
 17 18  1  0
 17 28  1  0
 17 63  1  6
 18 19  1  0
 18 64  1  0
 18 65  1  0
 19 20  1  6
 19 21  1  0
 19 23  1  0
 20 66  1  0
 21 22  1  0
 21 67  1  0
 21 68  1  0
 22 69  1  0
 23 24  1  1
 23 25  1  0
 24 70  1  0
 25 26  1  0
 25 71  1  1
 26 27  1  0
 26 72  1  6
 27 73  1  0
 28 29  1  0
 28 30  1  1
 28 32  1  0
 29 74  1  0
 29 75  1  0
 29 76  1  0
 30 31  1  0
 31 77  1  0
 31 78  1  0
 31 79  1  0
 32 33  1  0
 37 32  1  1
 32 80  1  1
 33 34  2  3
 33 81  1  0
 34 35  1  0
 34 36  1  0
 35 82  1  0
 35 83  1  0
 35 84  1  0
 36 85  1  0
 36 86  1  0
 36 87  1  0
 37 40  1  0
 37 38  1  0
 38 39  1  0
 38 40  1  0
 38 88  1  6
 39 89  1  0
 40 90  1  1
M  END
>  <i_m_ct_stereo_status>  (3) 
1

>  <s_m_source_file>  (3) 
/var/tmp/pbs.5076255.sched01/tmpgqtxr8g4/0xtbcsf6k.sdf

>  <i_m_source_file_index>  (3) 
1

>  <i_lp_mmshare_version>  (3) 
48012

>  <i_f3d_flags>  (3) 
0

>  <s_epik_input>  (3) 
W0NIM11PW0NIMl1bQ0BAXShbQ0gzXSkoW0NIMl0xKVtDQEhdKFtPSF0pW0NASF0yW0NASF0oW0NASF0oW0NIMl0zKU9bQ0gzXSlbQ0BIXShbQ0BASF00W0NAQEhdNVtPSF0pW0NAXTEoT1tDSDNdKVtDQF0yKFtPSF0pW0NAXShbT0hdKShbQ0gyXVtPSF0pW0NIMl1bQ0BIXShbQ0BASF0zW0NAXTQ1NilbQ0BAXShbQ0gzXSkoT1tDSDNdKVtDQEhdNltDSF09QyhbQ0gzXSlbQ0gzXQ==

>  <s_epik_cmdline>  (3) 
J2VwaWtfcHl0aG9uJywgJy1waHQnLCAnMi4wJywgJy1waCcsICc3LjAnLCAnLXRuJywgJzgnLCAnLW1hJywgJzIwMCcsICctaW1hZScsICc8aW5maWxlLm1hZT4nLCAnLW9tYWUnLCAnPG91dGZpbGUubWFlPic=

>  <r_lp_tautomer_probability>  (3) 
1

>  <r_epik_Ionization_Penalty>  (3) 
7.7593e-07

>  <r_epik_Ionization_Penalty_Charging>  (3) 
0

>  <r_epik_Ionization_Penalty_Neutral>  (3) 
7.7593e-07

>  <r_epik_State_Penalty>  (3) 
-0

>  <r_epik_Charging_Adjusted_Penalty>  (3) 
0

>  <i_epik_Tot_Q>  (3) 
0

>  <i_epik_Tot_abs_Q>  (3) 
0

>  <s_lp_Force_Field>  (3) 
OPLS3e

>  <r_lp_Energy>  (3) 
162.935

>  <b_lp_Chiralities_Consistent>  (3) 
1

>  <s_lp_Variant>  (3) 
0:0-1

>  <s_i_glide_gridfile>  (3) 
pfpi4k_grid

>  <i_i_glide_lignum>  (3) 
1

>  <i_i_glide_rotatable_bonds>  (3) 
12

>  <r_i_docking_score>  (3) 
-1.39916

>  <r_i_glide_ligand_efficiency>  (3) 
-0.034979

>  <r_i_glide_ligand_efficiency_sa>  (3) 
-0.119626

>  <r_i_glide_ligand_efficiency_ln>  (3) 
-0.2984

>  <r_i_glide_gscore>  (3) 
-1.39916

>  <r_i_glide_lipo>  (3) 
-0.144715

>  <r_i_glide_hbond>  (3) 
0

>  <r_i_glide_metal>  (3) 
-0

>  <r_i_glide_rewards>  (3) 
0

>  <r_i_glide_evdw>  (3) 
-22.0583

>  <r_i_glide_ecoul>  (3) 
-1.73015

>  <r_i_glide_erotb>  (3) 
0.107995

>  <r_i_glide_esite>  (3) 
0

>  <r_i_glide_emodel>  (3) 
-19.3822

>  <r_i_glide_energy>  (3) 
-23.7885

>  <r_i_glide_einternal>  (3) 
10.2541

>  <r_i_glide_intrahb_reward>  (3) 
-0

>  <i_i_glide_confnum>  (3) 
1

>  <i_i_glide_posenum>  (3) 
15

>  <r_i_glide_eff_state_penalty>  (3) 
0

>  <ligand_id>  (3) 
0

>  <original_smiles>  (3) 
COCC1(C)CC2(OC)C3C4C(OC)CC5C(CC(O)(CO)C2(O)C4C1O)C(C)(OC)C(C=C(C)C)C51C(O)C31

>  <smiles>  (3) 
[H]OC([H])([H])C1(O[H])C([H])([H])C2([H])C3([H])C([H])([H])C([H])(OC([H])([H])[H])C4([H])C([H])(C5([H])C([H])(O[H])C35C([H])(C([H])=C(C([H])([H])[H])C([H])([H])[H])C2(OC([H])([H])[H])C([H])([H])[H])C2(OC([H])([H])[H])C([H])([H])C(C([H])([H])[H])(C([H])([H])OC([H])([H])[H])C([H])(O[H])C4([H])C12O[H]

$$$$
1:0:0
     RDKit          3D

 30 31  0  0  1  0  0  0  0  0999 V2000
    2.8260   -2.6943   -3.9189 C   0  0  0  0  0  0  0  0  0  0  0  0
    3.3763   -1.4187   -3.2278 C   0  0  0  0  0  0  0  0  0  0  0  0
    3.5247   -0.2682   -4.2326 C   0  0  0  0  0  0  0  0  0  0  0  0
    4.6389   -1.6687   -2.5792 O   0  0  0  0  0  0  0  0  0  0  0  0
    4.6864   -2.6034   -1.5647 C   0  0  0  0  0  0  0  0  0  0  0  0
    5.9296   -3.0606   -1.0535 C   0  0  0  0  0  0  0  0  0  0  0  0
    5.9694   -4.0991   -0.0946 C   0  0  0  0  0  0  0  0  0  0  0  0
    4.7710   -4.7186    0.3277 C   0  0  0  0  0  0  0  0  0  0  0  0
    4.6812   -5.8278    1.3133 C   0  0  0  0  0  0  0  0  0  0  0  0
    5.9650   -6.3272    1.9725 C   0  0  0  0  0  0  0  0  0  0  0  0
    5.7312   -7.3957    2.7407 F   0  0  0  0  0  0  0  0  0  0  0  0
    6.8620   -6.6673    1.0499 F   0  0  0  0  0  0  0  0  0  0  0  0
    6.4894   -5.3675    2.7353 F   0  0  0  0  0  0  0  0  0  0  0  0
    3.4748   -6.3391    1.6326 C   0  0  0  0  0  0  0  0  0  0  0  0
    2.2123   -5.8610    1.0251 C   0  0  0  0  0  0  0  0  0  0  0  0
    1.0962   -6.3064    1.2969 O   0  0  0  0  0  0  0  0  0  0  0  0
    2.3505   -4.8528    0.1267 O   0  0  0  0  0  0  0  0  0  0  0  0
    3.5423   -4.2558   -0.1897 C   0  0  0  0  0  0  0  0  0  0  0  0
    3.5012   -3.1855   -1.0770 C   0  0  0  0  0  0  0  0  0  0  0  0
    1.8596   -2.4590   -4.3895 H   0  0  0  0  0  0  0  0  0  0  0  0
    2.6612   -3.5133   -3.2181 H   0  0  0  0  0  0  0  0  0  0  0  0
    3.5261   -2.9891   -4.7256 H   0  0  0  0  0  0  0  0  0  0  0  0
    2.6916   -1.0425   -2.4677 H   0  0  0  0  0  0  0  0  0  0  0  0
    2.5672   -0.0527   -4.7071 H   0  0  0  0  0  0  0  0  0  0  0  0
    4.2218   -0.5391   -5.0199 H   0  0  0  0  0  0  0  0  0  0  0  0
    3.8666    0.6624   -3.7722 H   0  0  0  0  0  0  0  0  0  0  0  0
    6.8547   -2.6281   -1.4085 H   0  0  0  0  0  0  0  0  0  0  0  0
    6.9263   -4.3941    0.3122 H   0  0  0  0  0  0  0  0  0  0  0  0
    3.3559   -7.1229    2.3616 H   0  0  0  0  0  0  0  0  0  0  0  0
    2.5106   -2.8959   -1.4379 H   0  0  0  0  0  0  0  0  0  0  0  0
  1  2  1  0
  1 20  1  0
  1 21  1  0
  1 22  1  0
  2  3  1  0
  2  4  1  0
  2 23  1  0
  3 24  1  0
  3 25  1  0
  3 26  1  0
  4  5  1  0
  5 19  2  0
  5  6  1  0
  6  7  2  0
  6 27  1  0
  7  8  1  0
  7 28  1  0
  8 18  2  0
  8  9  1  0
  9 10  1  0
  9 14  2  0
 10 11  1  0
 10 12  1  0
 10 13  1  0
 14 15  1  0
 14 29  1  0
 15 16  2  0
 15 17  1  0
 17 18  1  0
 18 19  1  0
 19 30  1  0
M  END
>  <i_m_ct_stereo_status>  (4) 
1

>  <s_m_source_file>  (4) 
/var/tmp/pbs.5076255.sched01/tmpgqtxr8g4/0xtbcsf6k.sdf

>  <i_m_source_file_index>  (4) 
2

>  <i_lp_mmshare_version>  (4) 
48012

>  <i_f3d_flags>  (4) 
0

>  <s_epik_input>  (4) 
W0NIM11bQ0hdKFtDSDNdKU9jKFtjSF1bY0hdMSlbY0hdYyhjMTIpb2MoPU8pW2NIXWMyQyhGKShGKUY=

>  <s_epik_cmdline>  (4) 
J2VwaWtfcHl0aG9uJywgJy1waHQnLCAnMi4wJywgJy1waCcsICc3LjAnLCAnLXRuJywgJzgnLCAnLW1hJywgJzIwMCcsICctaW1hZScsICc8aW5maWxlLm1hZT4nLCAnLW9tYWUnLCAnPG91dGZpbGUubWFlPic=

>  <r_lp_tautomer_probability>  (4) 
1

>  <r_epik_Ionization_Penalty>  (4) 
2.05437e-09

>  <r_epik_Ionization_Penalty_Charging>  (4) 
0

>  <r_epik_Ionization_Penalty_Neutral>  (4) 
2.05437e-09

>  <r_epik_State_Penalty>  (4) 
-0

>  <r_epik_Charging_Adjusted_Penalty>  (4) 
0

>  <i_epik_Tot_Q>  (4) 
0

>  <i_epik_Tot_abs_Q>  (4) 
0

>  <s_lp_Force_Field>  (4) 
OPLS3e

>  <r_lp_Energy>  (4) 
26.4632

>  <b_lp_Chiralities_Consistent>  (4) 
1

>  <s_lp_Variant>  (4) 
1:0-1

>  <s_i_glide_gridfile>  (4) 
pfpi4k_grid

>  <i_i_glide_lignum>  (4) 
2

>  <i_i_glide_rotatable_bonds>  (4) 
3

>  <r_i_docking_score>  (4) 
-4.01281

>  <r_i_glide_ligand_efficiency>  (4) 
-0.2112

>  <r_i_glide_ligand_efficiency_sa>  (4) 
-0.563567

>  <r_i_glide_ligand_efficiency_ln>  (4) 
-1.01733

>  <r_i_glide_gscore>  (4) 
-4.01281

>  <r_i_glide_lipo>  (4) 
-0.812959

>  <r_i_glide_hbond>  (4) 
-0.129604

>  <r_i_glide_metal>  (4) 
-0

>  <r_i_glide_rewards>  (4) 
-1.68621

>  <r_i_glide_evdw>  (4) 
-25.6752

>  <r_i_glide_ecoul>  (4) 
-2.28043

>  <r_i_glide_erotb>  (4) 
0.241795

>  <r_i_glide_esite>  (4) 
0

>  <r_i_glide_emodel>  (4) 
-31.0795

>  <r_i_glide_energy>  (4) 
-27.9556

>  <r_i_glide_einternal>  (4) 
4.51534

>  <r_i_glide_intrahb_reward>  (4) 
-0

>  <i_i_glide_confnum>  (4) 
4

>  <i_i_glide_posenum>  (4) 
34

>  <r_i_glide_eff_state_penalty>  (4) 
0

>  <ligand_id>  (4) 
1

>  <original_smiles>  (4) 
CC(C)Oc1ccc2c(C(F)(F)F)cc(=O)oc2c1

>  <smiles>  (4) 
[H]c1c(OC([H])(C([H])([H])[H])C([H])([H])[H])c([H])c2oc(=O)c([H])c(C(F)(F)F)c2c1[H]

$$$$
1:0:1
     RDKit          3D

 30 31  0  0  1  0  0  0  0  0999 V2000
    3.6322   -0.2750   -5.0876 C   0  0  0  0  0  0  0  0  0  0  0  0
    3.3356   -1.3389   -4.0089 C   0  0  0  0  0  0  0  0  0  0  0  0
    3.0279   -0.6106   -2.7149 C   0  0  0  0  0  0  0  0  0  0  0  0
    4.5002   -2.1606   -3.9194 O   0  0  0  0  0  0  0  0  0  0  0  0
    4.6882   -2.9097   -2.7716 C   0  0  0  0  0  0  0  0  0  0  0  0
    5.9920   -3.0723   -2.2856 C   0  0  0  0  0  0  0  0  0  0  0  0
    6.2085   -3.6990   -1.0494 C   0  0  0  0  0  0  0  0  0  0  0  0
    5.1274   -4.1864   -0.2898 C   0  0  0  0  0  0  0  0  0  0  0  0
    5.2692   -4.8939    0.9988 C   0  0  0  0  0  0  0  0  0  0  0  0
    6.6542   -5.1265    1.5879 C   0  0  0  0  0  0  0  0  0  0  0  0
    6.5847   -5.5502    2.8540 F   0  0  0  0  0  0  0  0  0  0  0  0
    7.3114   -6.0473    0.8761 F   0  0  0  0  0  0  0  0  0  0  0  0
    7.3659   -4.0002    1.5720 F   0  0  0  0  0  0  0  0  0  0  0  0
    4.1518   -5.3273    1.6413 C   0  0  0  0  0  0  0  0  0  0  0  0
    2.7903   -5.1188    1.1035 C   0  0  0  0  0  0  0  0  0  0  0  0
    1.7802   -5.5130    1.6890 O   0  0  0  0  0  0  0  0  0  0  0  0
    2.7117   -4.4532   -0.0836 O   0  0  0  0  0  0  0  0  0  0  0  0
    3.8138   -4.0265   -0.7870 C   0  0  0  0  0  0  0  0  0  0  0  0
    3.6070   -3.4510   -2.0480 C   0  0  0  0  0  0  0  0  0  0  0  0
    2.8187    0.4431   -5.1946 H   0  0  0  0  0  0  0  0  0  0  0  0
    3.8067   -0.7058   -6.0722 H   0  0  0  0  0  0  0  0  0  0  0  0
    4.5300    0.2888   -4.8246 H   0  0  0  0  0  0  0  0  0  0  0  0
    2.4747   -1.9411   -4.3054 H   0  0  0  0  0  0  0  0  0  0  0  0
    2.2318    0.1311   -2.8790 H   0  0  0  0  0  0  0  0  0  0  0  0
    3.9302   -0.0956   -2.3696 H   0  0  0  0  0  0  0  0  0  0  0  0
    2.6700   -1.2445   -1.8994 H   0  0  0  0  0  0  0  0  0  0  0  0
    6.8183   -2.6713   -2.8504 H   0  0  0  0  0  0  0  0  0  0  0  0
    7.2403   -3.8040   -0.7247 H   0  0  0  0  0  0  0  0  0  0  0  0
    4.2066   -5.8500    2.5815 H   0  0  0  0  0  0  0  0  0  0  0  0
    2.5858   -3.4036   -2.4083 H   0  0  0  0  0  0  0  0  0  0  0  0
  1  2  1  0
  1 20  1  0
  1 21  1  0
  1 22  1  0
  2  3  1  0
  2  4  1  0
  2 23  1  0
  3 24  1  0
  3 25  1  0
  3 26  1  0
  4  5  1  0
  5 19  2  0
  5  6  1  0
  6  7  2  0
  6 27  1  0
  7  8  1  0
  7 28  1  0
  8 18  2  0
  8  9  1  0
  9 10  1  0
  9 14  2  0
 10 11  1  0
 10 12  1  0
 10 13  1  0
 14 15  1  0
 14 29  1  0
 15 16  2  0
 15 17  1  0
 17 18  1  0
 18 19  1  0
 19 30  1  0
M  END
>  <i_m_ct_stereo_status>  (5) 
1

>  <s_m_source_file>  (5) 
/var/tmp/pbs.5076255.sched01/tmpgqtxr8g4/0xtbcsf6k.sdf

>  <i_m_source_file_index>  (5) 
2

>  <i_lp_mmshare_version>  (5) 
48012

>  <i_f3d_flags>  (5) 
0

>  <s_epik_input>  (5) 
W0NIM11bQ0hdKFtDSDNdKU9jKFtjSF1bY0hdMSlbY0hdYyhjMTIpb2MoPU8pW2NIXWMyQyhGKShGKUY=

>  <s_epik_cmdline>  (5) 
J2VwaWtfcHl0aG9uJywgJy1waHQnLCAnMi4wJywgJy1waCcsICc3LjAnLCAnLXRuJywgJzgnLCAnLW1hJywgJzIwMCcsICctaW1hZScsICc8aW5maWxlLm1hZT4nLCAnLW9tYWUnLCAnPG91dGZpbGUubWFlPic=

>  <r_lp_tautomer_probability>  (5) 
1

>  <r_epik_Ionization_Penalty>  (5) 
2.05437e-09

>  <r_epik_Ionization_Penalty_Charging>  (5) 
0

>  <r_epik_Ionization_Penalty_Neutral>  (5) 
2.05437e-09

>  <r_epik_State_Penalty>  (5) 
-0

>  <r_epik_Charging_Adjusted_Penalty>  (5) 
0

>  <i_epik_Tot_Q>  (5) 
0

>  <i_epik_Tot_abs_Q>  (5) 
0

>  <s_lp_Force_Field>  (5) 
OPLS3e

>  <r_lp_Energy>  (5) 
26.4632

>  <b_lp_Chiralities_Consistent>  (5) 
1

>  <s_lp_Variant>  (5) 
1:0-1

>  <s_i_glide_gridfile>  (5) 
pfpi4k_grid

>  <i_i_glide_lignum>  (5) 
2

>  <i_i_glide_rotatable_bonds>  (5) 
3

>  <r_i_docking_score>  (5) 
-3.7486

>  <r_i_glide_ligand_efficiency>  (5) 
-0.197295

>  <r_i_glide_ligand_efficiency_sa>  (5) 
-0.526462

>  <r_i_glide_ligand_efficiency_ln>  (5) 
-0.950351

>  <r_i_glide_gscore>  (5) 
-3.7486

>  <r_i_glide_lipo>  (5) 
-0.814083

>  <r_i_glide_hbond>  (5) 
-0.186602

>  <r_i_glide_metal>  (5) 
-0

>  <r_i_glide_rewards>  (5) 
-1.72633

>  <r_i_glide_evdw>  (5) 
-16.6173

>  <r_i_glide_ecoul>  (5) 
-2.88346

>  <r_i_glide_erotb>  (5) 
0.241795

>  <r_i_glide_esite>  (5) 
0

>  <r_i_glide_emodel>  (5) 
-21.9084

>  <r_i_glide_energy>  (5) 
-19.5007

>  <r_i_glide_einternal>  (5) 
7.61228

>  <r_i_glide_intrahb_reward>  (5) 
-0

>  <i_i_glide_confnum>  (5) 
3

>  <i_i_glide_posenum>  (5) 
30

>  <r_i_glide_eff_state_penalty>  (5) 
0

>  <ligand_id>  (5) 
1

>  <original_smiles>  (5) 
CC(C)Oc1ccc2c(C(F)(F)F)cc(=O)oc2c1

>  <smiles>  (5) 
[H]c1c(OC([H])(C([H])([H])[H])C([H])([H])[H])c([H])c2oc(=O)c([H])c(C(F)(F)F)c2c1[H]

$$$$
1:0:2
     RDKit          3D

 30 31  0  0  1  0  0  0  0  0999 V2000
    2.5079   -5.5773    0.8570 C   0  0  0  0  0  0  0  0  0  0  0  0
    2.9091   -5.6046    2.3354 C   0  0  0  0  0  0  0  0  0  0  0  0
    1.7002   -6.0039    3.2111 C   0  0  0  0  0  0  0  0  0  0  0  0
    3.5848   -4.3636    2.6393 O   0  0  0  0  0  0  0  0  0  0  0  0
    2.8521   -3.2026    2.8020 C   0  0  0  0  0  0  0  0  0  0  0  0
    3.1571   -2.0336    2.0540 C   0  0  0  0  0  0  0  0  0  0  0  0
    2.3588   -0.8627    2.2014 C   0  0  0  0  0  0  0  0  0  0  0  0
    1.2394   -0.8911    3.0802 C   0  0  0  0  0  0  0  0  0  0  0  0
    0.3286    0.2532    3.3192 C   0  0  0  0  0  0  0  0  0  0  0  0
    0.6024    1.5640    2.6005 C   0  0  0  0  0  0  0  0  0  0  0  0
   -0.3299    2.4766    2.8907 F   0  0  0  0  0  0  0  0  0  0  0  0
    1.7923    2.0468    2.9655 F   0  0  0  0  0  0  0  0  0  0  0  0
    0.6086    1.3574    1.2868 F   0  0  0  0  0  0  0  0  0  0  0  0
   -0.7042    0.1151    4.1778 C   0  0  0  0  0  0  0  0  0  0  0  0
   -0.9880   -1.1467    4.9012 C   0  0  0  0  0  0  0  0  0  0  0  0
   -1.9319   -1.2951    5.6751 O   0  0  0  0  0  0  0  0  0  0  0  0
   -0.1187   -2.1565    4.6515 O   0  0  0  0  0  0  0  0  0  0  0  0
    0.9679   -2.0589    3.8174 C   0  0  0  0  0  0  0  0  0  0  0  0
    1.8029   -3.1578    3.7239 C   0  0  0  0  0  0  0  0  0  0  0  0
    2.0191   -6.5069    0.5652 H   0  0  0  0  0  0  0  0  0  0  0  0
    3.3766   -5.4299    0.2136 H   0  0  0  0  0  0  0  0  0  0  0  0
    1.8206   -4.7545    0.6704 H   0  0  0  0  0  0  0  0  0  0  0  0
    3.6570   -6.3988    2.4518 H   0  0  0  0  0  0  0  0  0  0  0  0
    1.3165   -6.9913    3.0108 H   0  0  0  0  0  0  0  0  0  0  0  0
    0.9037   -5.2558    3.0977 H   0  0  0  0  0  0  0  0  0  0  0  0
    1.9854   -5.9842    4.2691 H   0  0  0  0  0  0  0  0  0  0  0  0
    4.0002   -2.0142    1.3766 H   0  0  0  0  0  0  0  0  0  0  0  0
    2.6260    0.0213    1.6570 H   0  0  0  0  0  0  0  0  0  0  0  0
   -1.3867    0.9221    4.3868 H   0  0  0  0  0  0  0  0  0  0  0  0
    1.5739   -3.9983    4.3832 H   0  0  0  0  0  0  0  0  0  0  0  0
  1  2  1  0
  1 20  1  0
  1 21  1  0
  1 22  1  0
  2  3  1  0
  2  4  1  0
  2 23  1  0
  3 24  1  0
  3 25  1  0
  3 26  1  0
  4  5  1  0
  5 19  2  0
  5  6  1  0
  6  7  2  0
  6 27  1  0
  7  8  1  0
  7 28  1  0
  8 18  2  0
  8  9  1  0
  9 10  1  0
  9 14  2  0
 10 11  1  0
 10 12  1  0
 10 13  1  0
 14 15  1  0
 14 29  1  0
 15 16  2  0
 15 17  1  0
 17 18  1  0
 18 19  1  0
 19 30  1  0
M  END
>  <i_m_ct_stereo_status>  (6) 
1

>  <s_m_source_file>  (6) 
/var/tmp/pbs.5076255.sched01/tmpgqtxr8g4/0xtbcsf6k.sdf

>  <i_m_source_file_index>  (6) 
2

>  <i_lp_mmshare_version>  (6) 
48012

>  <i_f3d_flags>  (6) 
0

>  <s_epik_input>  (6) 
W0NIM11bQ0hdKFtDSDNdKU9jKFtjSF1bY0hdMSlbY0hdYyhjMTIpb2MoPU8pW2NIXWMyQyhGKShGKUY=

>  <s_epik_cmdline>  (6) 
J2VwaWtfcHl0aG9uJywgJy1waHQnLCAnMi4wJywgJy1waCcsICc3LjAnLCAnLXRuJywgJzgnLCAnLW1hJywgJzIwMCcsICctaW1hZScsICc8aW5maWxlLm1hZT4nLCAnLW9tYWUnLCAnPG91dGZpbGUubWFlPic=

>  <r_lp_tautomer_probability>  (6) 
1

>  <r_epik_Ionization_Penalty>  (6) 
2.05437e-09

>  <r_epik_Ionization_Penalty_Charging>  (6) 
0

>  <r_epik_Ionization_Penalty_Neutral>  (6) 
2.05437e-09

>  <r_epik_State_Penalty>  (6) 
-0

>  <r_epik_Charging_Adjusted_Penalty>  (6) 
0

>  <i_epik_Tot_Q>  (6) 
0

>  <i_epik_Tot_abs_Q>  (6) 
0

>  <s_lp_Force_Field>  (6) 
OPLS3e

>  <r_lp_Energy>  (6) 
26.4632

>  <b_lp_Chiralities_Consistent>  (6) 
1

>  <s_lp_Variant>  (6) 
1:0-1

>  <s_i_glide_gridfile>  (6) 
pfpi4k_grid

>  <i_i_glide_lignum>  (6) 
2

>  <i_i_glide_rotatable_bonds>  (6) 
3

>  <r_i_docking_score>  (6) 
-2.81684

>  <r_i_glide_ligand_efficiency>  (6) 
-0.148255

>  <r_i_glide_ligand_efficiency_sa>  (6) 
-0.395603

>  <r_i_glide_ligand_efficiency_ln>  (6) 
-0.714128

>  <r_i_glide_gscore>  (6) 
-2.81684

>  <r_i_glide_lipo>  (6) 
-0.0397218

>  <r_i_glide_hbond>  (6) 
-0.0174617

>  <r_i_glide_metal>  (6) 
-0

>  <r_i_glide_rewards>  (6) 
-1.55305

>  <r_i_glide_evdw>  (6) 
-18.3118

>  <r_i_glide_ecoul>  (6) 
-2.23751

>  <r_i_glide_erotb>  (6) 
0.241795

>  <r_i_glide_esite>  (6) 
-0.197185

>  <r_i_glide_emodel>  (6) 
-21.8476

>  <r_i_glide_energy>  (6) 
-20.5493

>  <r_i_glide_einternal>  (6) 
5.08816

>  <r_i_glide_intrahb_reward>  (6) 
-0

>  <i_i_glide_confnum>  (6) 
4

>  <i_i_glide_posenum>  (6) 
2

>  <r_i_glide_eff_state_penalty>  (6) 
0

>  <ligand_id>  (6) 
1

>  <original_smiles>  (6) 
CC(C)Oc1ccc2c(C(F)(F)F)cc(=O)oc2c1

>  <smiles>  (6) 
[H]c1c(OC([H])(C([H])([H])[H])C([H])([H])[H])c([H])c2oc(=O)c([H])c(C(F)(F)F)c2c1[H]

$$$$
2:0:0
     RDKit          3D

 19 19  0  0  1  0  0  0  0  0999 V2000
   -6.0892   -8.9301   -7.5196 C   0  0  0  0  0  0  0  0  0  0  0  0
   -6.9258   -7.6957   -7.2172 C   0  0  0  0  0  0  0  0  0  0  0  0
   -8.0096   -7.4010   -8.0664 C   0  0  0  0  0  0  0  0  0  0  0  0
   -8.8012   -6.2617   -7.8625 C   0  0  0  0  0  0  0  0  0  0  0  0
   -8.5232   -5.3857   -6.7973 C   0  0  0  0  0  0  0  0  0  0  0  0
   -9.3560   -4.1834   -6.5639 N   0  0  0  0  0  0  0  0  0  0  0  0
  -10.1787   -3.8715   -7.4212 O   0  0  0  0  0  0  0  0  0  0  0  0
   -9.1891   -3.5511   -5.5277 O   0  0  0  0  0  0  0  0  0  0  0  0
   -7.4362   -5.6779   -5.9483 C   0  0  0  0  0  0  0  0  0  0  0  0
   -6.6304   -6.8217   -6.1374 C   0  0  0  0  0  0  0  0  0  0  0  0
   -5.4800   -7.0207   -5.2240 N   0  0  0  0  0  0  0  0  0  0  0  0
   -4.9875   -6.0175   -4.7176 O   0  0  0  0  0  0  0  0  0  0  0  0
   -5.0704   -8.1557   -5.0074 O   0  0  0  0  0  0  0  0  0  0  0  0
   -6.4408   -9.4602   -8.4079 H   0  0  0  0  0  0  0  0  0  0  0  0
   -6.1288   -9.6252   -6.6847 H   0  0  0  0  0  0  0  0  0  0  0  0
   -5.0531   -8.6485   -7.6957 H   0  0  0  0  0  0  0  0  0  0  0  0
   -8.2472   -8.0529   -8.8982 H   0  0  0  0  0  0  0  0  0  0  0  0
   -9.6382   -6.0654   -8.5253 H   0  0  0  0  0  0  0  0  0  0  0  0
   -7.2099   -4.9998   -5.1400 H   0  0  0  0  0  0  0  0  0  0  0  0
  1  2  1  0
  1 14  1  0
  1 15  1  0
  1 16  1  0
  2 10  2  0
  2  3  1  0
  3  4  2  0
  3 17  1  0
  4  5  1  0
  4 18  1  0
  5  6  1  0
  5  9  2  0
  6  7  2  0
  6  8  1  0
  9 10  1  0
  9 19  1  0
 10 11  1  0
 11 12  2  0
 11 13  1  0
M  CHG  4   6   1   8  -1  11   1  13  -1
M  END
>  <i_m_ct_stereo_status>  (7) 
1

>  <s_m_source_file>  (7) 
/var/tmp/pbs.5076255.sched01/tmpgqtxr8g4/0xtbcsf6k.sdf

>  <i_m_source_file_index>  (7) 
3

>  <i_lp_mmshare_version>  (7) 
48012

>  <i_f3d_flags>  (7) 
0

>  <s_epik_input>  (7) 
W0NIM11jMVtjSF1bY0hdYyhbTitdKD1PKVtPLV0pW2NIXWMxW04rXSg9TylbTy1d

>  <s_epik_cmdline>  (7) 
J2VwaWtfcHl0aG9uJywgJy1waHQnLCAnMi4wJywgJy1waCcsICc3LjAnLCAnLXRuJywgJzgnLCAnLW1hJywgJzIwMCcsICctaW1hZScsICc8aW5maWxlLm1hZT4nLCAnLW9tYWUnLCAnPG91dGZpbGUubWFlPic=

>  <r_lp_tautomer_probability>  (7) 
1

>  <r_epik_Ionization_Penalty>  (7) 
0

>  <r_epik_Ionization_Penalty_Charging>  (7) 
0

>  <r_epik_Ionization_Penalty_Neutral>  (7) 
0

>  <r_epik_State_Penalty>  (7) 
-0

>  <r_epik_Charging_Adjusted_Penalty>  (7) 
0

>  <i_epik_Tot_Q>  (7) 
0

>  <i_epik_Tot_abs_Q>  (7) 
4

>  <s_lp_Force_Field>  (7) 
OPLS3e

>  <r_lp_Energy>  (7) 
19.0837

>  <b_lp_Chiralities_Consistent>  (7) 
1

>  <s_lp_Variant>  (7) 
2:0-1

>  <s_i_glide_gridfile>  (7) 
pfpi4k_grid

>  <i_i_glide_lignum>  (7) 
3

>  <i_i_glide_rotatable_bonds>  (7) 
2

>  <r_i_docking_score>  (7) 
-6.28174

>  <r_i_glide_ligand_efficiency>  (7) 
-0.483211

>  <r_i_glide_ligand_efficiency_sa>  (7) 
-1.13619

>  <r_i_glide_ligand_efficiency_ln>  (7) 
-1.76208

>  <r_i_glide_gscore>  (7) 
-6.28174

>  <r_i_glide_lipo>  (7) 
-1.46835

>  <r_i_glide_hbond>  (7) 
0

>  <r_i_glide_metal>  (7) 
-0

>  <r_i_glide_rewards>  (7) 
-3.27149

>  <r_i_glide_evdw>  (7) 
-23.6608

>  <r_i_glide_ecoul>  (7) 
-1.82054

>  <r_i_glide_erotb>  (7) 
0

>  <r_i_glide_esite>  (7) 
-0.0857791

>  <r_i_glide_emodel>  (7) 
-34.9363

>  <r_i_glide_energy>  (7) 
-25.4813

>  <r_i_glide_einternal>  (7) 
0.311787

>  <r_i_glide_intrahb_reward>  (7) 
-0

>  <i_i_glide_confnum>  (7) 
1

>  <i_i_glide_posenum>  (7) 
38

>  <r_i_glide_eff_state_penalty>  (7) 
0

>  <ligand_id>  (7) 
2

>  <original_smiles>  (7) 
Cc1ccc([N+](=O)[O-])cc1[N+](=O)[O-]

>  <smiles>  (7) 
[H]c1c([H])c(C([H])([H])[H])c([N+](=O)[O-])c([H])c1[N+](=O)[O-]

$$$$
2:0:1
     RDKit          3D

 19 19  0  0  1  0  0  0  0  0999 V2000
   -6.5961   -4.7183   -3.9649 C   0  0  0  0  0  0  0  0  0  0  0  0
   -7.3629   -5.1351   -5.2105 C   0  0  0  0  0  0  0  0  0  0  0  0
   -8.4851   -4.3680   -5.5965 C   0  0  0  0  0  0  0  0  0  0  0  0
   -9.2441   -4.7114   -6.7274 C   0  0  0  0  0  0  0  0  0  0  0  0
   -8.8980   -5.8410   -7.5001 C   0  0  0  0  0  0  0  0  0  0  0  0
   -9.6870   -6.2190   -8.6929 N   0  0  0  0  0  0  0  0  0  0  0  0
   -9.3930   -7.2573   -9.2762 O   0  0  0  0  0  0  0  0  0  0  0  0
  -10.5821   -5.4704   -9.0544 O   0  0  0  0  0  0  0  0  0  0  0  0
   -7.7816   -6.6110   -7.1055 C   0  0  0  0  0  0  0  0  0  0  0  0
   -7.0009   -6.2781   -5.9745 C   0  0  0  0  0  0  0  0  0  0  0  0
   -5.8433   -7.1526   -5.6276 N   0  0  0  0  0  0  0  0  0  0  0  0
   -5.9550   -8.3488   -5.8529 O   0  0  0  0  0  0  0  0  0  0  0  0
   -4.8235   -6.6508   -5.1667 O   0  0  0  0  0  0  0  0  0  0  0  0
   -7.0452   -3.8575   -3.4751 H   0  0  0  0  0  0  0  0  0  0  0  0
   -5.5830   -4.4352   -4.2376 H   0  0  0  0  0  0  0  0  0  0  0  0
   -6.5769   -5.5349   -3.2455 H   0  0  0  0  0  0  0  0  0  0  0  0
   -8.7837   -3.4985   -5.0159 H   0  0  0  0  0  0  0  0  0  0  0  0
  -10.1064   -4.1066   -6.9968 H   0  0  0  0  0  0  0  0  0  0  0  0
   -7.5069   -7.4756   -7.6916 H   0  0  0  0  0  0  0  0  0  0  0  0
  1  2  1  0
  1 14  1  0
  1 15  1  0
  1 16  1  0
  2 10  2  0
  2  3  1  0
  3  4  2  0
  3 17  1  0
  4  5  1  0
  4 18  1  0
  5  6  1  0
  5  9  2  0
  6  7  2  0
  6  8  1  0
  9 10  1  0
  9 19  1  0
 10 11  1  0
 11 12  2  0
 11 13  1  0
M  CHG  4   6   1   8  -1  11   1  13  -1
M  END
>  <i_m_ct_stereo_status>  (8) 
1

>  <s_m_source_file>  (8) 
/var/tmp/pbs.5076255.sched01/tmpgqtxr8g4/0xtbcsf6k.sdf

>  <i_m_source_file_index>  (8) 
3

>  <i_lp_mmshare_version>  (8) 
48012

>  <i_f3d_flags>  (8) 
0

>  <s_epik_input>  (8) 
W0NIM11jMVtjSF1bY0hdYyhbTitdKD1PKVtPLV0pW2NIXWMxW04rXSg9TylbTy1d

>  <s_epik_cmdline>  (8) 
J2VwaWtfcHl0aG9uJywgJy1waHQnLCAnMi4wJywgJy1waCcsICc3LjAnLCAnLXRuJywgJzgnLCAnLW1hJywgJzIwMCcsICctaW1hZScsICc8aW5maWxlLm1hZT4nLCAnLW9tYWUnLCAnPG91dGZpbGUubWFlPic=

>  <r_lp_tautomer_probability>  (8) 
1

>  <r_epik_Ionization_Penalty>  (8) 
0

>  <r_epik_Ionization_Penalty_Charging>  (8) 
0

>  <r_epik_Ionization_Penalty_Neutral>  (8) 
0

>  <r_epik_State_Penalty>  (8) 
-0

>  <r_epik_Charging_Adjusted_Penalty>  (8) 
0

>  <i_epik_Tot_Q>  (8) 
0

>  <i_epik_Tot_abs_Q>  (8) 
4

>  <s_lp_Force_Field>  (8) 
OPLS3e

>  <r_lp_Energy>  (8) 
19.0837

>  <b_lp_Chiralities_Consistent>  (8) 
1

>  <s_lp_Variant>  (8) 
2:0-1

>  <s_i_glide_gridfile>  (8) 
pfpi4k_grid

>  <i_i_glide_lignum>  (8) 
3

>  <i_i_glide_rotatable_bonds>  (8) 
2

>  <r_i_docking_score>  (8) 
-6.03895

>  <r_i_glide_ligand_efficiency>  (8) 
-0.464535

>  <r_i_glide_ligand_efficiency_sa>  (8) 
-1.09228

>  <r_i_glide_ligand_efficiency_ln>  (8) 
-1.69398

>  <r_i_glide_gscore>  (8) 
-6.03895

>  <r_i_glide_lipo>  (8) 
-1.86821

>  <r_i_glide_hbond>  (8) 
0

>  <r_i_glide_metal>  (8) 
-0

>  <r_i_glide_rewards>  (8) 
-2.71949

>  <r_i_glide_evdw>  (8) 
-23.343

>  <r_i_glide_ecoul>  (8) 
-1.41267

>  <r_i_glide_erotb>  (8) 
0

>  <r_i_glide_esite>  (8) 
-0.0722008

>  <r_i_glide_emodel>  (8) 
-34.0162

>  <r_i_glide_energy>  (8) 
-24.7557

>  <r_i_glide_einternal>  (8) 
0.0609243

>  <r_i_glide_intrahb_reward>  (8) 
-0

>  <i_i_glide_confnum>  (8) 
1

>  <i_i_glide_posenum>  (8) 
30

>  <r_i_glide_eff_state_penalty>  (8) 
0

>  <ligand_id>  (8) 
2

>  <original_smiles>  (8) 
Cc1ccc([N+](=O)[O-])cc1[N+](=O)[O-]

>  <smiles>  (8) 
[H]c1c([H])c(C([H])([H])[H])c([N+](=O)[O-])c([H])c1[N+](=O)[O-]

$$$$
2:0:2
     RDKit          3D

 19 19  0  0  1  0  0  0  0  0999 V2000
  -10.0033   -3.4236   -6.7580 C   0  0  0  0  0  0  0  0  0  0  0  0
   -8.9279   -4.4529   -6.4720 C   0  0  0  0  0  0  0  0  0  0  0  0
   -8.1592   -4.3068   -5.2996 C   0  0  0  0  0  0  0  0  0  0  0  0
   -7.1293   -5.2105   -4.9831 C   0  0  0  0  0  0  0  0  0  0  0  0
   -6.8616   -6.2905   -5.8494 C   0  0  0  0  0  0  0  0  0  0  0  0
   -5.7760   -7.2455   -5.5355 N   0  0  0  0  0  0  0  0  0  0  0  0
   -5.7828   -8.3308   -6.1091 O   0  0  0  0  0  0  0  0  0  0  0  0
   -4.9137   -6.8920   -4.7422 O   0  0  0  0  0  0  0  0  0  0  0  0
   -7.6246   -6.4367   -7.0196 C   0  0  0  0  0  0  0  0  0  0  0  0
   -8.6520   -5.5318   -7.3536 C   0  0  0  0  0  0  0  0  0  0  0  0
   -9.3782   -5.7343   -8.6294 N   0  0  0  0  0  0  0  0  0  0  0  0
  -10.5887   -5.5369   -8.6726 O   0  0  0  0  0  0  0  0  0  0  0  0
   -8.7276   -6.0950   -9.6097 O   0  0  0  0  0  0  0  0  0  0  0  0
  -10.0432   -2.6531   -5.9815 H   0  0  0  0  0  0  0  0  0  0  0  0
  -10.9892   -3.8763   -6.7824 H   0  0  0  0  0  0  0  0  0  0  0  0
   -9.7915   -2.9343   -7.7040 H   0  0  0  0  0  0  0  0  0  0  0  0
   -8.3524   -3.4748   -4.6244 H   0  0  0  0  0  0  0  0  0  0  0  0
   -6.5570   -5.0771   -4.0716 H   0  0  0  0  0  0  0  0  0  0  0  0
   -7.3976   -7.2552   -7.6960 H   0  0  0  0  0  0  0  0  0  0  0  0
  1  2  1  0
  1 14  1  0
  1 15  1  0
  1 16  1  0
  2 10  2  0
  2  3  1  0
  3  4  2  0
  3 17  1  0
  4  5  1  0
  4 18  1  0
  5  6  1  0
  5  9  2  0
  6  7  2  0
  6  8  1  0
  9 10  1  0
  9 19  1  0
 10 11  1  0
 11 12  2  0
 11 13  1  0
M  CHG  4   6   1   8  -1  11   1  13  -1
M  END
>  <i_m_ct_stereo_status>  (9) 
1

>  <s_m_source_file>  (9) 
/var/tmp/pbs.5076255.sched01/tmpgqtxr8g4/0xtbcsf6k.sdf

>  <i_m_source_file_index>  (9) 
3

>  <i_lp_mmshare_version>  (9) 
48012

>  <i_f3d_flags>  (9) 
0

>  <s_epik_input>  (9) 
W0NIM11jMVtjSF1bY0hdYyhbTitdKD1PKVtPLV0pW2NIXWMxW04rXSg9TylbTy1d

>  <s_epik_cmdline>  (9) 
J2VwaWtfcHl0aG9uJywgJy1waHQnLCAnMi4wJywgJy1waCcsICc3LjAnLCAnLXRuJywgJzgnLCAnLW1hJywgJzIwMCcsICctaW1hZScsICc8aW5maWxlLm1hZT4nLCAnLW9tYWUnLCAnPG91dGZpbGUubWFlPic=

>  <r_lp_tautomer_probability>  (9) 
1

>  <r_epik_Ionization_Penalty>  (9) 
0

>  <r_epik_Ionization_Penalty_Charging>  (9) 
0

>  <r_epik_Ionization_Penalty_Neutral>  (9) 
0

>  <r_epik_State_Penalty>  (9) 
-0

>  <r_epik_Charging_Adjusted_Penalty>  (9) 
0

>  <i_epik_Tot_Q>  (9) 
0

>  <i_epik_Tot_abs_Q>  (9) 
4

>  <s_lp_Force_Field>  (9) 
OPLS3e

>  <r_lp_Energy>  (9) 
19.0837

>  <b_lp_Chiralities_Consistent>  (9) 
1

>  <s_lp_Variant>  (9) 
2:0-1

>  <s_i_glide_gridfile>  (9) 
pfpi4k_grid

>  <i_i_glide_lignum>  (9) 
3

>  <i_i_glide_rotatable_bonds>  (9) 
2

>  <r_i_docking_score>  (9) 
-5.981

>  <r_i_glide_ligand_efficiency>  (9) 
-0.460077

>  <r_i_glide_ligand_efficiency_sa>  (9) 
-1.0818

>  <r_i_glide_ligand_efficiency_ln>  (9) 
-1.67772

>  <r_i_glide_gscore>  (9) 
-5.981

>  <r_i_glide_lipo>  (9) 
-1.78734

>  <r_i_glide_hbond>  (9) 
0

>  <r_i_glide_metal>  (9) 
-0

>  <r_i_glide_rewards>  (9) 
-2.86103

>  <r_i_glide_evdw>  (9) 
-24.0109

>  <r_i_glide_ecoul>  (9) 
-0.401955

>  <r_i_glide_erotb>  (9) 
0

>  <r_i_glide_esite>  (9) 
-0.0717926

>  <r_i_glide_emodel>  (9) 
-33.4276

>  <r_i_glide_energy>  (9) 
-24.4129

>  <r_i_glide_einternal>  (9) 
0.309256

>  <r_i_glide_intrahb_reward>  (9) 
-0

>  <i_i_glide_confnum>  (9) 
2

>  <i_i_glide_posenum>  (9) 
7

>  <r_i_glide_eff_state_penalty>  (9) 
0

>  <ligand_id>  (9) 
2

>  <original_smiles>  (9) 
Cc1ccc([N+](=O)[O-])cc1[N+](=O)[O-]

>  <smiles>  (9) 
[H]c1c([H])c(C([H])([H])[H])c([N+](=O)[O-])c([H])c1[N+](=O)[O-]

$$$$
3:0:0
     RDKit          3D

 27 29  0  0  1  0  0  0  0  0999 V2000
   -0.1797   -2.4668    6.5612 C   0  0  0  0  0  0  0  0  0  0  0  0
   -0.1068   -3.5898    7.4334 O   0  0  0  0  0  0  0  0  0  0  0  0
    0.1547   -4.8142    6.8624 C   0  0  0  0  0  0  0  0  0  0  0  0
    0.2680   -5.0317    5.4668 C   0  0  0  0  0  0  0  0  0  0  0  0
    0.5354   -6.3264    4.9991 C   0  0  0  0  0  0  0  0  0  0  0  0
    0.6671   -6.5457    3.5658 C   0  0  0  0  0  0  0  0  0  0  0  0
    1.3233   -5.7086    2.7739 N   0  0  0  0  0  0  0  0  0  0  0  0
    1.2328   -6.2797    1.5186 N   0  0  0  0  0  0  0  0  0  0  0  0
    0.5313   -7.3628    1.5517 N   0  0  0  0  0  0  0  0  0  0  0  0
    0.1482   -7.5481    2.8363 N   0  0  0  0  0  0  0  0  0  0  0  0
   -0.6287   -8.7161    3.2314 C   0  0  0  0  0  0  0  0  0  0  0  0
   -1.6680   -9.1710    2.2305 C   0  0  0  0  0  0  0  0  0  0  0  0
   -2.0946   -8.4475    3.4877 C   0  0  0  0  0  0  0  0  0  0  0  0
    0.6983   -7.3698    5.9304 C   0  0  0  0  0  0  0  0  0  0  0  0
    0.5788   -7.0557    7.2950 C   0  0  0  0  0  0  0  0  0  0  0  0
    0.2976   -5.8195    7.7533 N   0  0  0  0  0  0  0  0  0  0  0  0
   -0.3894   -1.5489    7.1110 H   0  0  0  0  0  0  0  0  0  0  0  0
   -0.9784   -2.6019    5.8344 H   0  0  0  0  0  0  0  0  0  0  0  0
    0.7655   -2.3315    6.0376 H   0  0  0  0  0  0  0  0  0  0  0  0
    0.1728   -4.2440    4.7317 H   0  0  0  0  0  0  0  0  0  0  0  0
   -0.0694   -9.4324    3.8208 H   0  0  0  0  0  0  0  0  0  0  0  0
   -1.7749   -8.6454    1.2771 H   0  0  0  0  0  0  0  0  0  0  0  0
   -1.8393  -10.2452    2.1690 H   0  0  0  0  0  0  0  0  0  0  0  0
   -2.5812   -9.0430    4.2531 H   0  0  0  0  0  0  0  0  0  0  0  0
   -2.4840   -7.4358    3.3640 H   0  0  0  0  0  0  0  0  0  0  0  0
    0.9308   -8.3774    5.6242 H   0  0  0  0  0  0  0  0  0  0  0  0
    0.7001   -7.8252    8.0396 H   0  0  0  0  0  0  0  0  0  0  0  0
  1  2  1  0
  1 17  1  0
  1 18  1  0
  1 19  1  0
  2  3  1  0
  3 16  2  0
  3  4  1  0
  4  5  2  0
  4 20  1  0
  5  6  1  0
  5 14  1  0
  6 10  1  0
  6  7  2  0
  7  8  1  0
  8  9  2  0
  9 10  1  0
 10 11  1  0
 11 13  1  0
 11 12  1  0
 11 21  1  0
 12 13  1  0
 12 22  1  0
 12 23  1  0
 13 24  1  0
 13 25  1  0
 14 15  2  0
 14 26  1  0
 15 16  1  0
 15 27  1  0
M  END
>  <i_m_ct_stereo_status>  (10) 
1

>  <s_m_source_file>  (10) 
/var/tmp/pbs.5076255.sched01/tmpgqtxr8g4/0xtbcsf6k.sdf

>  <i_m_source_file_index>  (10) 
4

>  <i_lp_mmshare_version>  (10) 
48012

>  <i_f3d_flags>  (10) 
0

>  <s_epik_input>  (10) 
W0NIM11PYzFbY0hdYyhbY0hdW2NIXW4xKS1jMm5ubm4yW0NIXTNbQ0gyXVtDSDJdMw==

>  <s_epik_cmdline>  (10) 
J2VwaWtfcHl0aG9uJywgJy1waHQnLCAnMi4wJywgJy1waCcsICc3LjAnLCAnLXRuJywgJzgnLCAnLW1hJywgJzIwMCcsICctaW1hZScsICc8aW5maWxlLm1hZT4nLCAnLW9tYWUnLCAnPG91dGZpbGUubWFlPic=

>  <r_lp_tautomer_probability>  (10) 
1

>  <r_epik_Ionization_Penalty>  (10) 
2.41783e-06

>  <r_epik_Ionization_Penalty_Charging>  (10) 
0

>  <r_epik_Ionization_Penalty_Neutral>  (10) 
2.41783e-06

>  <r_epik_State_Penalty>  (10) 
-0

>  <r_epik_Charging_Adjusted_Penalty>  (10) 
0

>  <i_epik_Tot_Q>  (10) 
0

>  <i_epik_Tot_abs_Q>  (10) 
0

>  <s_lp_Force_Field>  (10) 
OPLS3e

>  <r_lp_Energy>  (10) 
21.0661

>  <b_lp_Chiralities_Consistent>  (10) 
1

>  <s_lp_Variant>  (10) 
3:0-1

>  <s_i_glide_gridfile>  (10) 
pfpi4k_grid

>  <i_i_glide_lignum>  (10) 
4

>  <i_i_glide_rotatable_bonds>  (10) 
3

>  <r_i_docking_score>  (10) 
-2.86169

>  <r_i_glide_ligand_efficiency>  (10) 
-0.178856

>  <r_i_glide_ligand_efficiency_sa>  (10) 
-0.450688

>  <r_i_glide_ligand_efficiency_ln>  (10) 
-0.758548

>  <r_i_glide_gscore>  (10) 
-2.86169

>  <r_i_glide_lipo>  (10) 
-0.249825

>  <r_i_glide_hbond>  (10) 
0

>  <r_i_glide_metal>  (10) 
-0

>  <r_i_glide_rewards>  (10) 
-1.928

>  <r_i_glide_evdw>  (10) 
-18.238

>  <r_i_glide_ecoul>  (10) 
-1.44004

>  <r_i_glide_erotb>  (10) 
0.711068

>  <r_i_glide_esite>  (10) 
-0.267033

>  <r_i_glide_emodel>  (10) 
-21.7136

>  <r_i_glide_energy>  (10) 
-19.678

>  <r_i_glide_einternal>  (10) 
5.14663

>  <r_i_glide_intrahb_reward>  (10) 
-0

>  <i_i_glide_confnum>  (10) 
5

>  <i_i_glide_posenum>  (10) 
19

>  <r_i_glide_eff_state_penalty>  (10) 
0

>  <ligand_id>  (10) 
3

>  <original_smiles>  (10) 
COc1cc(-c2nnnn2C2CC2)ccn1

>  <smiles>  (10) 
[H]c1nc(OC([H])([H])[H])c([H])c(-c2nnnn2C2([H])C([H])([H])C2([H])[H])c1[H]

$$$$
3:0:1
     RDKit          3D

 27 29  0  0  1  0  0  0  0  0999 V2000
    0.3546   -6.1379   10.3910 C   0  0  0  0  0  0  0  0  0  0  0  0
    0.2205   -5.8072    9.0094 O   0  0  0  0  0  0  0  0  0  0  0  0
    0.2424   -6.8408    8.1149 C   0  0  0  0  0  0  0  0  0  0  0  0
    0.2558   -6.5843    6.7208 C   0  0  0  0  0  0  0  0  0  0  0  0
    0.2363   -7.6570    5.8110 C   0  0  0  0  0  0  0  0  0  0  0  0
    0.3086   -7.4245    4.3476 C   0  0  0  0  0  0  0  0  0  0  0  0
    0.5585   -6.2255    3.8035 N   0  0  0  0  0  0  0  0  0  0  0  0
    0.5458   -6.4174    2.4452 N   0  0  0  0  0  0  0  0  0  0  0  0
    0.2512   -7.6280    2.1541 N   0  0  0  0  0  0  0  0  0  0  0  0
    0.1472   -8.2929    3.3317 N   0  0  0  0  0  0  0  0  0  0  0  0
   -0.2400   -9.7011    3.2658 C   0  0  0  0  0  0  0  0  0  0  0  0
    0.7546  -10.6971    3.8772 C   0  0  0  0  0  0  0  0  0  0  0  0
    0.6336  -10.5836    2.3990 C   0  0  0  0  0  0  0  0  0  0  0  0
    0.1446   -8.9615    6.3830 C   0  0  0  0  0  0  0  0  0  0  0  0
    0.2112   -9.1385    7.7494 C   0  0  0  0  0  0  0  0  0  0  0  0
    0.2345   -8.1204    8.6120 N   0  0  0  0  0  0  0  0  0  0  0  0
    0.3407   -5.2078   10.9353 H   0  0  0  0  0  0  0  0  0  0  0  0
    1.2994   -6.6475   10.5837 H   0  0  0  0  0  0  0  0  0  0  0  0
   -0.4659   -6.7612   10.7471 H   0  0  0  0  0  0  0  0  0  0  0  0
    0.2720   -5.5537    6.3958 H   0  0  0  0  0  0  0  0  0  0  0  0
   -1.3166   -9.8517    3.2827 H   0  0  0  0  0  0  0  0  0  0  0  0
    1.6463  -10.2903    4.3266 H   0  0  0  0  0  0  0  0  0  0  0  0
    0.2867  -11.5264    4.3916 H   0  0  0  0  0  0  0  0  0  0  0  0
    0.2089  -11.4700    1.9379 H   0  0  0  0  0  0  0  0  0  0  0  0
    1.5088  -10.1909    1.9207 H   0  0  0  0  0  0  0  0  0  0  0  0
   -0.0139   -9.8667    5.8821 H   0  0  0  0  0  0  0  0  0  0  0  0
    0.2013  -10.1401    8.1179 H   0  0  0  0  0  0  0  0  0  0  0  0
  1  2  1  0
  1 17  1  0
  1 18  1  0
  1 19  1  0
  2  3  1  0
  3 16  2  0
  3  4  1  0
  4  5  2  0
  4 20  1  0
  5  6  1  0
  5 14  1  0
  6 10  1  0
  6  7  2  0
  7  8  1  0
  8  9  2  0
  9 10  1  0
 10 11  1  0
 11 13  1  0
 11 12  1  0
 11 21  1  0
 12 13  1  0
 12 22  1  0
 12 23  1  0
 13 24  1  0
 13 25  1  0
 14 15  2  0
 14 26  1  0
 15 16  1  0
 15 27  1  0
M  END
>  <i_m_ct_stereo_status>  (11) 
1

>  <s_m_source_file>  (11) 
/var/tmp/pbs.5076255.sched01/tmpgqtxr8g4/0xtbcsf6k.sdf

>  <i_m_source_file_index>  (11) 
4

>  <i_lp_mmshare_version>  (11) 
48012

>  <i_f3d_flags>  (11) 
0

>  <s_epik_input>  (11) 
W0NIM11PYzFbY0hdYyhbY0hdW2NIXW4xKS1jMm5ubm4yW0NIXTNbQ0gyXVtDSDJdMw==

>  <s_epik_cmdline>  (11) 
J2VwaWtfcHl0aG9uJywgJy1waHQnLCAnMi4wJywgJy1waCcsICc3LjAnLCAnLXRuJywgJzgnLCAnLW1hJywgJzIwMCcsICctaW1hZScsICc8aW5maWxlLm1hZT4nLCAnLW9tYWUnLCAnPG91dGZpbGUubWFlPic=

>  <r_lp_tautomer_probability>  (11) 
1

>  <r_epik_Ionization_Penalty>  (11) 
2.41783e-06

>  <r_epik_Ionization_Penalty_Charging>  (11) 
0

>  <r_epik_Ionization_Penalty_Neutral>  (11) 
2.41783e-06

>  <r_epik_State_Penalty>  (11) 
-0

>  <r_epik_Charging_Adjusted_Penalty>  (11) 
0

>  <i_epik_Tot_Q>  (11) 
0

>  <i_epik_Tot_abs_Q>  (11) 
0

>  <s_lp_Force_Field>  (11) 
OPLS3e

>  <r_lp_Energy>  (11) 
21.0661

>  <b_lp_Chiralities_Consistent>  (11) 
1

>  <s_lp_Variant>  (11) 
3:0-1

>  <s_i_glide_gridfile>  (11) 
pfpi4k_grid

>  <i_i_glide_lignum>  (11) 
4

>  <i_i_glide_rotatable_bonds>  (11) 
3

>  <r_i_docking_score>  (11) 
-2.85755

>  <r_i_glide_ligand_efficiency>  (11) 
-0.178597

>  <r_i_glide_ligand_efficiency_sa>  (11) 
-0.450035

>  <r_i_glide_ligand_efficiency_ln>  (11) 
-0.75745

>  <r_i_glide_gscore>  (11) 
-2.85755

>  <r_i_glide_lipo>  (11) 
-0.181926

>  <r_i_glide_hbond>  (11) 
0

>  <r_i_glide_metal>  (11) 
-0

>  <r_i_glide_rewards>  (11) 
-1.928

>  <r_i_glide_evdw>  (11) 
-17.4368

>  <r_i_glide_ecoul>  (11) 
-2.36265

>  <r_i_glide_erotb>  (11) 
0.711068

>  <r_i_glide_esite>  (11) 
-0.232456

>  <r_i_glide_emodel>  (11) 
-22.5497

>  <r_i_glide_energy>  (11) 
-19.7994

>  <r_i_glide_einternal>  (11) 
0.929361

>  <r_i_glide_intrahb_reward>  (11) 
-0

>  <i_i_glide_confnum>  (11) 
1

>  <i_i_glide_posenum>  (11) 
7

>  <r_i_glide_eff_state_penalty>  (11) 
0

>  <ligand_id>  (11) 
3

>  <original_smiles>  (11) 
COc1cc(-c2nnnn2C2CC2)ccn1

>  <smiles>  (11) 
[H]c1nc(OC([H])([H])[H])c([H])c(-c2nnnn2C2([H])C([H])([H])C2([H])[H])c1[H]

$$$$
3:0:2
     RDKit          3D

 27 29  0  0  1  0  0  0  0  0999 V2000
   -2.4850    2.7480    7.8706 C   0  0  0  0  0  0  0  0  0  0  0  0
   -2.5789    3.5896    6.7277 O   0  0  0  0  0  0  0  0  0  0  0  0
   -2.0381    3.1207    5.5509 C   0  0  0  0  0  0  0  0  0  0  0  0
   -1.4118    1.8574    5.4225 C   0  0  0  0  0  0  0  0  0  0  0  0
   -0.9059    1.4675    4.1683 C   0  0  0  0  0  0  0  0  0  0  0  0
   -0.2522    0.1692    4.0363 C   0  0  0  0  0  0  0  0  0  0  0  0
   -0.5249   -0.8538    4.8403 N   0  0  0  0  0  0  0  0  0  0  0  0
    0.2635   -1.8833    4.3747 N   0  0  0  0  0  0  0  0  0  0  0  0
    0.9759   -1.5034    3.3612 N   0  0  0  0  0  0  0  0  0  0  0  0
    0.6793   -0.1980    3.1399 N   0  0  0  0  0  0  0  0  0  0  0  0
    1.2672    0.5041    2.0109 C   0  0  0  0  0  0  0  0  0  0  0  0
    2.7724    0.4178    1.8964 C   0  0  0  0  0  0  0  0  0  0  0  0
    2.1240    1.6961    2.3785 C   0  0  0  0  0  0  0  0  0  0  0  0
   -1.0613    2.3511    3.0845 C   0  0  0  0  0  0  0  0  0  0  0  0
   -1.6863    3.5886    3.3089 C   0  0  0  0  0  0  0  0  0  0  0  0
   -2.1685    3.9703    4.5096 N   0  0  0  0  0  0  0  0  0  0  0  0
   -2.9385    3.2134    8.7479 H   0  0  0  0  0  0  0  0  0  0  0  0
   -1.4415    2.5411    8.1124 H   0  0  0  0  0  0  0  0  0  0  0  0
   -2.9984    1.8015    7.6973 H   0  0  0  0  0  0  0  0  0  0  0  0
   -1.2978    1.1774    6.2532 H   0  0  0  0  0  0  0  0  0  0  0  0
    0.6316    0.5267    1.1305 H   0  0  0  0  0  0  0  0  0  0  0  0
    3.3222   -0.1675    2.6298 H   0  0  0  0  0  0  0  0  0  0  0  0
    3.1944    0.4137    0.8919 H   0  0  0  0  0  0  0  0  0  0  0  0
    2.1005    2.5483    1.6981 H   0  0  0  0  0  0  0  0  0  0  0  0
    2.2406    1.9527    3.4293 H   0  0  0  0  0  0  0  0  0  0  0  0
   -0.7184    2.1287    2.0838 H   0  0  0  0  0  0  0  0  0  0  0  0
   -1.8089    4.2828    2.4903 H   0  0  0  0  0  0  0  0  0  0  0  0
  1  2  1  0
  1 17  1  0
  1 18  1  0
  1 19  1  0
  2  3  1  0
  3 16  2  0
  3  4  1  0
  4  5  2  0
  4 20  1  0
  5  6  1  0
  5 14  1  0
  6 10  1  0
  6  7  2  0
  7  8  1  0
  8  9  2  0
  9 10  1  0
 10 11  1  0
 11 13  1  0
 11 12  1  0
 11 21  1  0
 12 13  1  0
 12 22  1  0
 12 23  1  0
 13 24  1  0
 13 25  1  0
 14 15  2  0
 14 26  1  0
 15 16  1  0
 15 27  1  0
M  END
>  <i_m_ct_stereo_status>  (12) 
1

>  <s_m_source_file>  (12) 
/var/tmp/pbs.5076255.sched01/tmpgqtxr8g4/0xtbcsf6k.sdf

>  <i_m_source_file_index>  (12) 
4

>  <i_lp_mmshare_version>  (12) 
48012

>  <i_f3d_flags>  (12) 
0

>  <s_epik_input>  (12) 
W0NIM11PYzFbY0hdYyhbY0hdW2NIXW4xKS1jMm5ubm4yW0NIXTNbQ0gyXVtDSDJdMw==

>  <s_epik_cmdline>  (12) 
J2VwaWtfcHl0aG9uJywgJy1waHQnLCAnMi4wJywgJy1waCcsICc3LjAnLCAnLXRuJywgJzgnLCAnLW1hJywgJzIwMCcsICctaW1hZScsICc8aW5maWxlLm1hZT4nLCAnLW9tYWUnLCAnPG91dGZpbGUubWFlPic=

>  <r_lp_tautomer_probability>  (12) 
1

>  <r_epik_Ionization_Penalty>  (12) 
2.41783e-06

>  <r_epik_Ionization_Penalty_Charging>  (12) 
0

>  <r_epik_Ionization_Penalty_Neutral>  (12) 
2.41783e-06

>  <r_epik_State_Penalty>  (12) 
-0

>  <r_epik_Charging_Adjusted_Penalty>  (12) 
0

>  <i_epik_Tot_Q>  (12) 
0

>  <i_epik_Tot_abs_Q>  (12) 
0

>  <s_lp_Force_Field>  (12) 
OPLS3e

>  <r_lp_Energy>  (12) 
21.0661

>  <b_lp_Chiralities_Consistent>  (12) 
1

>  <s_lp_Variant>  (12) 
3:0-1

>  <s_i_glide_gridfile>  (12) 
pfpi4k_grid

>  <i_i_glide_lignum>  (12) 
4

>  <i_i_glide_rotatable_bonds>  (12) 
3

>  <r_i_docking_score>  (12) 
-2.79279

>  <r_i_glide_ligand_efficiency>  (12) 
-0.17455

>  <r_i_glide_ligand_efficiency_sa>  (12) 
-0.439838

>  <r_i_glide_ligand_efficiency_ln>  (12) 
-0.740286

>  <r_i_glide_gscore>  (12) 
-2.79279

>  <r_i_glide_lipo>  (12) 
-0.205103

>  <r_i_glide_hbond>  (12) 
0

>  <r_i_glide_metal>  (12) 
-0

>  <r_i_glide_rewards>  (12) 
-1.928

>  <r_i_glide_evdw>  (12) 
-18.8266

>  <r_i_glide_ecoul>  (12) 
-2.39828

>  <r_i_glide_erotb>  (12) 
0.711068

>  <r_i_glide_esite>  (12) 
-0.0696919

>  <r_i_glide_emodel>  (12) 
-23.6103

>  <r_i_glide_energy>  (12) 
-21.2249

>  <r_i_glide_einternal>  (12) 
4.40827

>  <r_i_glide_intrahb_reward>  (12) 
-0

>  <i_i_glide_confnum>  (12) 
5

>  <i_i_glide_posenum>  (12) 
1

>  <r_i_glide_eff_state_penalty>  (12) 
0

>  <ligand_id>  (12) 
3

>  <original_smiles>  (12) 
COc1cc(-c2nnnn2C2CC2)ccn1

>  <smiles>  (12) 
[H]c1nc(OC([H])([H])[H])c([H])c(-c2nnnn2C2([H])C([H])([H])C2([H])[H])c1[H]

$$$$
4:0:0
     RDKit          3D

 58 62  0  0  1  0  0  0  0  0999 V2000
    0.6119   -9.1700    2.4941 C   0  0  0  0  0  0  0  0  0  0  0  0
    1.4347   -8.1161    2.3690 C   0  0  0  0  0  0  0  0  0  0  0  0
    0.9962   -6.7716    1.9759 C   0  0  0  0  0  0  0  0  0  0  0  0
   -0.1459   -6.4190    1.6904 O   0  0  0  0  0  0  0  0  0  0  0  0
    2.0879   -5.9679    1.9577 O   0  0  0  0  0  0  0  0  0  0  0  0
    3.2535   -6.6003    2.4767 C   0  0  1  0  0  0  0  0  0  0  0  0
    2.8510   -8.0398    2.5495 C   0  0  0  0  0  0  0  0  0  0  0  0
    3.7417   -9.0436    2.6068 C   0  0  0  0  0  0  0  0  0  0  0  0
    5.2397   -8.7892    2.5868 C   0  0  0  0  0  0  0  0  0  0  0  0
    5.6512   -7.2826    2.4882 C   0  0  1  0  0  0  0  0  0  0  0  0
    7.1080   -7.1996    1.9599 C   0  0  0  0  0  0  0  0  0  0  0  0
    4.5993   -6.3736    1.7383 C   0  0  1  0  0  0  0  0  0  0  0  0
    4.4949   -6.8467    0.2705 C   0  0  0  0  0  0  0  0  0  0  0  0
    4.9813   -4.8558    1.8927 C   0  0  0  0  0  0  0  0  0  0  0  0
    4.3583   -3.8101    0.9162 C   0  0  2  0  0  0  0  0  0  0  0  0
    5.0685   -3.7334   -0.4758 C   0  0  1  0  0  0  0  0  0  0  0  0
    4.0999   -3.1013   -1.4749 C   0  0  0  0  0  0  0  0  0  0  0  0
    3.7458   -1.6597   -1.1046 C   0  0  0  0  0  0  0  0  0  0  0  0
    3.4646   -1.4805    0.4107 C   0  0  0  0  0  0  0  0  0  0  0  0
    4.3351   -2.3298    1.4020 C   0  0  1  0  0  0  0  0  0  0  0  0
    3.8005   -2.0796    2.7348 N   0  0  0  0  0  0  0  0  0  0  0  0
    4.4731   -1.1198    3.3849 C   0  0  0  0  0  0  0  0  0  0  0  0
    4.1885   -0.6583    4.4879 O   0  0  0  0  0  0  0  0  0  0  0  0
    5.6791   -0.6657    2.5731 C   0  0  0  0  0  0  0  0  0  0  0  0
    5.7913   -1.8427    1.6158 C   0  0  2  0  0  0  0  0  0  0  0  0
    6.5857   -1.7155    0.3217 C   0  0  0  0  0  0  0  0  0  0  0  0
    6.4739   -3.0497   -0.4550 C   0  0  0  0  0  0  0  0  0  0  0  0
    0.9764  -10.1504    2.7668 H   0  0  0  0  0  0  0  0  0  0  0  0
   -0.4463   -9.0576    2.3052 H   0  0  0  0  0  0  0  0  0  0  0  0
    3.3760   -6.2720    3.5091 H   0  0  0  0  0  0  0  0  0  0  0  0
    3.4210  -10.0779    2.5960 H   0  0  0  0  0  0  0  0  0  0  0  0
    5.6861   -9.2446    3.4718 H   0  0  0  0  0  0  0  0  0  0  0  0
    5.6254   -9.3359    1.7254 H   0  0  0  0  0  0  0  0  0  0  0  0
    5.6863   -6.9129    3.5155 H   0  0  0  0  0  0  0  0  0  0  0  0
    7.1969   -7.5574    0.9347 H   0  0  0  0  0  0  0  0  0  0  0  0
    7.7744   -7.8138    2.5664 H   0  0  0  0  0  0  0  0  0  0  0  0
    7.5279   -6.1970    1.9919 H   0  0  0  0  0  0  0  0  0  0  0  0
    5.4162   -6.6400   -0.2686 H   0  0  0  0  0  0  0  0  0  0  0  0
    3.6966   -6.3407   -0.2597 H   0  0  0  0  0  0  0  0  0  0  0  0
    4.3078   -7.9178    0.1828 H   0  0  0  0  0  0  0  0  0  0  0  0
    4.7284   -4.5819    2.9166 H   0  0  0  0  0  0  0  0  0  0  0  0
    6.0521   -4.7264    1.8390 H   0  0  0  0  0  0  0  0  0  0  0  0
    3.3182   -4.1123    0.7692 H   0  0  0  0  0  0  0  0  0  0  0  0
    5.2395   -4.7142   -0.8903 H   0  0  0  0  0  0  0  0  0  0  0  0
    4.5072   -3.1562   -2.4831 H   0  0  0  0  0  0  0  0  0  0  0  0
    3.1878   -3.6989   -1.4887 H   0  0  0  0  0  0  0  0  0  0  0  0
    4.5409   -0.9938   -1.4363 H   0  0  0  0  0  0  0  0  0  0  0  0
    2.8702   -1.3494   -1.6781 H   0  0  0  0  0  0  0  0  0  0  0  0
    3.5284   -0.4176    0.6476 H   0  0  0  0  0  0  0  0  0  0  0  0
    2.4231   -1.7609    0.5843 H   0  0  0  0  0  0  0  0  0  0  0  0
    2.9324   -2.4677    3.0676 H   0  0  0  0  0  0  0  0  0  0  0  0
    5.4569    0.2612    2.0542 H   0  0  0  0  0  0  0  0  0  0  0  0
    6.5670   -0.5140    3.1875 H   0  0  0  0  0  0  0  0  0  0  0  0
    6.3307   -2.5880    2.2006 H   0  0  0  0  0  0  0  0  0  0  0  0
    6.2356   -0.8621   -0.2541 H   0  0  0  0  0  0  0  0  0  0  0  0
    7.6364   -1.5032    0.5446 H   0  0  0  0  0  0  0  0  0  0  0  0
    7.1741   -3.7507   -0.0054 H   0  0  0  0  0  0  0  0  0  0  0  0
    6.8201   -2.9063   -1.4759 H   0  0  0  0  0  0  0  0  0  0  0  0
  1  2  2  0
  1 28  1  0
  1 29  1  0
  2  7  1  0
  2  3  1  0
  3  4  2  0
  3  5  1  0
  5  6  1  0
  6 12  1  0
  6  7  1  0
  6 30  1  1
  7  8  2  0
  8  9  1  0
  8 31  1  0
  9 10  1  0
  9 32  1  0
  9 33  1  0
 10 11  1  0
 10 12  1  0
 10 34  1  1
 11 35  1  0
 11 36  1  0
 11 37  1  0
 12 13  1  6
 12 14  1  0
 13 38  1  0
 13 39  1  0
 13 40  1  0
 14 15  1  0
 14 41  1  0
 14 42  1  0
 15 20  1  0
 15 16  1  0
 15 43  1  6
 16 27  1  0
 16 17  1  0
 16 44  1  6
 17 18  1  0
 17 45  1  0
 17 46  1  0
 18 19  1  0
 18 47  1  0
 18 48  1  0
 19 20  1  0
 19 49  1  0
 19 50  1  0
 20 25  1  0
 20 21  1  1
 21 22  1  0
 21 51  1  0
 22 23  2  0
 22 24  1  0
 24 25  1  0
 24 52  1  0
 24 53  1  0
 25 26  1  0
 25 54  1  1
 26 27  1  0
 26 55  1  0
 26 56  1  0
 27 57  1  0
 27 58  1  0
M  END
>  <i_m_ct_stereo_status>  (13) 
1

>  <s_m_source_file>  (13) 
/var/tmp/pbs.5076255.sched01/tmpgqtxr8g4/0xtbcsf6k.sdf

>  <i_m_source_file_index>  (13) 
5

>  <i_lp_mmshare_version>  (13) 
48012

>  <i_f3d_flags>  (13) 
0

>  <s_epik_input>  (13) 
Tz1DKE8xKUMoPVtDSDJdKUMoW0NASF0xMik9W0NIXVtDSDJdW0NAQEhdKFtDSDNdKVtDQF0yKFtDSDNdKVtDSDJdW0NAQEhdM1tDQEBIXShbQ0gyXVtDSDJdW0NIMl00KVtDSDJdW0NIMl1bQ0BIXShbQ0BdMzQ1KVtDSDJdQyg9TylbTkhdNQ==

>  <s_epik_cmdline>  (13) 
J2VwaWtfcHl0aG9uJywgJy1waHQnLCAnMi4wJywgJy1waCcsICc3LjAnLCAnLXRuJywgJzgnLCAnLW1hJywgJzIwMCcsICctaW1hZScsICc8aW5maWxlLm1hZT4nLCAnLW9tYWUnLCAnPG91dGZpbGUubWFlPic=

>  <r_lp_tautomer_probability>  (13) 
1

>  <r_epik_Ionization_Penalty>  (13) 
2.74444e-07

>  <r_epik_Ionization_Penalty_Charging>  (13) 
0

>  <r_epik_Ionization_Penalty_Neutral>  (13) 
2.74444e-07

>  <r_epik_State_Penalty>  (13) 
-0

>  <r_epik_Charging_Adjusted_Penalty>  (13) 
0

>  <i_epik_Tot_Q>  (13) 
0

>  <i_epik_Tot_abs_Q>  (13) 
0

>  <s_epik_Chemistry_Notes>  (13) 
This compound has an ester and may undergo hydrolysis at high or low pH.

>  <s_lp_Force_Field>  (13) 
OPLS3e

>  <r_lp_Energy>  (13) 
47.3778

>  <b_lp_Chiralities_Consistent>  (13) 
1

>  <s_lp_Variant>  (13) 
4:0-1

>  <s_i_glide_gridfile>  (13) 
pfpi4k_grid

>  <i_i_glide_lignum>  (13) 
5

>  <i_i_glide_rotatable_bonds>  (13) 
2

>  <r_i_docking_score>  (13) 
-3.41922

>  <r_i_glide_ligand_efficiency>  (13) 
-0.126638

>  <r_i_glide_ligand_efficiency_sa>  (13) 
-0.379914

>  <r_i_glide_ligand_efficiency_ln>  (13) 
-0.795938

>  <r_i_glide_gscore>  (13) 
-3.41922

>  <r_i_glide_lipo>  (13) 
-0.605632

>  <r_i_glide_hbond>  (13) 
-0.30123

>  <r_i_glide_metal>  (13) 
-0

>  <r_i_glide_rewards>  (13) 
-0.94827

>  <r_i_glide_evdw>  (13) 
-23.758

>  <r_i_glide_ecoul>  (13) 
-3.99792

>  <r_i_glide_erotb>  (13) 
0.282457

>  <r_i_glide_esite>  (13) 
-0.0589573

>  <r_i_glide_emodel>  (13) 
-33.6186

>  <r_i_glide_energy>  (13) 
-27.7559

>  <r_i_glide_einternal>  (13) 
0.269215

>  <r_i_glide_intrahb_reward>  (13) 
-0

>  <i_i_glide_confnum>  (13) 
1

>  <i_i_glide_posenum>  (13) 
35

>  <r_i_glide_eff_state_penalty>  (13) 
0

>  <ligand_id>  (13) 
4

>  <original_smiles>  (13) 
C=C1C(=O)OC2C1=CCC(C)C2(C)CC1C2CCCC13NC(=O)CC3CC2

>  <smiles>  (13) 
[H]C([H])=C1C(=O)OC2([H])C1=C([H])C([H])([H])C([H])(C([H])([H])[H])C2(C([H])([H])[H])C([H])([H])C1([H])C2([H])C([H])([H])C([H])([H])C([H])([H])C13N([H])C(=O)C([H])([H])C3([H])C([H])([H])C2([H])[H]

$$$$
4:0:1
     RDKit          3D

 58 62  0  0  1  0  0  0  0  0999 V2000
    2.6642  -10.3988    2.8823 C   0  0  0  0  0  0  0  0  0  0  0  0
    2.7994   -9.1311    2.4521 C   0  0  0  0  0  0  0  0  0  0  0  0
    3.8409   -8.6828    1.5149 C   0  0  0  0  0  0  0  0  0  0  0  0
    4.7354   -9.3537    1.0170 O   0  0  0  0  0  0  0  0  0  0  0  0
    3.6602   -7.3606    1.3109 O   0  0  0  0  0  0  0  0  0  0  0  0
    2.4806   -6.8470    1.9084 C   0  0  1  0  0  0  0  0  0  0  0  0
    2.0403   -7.9687    2.7963 C   0  0  0  0  0  0  0  0  0  0  0  0
    1.1998   -7.7937    3.8289 C   0  0  0  0  0  0  0  0  0  0  0  0
    0.6474   -6.4228    4.1924 C   0  0  0  0  0  0  0  0  0  0  0  0
    1.1420   -5.2571    3.2770 C   0  0  1  0  0  0  0  0  0  0  0  0
    0.9404   -3.9088    4.0159 C   0  0  0  0  0  0  0  0  0  0  0  0
    2.5703   -5.4841    2.6439 C   0  0  1  0  0  0  0  0  0  0  0  0
    3.6000   -5.5376    3.8024 C   0  0  0  0  0  0  0  0  0  0  0  0
    2.8731   -4.3683    1.5755 C   0  0  0  0  0  0  0  0  0  0  0  0
    4.2774   -4.2967    0.8943 C   0  0  2  0  0  0  0  0  0  0  0  0
    5.4004   -3.6906    1.7899 C   0  0  1  0  0  0  0  0  0  0  0  0
    6.7435   -4.1835    1.2448 C   0  0  0  0  0  0  0  0  0  0  0  0
    7.0226   -3.6839   -0.1713 C   0  0  0  0  0  0  0  0  0  0  0  0
    5.7768   -3.7815   -1.0935 C   0  0  0  0  0  0  0  0  0  0  0  0
    4.3766   -3.5059   -0.4431 C   0  0  1  0  0  0  0  0  0  0  0  0
    3.3887   -3.8159   -1.4705 N   0  0  0  0  0  0  0  0  0  0  0  0
    3.0311   -2.7326   -2.1644 C   0  0  0  0  0  0  0  0  0  0  0  0
    2.3252   -2.7181   -3.1760 O   0  0  0  0  0  0  0  0  0  0  0  0
    3.6501   -1.4743   -1.5609 C   0  0  0  0  0  0  0  0  0  0  0  0
    4.0366   -2.0205   -0.1918 C   0  0  2  0  0  0  0  0  0  0  0  0
    5.0725   -1.3080    0.6738 C   0  0  0  0  0  0  0  0  0  0  0  0
    5.3091   -2.1422    1.9581 C   0  0  0  0  0  0  0  0  0  0  0  0
    1.9032  -10.6863    3.5930 H   0  0  0  0  0  0  0  0  0  0  0  0
    3.3420  -11.1632    2.5209 H   0  0  0  0  0  0  0  0  0  0  0  0
    1.7300   -6.7637    1.1216 H   0  0  0  0  0  0  0  0  0  0  0  0
    0.9490   -8.6121    4.4920 H   0  0  0  0  0  0  0  0  0  0  0  0
   -0.4417   -6.4694    4.1892 H   0  0  0  0  0  0  0  0  0  0  0  0
    0.9545   -6.2321    5.2215 H   0  0  0  0  0  0  0  0  0  0  0  0
    0.4519   -5.2440    2.4367 H   0  0  0  0  0  0  0  0  0  0  0  0
    1.5882   -3.8170    4.8873 H   0  0  0  0  0  0  0  0  0  0  0  0
   -0.0842   -3.8069    4.3726 H   0  0  0  0  0  0  0  0  0  0  0  0
    1.1148   -3.0422    3.3817 H   0  0  0  0  0  0  0  0  0  0  0  0
    3.7435   -4.5561    4.2593 H   0  0  0  0  0  0  0  0  0  0  0  0
    4.5596   -5.9140    3.4540 H   0  0  0  0  0  0  0  0  0  0  0  0
    3.2830   -6.2065    4.6046 H   0  0  0  0  0  0  0  0  0  0  0  0
    2.1280   -4.4959    0.7937 H   0  0  0  0  0  0  0  0  0  0  0  0
    2.6797   -3.3947    1.9994 H   0  0  0  0  0  0  0  0  0  0  0  0
    4.5608   -5.3125    0.6283 H   0  0  0  0  0  0  0  0  0  0  0  0
    5.3726   -4.0807    2.7972 H   0  0  0  0  0  0  0  0  0  0  0  0
    7.5535   -3.8982    1.9069 H   0  0  0  0  0  0  0  0  0  0  0  0
    6.7318   -5.2751    1.2440 H   0  0  0  0  0  0  0  0  0  0  0  0
    7.3889   -2.6607   -0.1173 H   0  0  0  0  0  0  0  0  0  0  0  0
    7.8502   -4.2536   -0.5977 H   0  0  0  0  0  0  0  0  0  0  0  0
    5.9404   -3.1471   -1.9650 H   0  0  0  0  0  0  0  0  0  0  0  0
    5.7206   -4.8005   -1.4699 H   0  0  0  0  0  0  0  0  0  0  0  0
    3.1765   -4.7619   -1.7858 H   0  0  0  0  0  0  0  0  0  0  0  0
    4.5015   -1.1315   -2.1502 H   0  0  0  0  0  0  0  0  0  0  0  0
    2.9361   -0.6620   -1.4979 H   0  0  0  0  0  0  0  0  0  0  0  0
    3.1057   -1.9627    0.3734 H   0  0  0  0  0  0  0  0  0  0  0  0
    5.9907   -1.1370    0.1187 H   0  0  0  0  0  0  0  0  0  0  0  0
    4.7043   -0.3140    0.9469 H   0  0  0  0  0  0  0  0  0  0  0  0
    4.4792   -1.9434    2.6340 H   0  0  0  0  0  0  0  0  0  0  0  0
    6.2041   -1.7832    2.4634 H   0  0  0  0  0  0  0  0  0  0  0  0
  1  2  2  0
  1 28  1  0
  1 29  1  0
  2  7  1  0
  2  3  1  0
  3  4  2  0
  3  5  1  0
  5  6  1  0
  6 12  1  0
  6  7  1  0
  6 30  1  6
  7  8  2  0
  8  9  1  0
  8 31  1  0
  9 10  1  0
  9 32  1  0
  9 33  1  0
 10 11  1  0
 10 12  1  0
 10 34  1  6
 11 35  1  0
 11 36  1  0
 11 37  1  0
 12 13  1  1
 12 14  1  0
 13 38  1  0
 13 39  1  0
 13 40  1  0
 14 15  1  0
 14 41  1  0
 14 42  1  0
 15 20  1  0
 15 16  1  0
 15 43  1  6
 16 27  1  0
 16 17  1  0
 16 44  1  1
 17 18  1  0
 17 45  1  0
 17 46  1  0
 18 19  1  0
 18 47  1  0
 18 48  1  0
 19 20  1  0
 19 49  1  0
 19 50  1  0
 20 25  1  0
 20 21  1  6
 21 22  1  0
 21 51  1  0
 22 23  2  0
 22 24  1  0
 24 25  1  0
 24 52  1  0
 24 53  1  0
 25 26  1  0
 25 54  1  1
 26 27  1  0
 26 55  1  0
 26 56  1  0
 27 57  1  0
 27 58  1  0
M  END
>  <i_m_ct_stereo_status>  (14) 
1

>  <s_m_source_file>  (14) 
/var/tmp/pbs.5076255.sched01/tmpgqtxr8g4/0xtbcsf6k.sdf

>  <i_m_source_file_index>  (14) 
5

>  <i_lp_mmshare_version>  (14) 
48012

>  <i_f3d_flags>  (14) 
0

>  <s_epik_input>  (14) 
Tz1DKE8xKUMoPVtDSDJdKUMoW0NASF0xMik9W0NIXVtDSDJdW0NAQEhdKFtDSDNdKVtDQF0yKFtDSDNdKVtDSDJdW0NAQEhdM1tDQEBIXShbQ0gyXVtDSDJdW0NIMl00KVtDSDJdW0NIMl1bQ0BIXShbQ0BdMzQ1KVtDSDJdQyg9TylbTkhdNQ==

>  <s_epik_cmdline>  (14) 
J2VwaWtfcHl0aG9uJywgJy1waHQnLCAnMi4wJywgJy1waCcsICc3LjAnLCAnLXRuJywgJzgnLCAnLW1hJywgJzIwMCcsICctaW1hZScsICc8aW5maWxlLm1hZT4nLCAnLW9tYWUnLCAnPG91dGZpbGUubWFlPic=

>  <r_lp_tautomer_probability>  (14) 
1

>  <r_epik_Ionization_Penalty>  (14) 
2.74444e-07

>  <r_epik_Ionization_Penalty_Charging>  (14) 
0

>  <r_epik_Ionization_Penalty_Neutral>  (14) 
2.74444e-07

>  <r_epik_State_Penalty>  (14) 
-0

>  <r_epik_Charging_Adjusted_Penalty>  (14) 
0

>  <i_epik_Tot_Q>  (14) 
0

>  <i_epik_Tot_abs_Q>  (14) 
0

>  <s_epik_Chemistry_Notes>  (14) 
This compound has an ester and may undergo hydrolysis at high or low pH.

>  <s_lp_Force_Field>  (14) 
OPLS3e

>  <r_lp_Energy>  (14) 
47.3778

>  <b_lp_Chiralities_Consistent>  (14) 
1

>  <s_lp_Variant>  (14) 
4:0-1

>  <s_i_glide_gridfile>  (14) 
pfpi4k_grid

>  <i_i_glide_lignum>  (14) 
5

>  <i_i_glide_rotatable_bonds>  (14) 
2

>  <r_i_docking_score>  (14) 
-3.15515

>  <r_i_glide_ligand_efficiency>  (14) 
-0.116857

>  <r_i_glide_ligand_efficiency_sa>  (14) 
-0.350572

>  <r_i_glide_ligand_efficiency_ln>  (14) 
-0.734467

>  <r_i_glide_gscore>  (14) 
-3.15515

>  <r_i_glide_lipo>  (14) 
-0.52845

>  <r_i_glide_hbond>  (14) 
-0.32

>  <r_i_glide_metal>  (14) 
-0

>  <r_i_glide_rewards>  (14) 
-0.889792

>  <r_i_glide_evdw>  (14) 
-22.4537

>  <r_i_glide_ecoul>  (14) 
-3.36662

>  <r_i_glide_erotb>  (14) 
0.282457

>  <r_i_glide_esite>  (14) 
-0.071683

>  <r_i_glide_emodel>  (14) 
-31.0454

>  <r_i_glide_energy>  (14) 
-25.8204

>  <r_i_glide_einternal>  (14) 
0.349553

>  <r_i_glide_intrahb_reward>  (14) 
-0

>  <i_i_glide_confnum>  (14) 
1

>  <i_i_glide_posenum>  (14) 
21

>  <r_i_glide_eff_state_penalty>  (14) 
0

>  <ligand_id>  (14) 
4

>  <original_smiles>  (14) 
C=C1C(=O)OC2C1=CCC(C)C2(C)CC1C2CCCC13NC(=O)CC3CC2

>  <smiles>  (14) 
[H]C([H])=C1C(=O)OC2([H])C1=C([H])C([H])([H])C([H])(C([H])([H])[H])C2(C([H])([H])[H])C([H])([H])C1([H])C2([H])C([H])([H])C([H])([H])C([H])([H])C13N([H])C(=O)C([H])([H])C3([H])C([H])([H])C2([H])[H]

$$$$
4:0:2
     RDKit          3D

 58 62  0  0  1  0  0  0  0  0999 V2000
    3.7511  -10.0115    2.9235 C   0  0  0  0  0  0  0  0  0  0  0  0
    3.7001   -8.8115    2.3192 C   0  0  0  0  0  0  0  0  0  0  0  0
    4.6316   -8.3949    1.2757 C   0  0  0  0  0  0  0  0  0  0  0  0
    5.5869   -9.0432    0.8554 O   0  0  0  0  0  0  0  0  0  0  0  0
    4.2988   -7.1374    0.8852 O   0  0  0  0  0  0  0  0  0  0  0  0
    3.0990   -6.6792    1.4957 C   0  0  1  0  0  0  0  0  0  0  0  0
    2.8408   -7.7002    2.5575 C   0  0  0  0  0  0  0  0  0  0  0  0
    2.0508   -7.4647    3.6205 C   0  0  0  0  0  0  0  0  0  0  0  0
    1.3726   -6.1251    3.8410 C   0  0  0  0  0  0  0  0  0  0  0  0
    1.6655   -5.0599    2.7370 C   0  0  1  0  0  0  0  0  0  0  0  0
    1.3576   -3.6473    3.3087 C   0  0  0  0  0  0  0  0  0  0  0  0
    3.0741   -5.2217    2.0379 C   0  0  1  0  0  0  0  0  0  0  0  0
    4.1509   -5.0345    3.1356 C   0  0  0  0  0  0  0  0  0  0  0  0
    3.1750   -4.2494    0.8030 C   0  0  0  0  0  0  0  0  0  0  0  0
    4.5697   -3.7832    0.2835 C   0  0  2  0  0  0  0  0  0  0  0  0
    5.3605   -2.8694    1.2890 C   0  0  1  0  0  0  0  0  0  0  0  0
    6.8427   -2.9448    0.8951 C   0  0  0  0  0  0  0  0  0  0  0  0
    7.1402   -2.3726   -0.4804 C   0  0  0  0  0  0  0  0  0  0  0  0
    6.1095   -2.8289   -1.5429 C   0  0  0  0  0  0  0  0  0  0  0  0
    4.6207   -2.9735   -1.0544 C   0  0  1  0  0  0  0  0  0  0  0  0
    3.8954   -3.5165   -2.1892 N   0  0  0  0  0  0  0  0  0  0  0  0
    3.2907   -2.5947   -2.9417 C   0  0  0  0  0  0  0  0  0  0  0  0
    2.6607   -2.8050   -3.9761 O   0  0  0  0  0  0  0  0  0  0  0  0
    3.4439   -1.2143   -2.3101 C   0  0  0  0  0  0  0  0  0  0  0  0
    3.8295   -1.6430   -0.8984 C   0  0  2  0  0  0  0  0  0  0  0  0
    4.4867   -0.6732    0.0687 C   0  0  0  0  0  0  0  0  0  0  0  0
    4.8025   -1.4089    1.3846 C   0  0  0  0  0  0  0  0  0  0  0  0
    3.0786  -10.2784    3.7224 H   0  0  0  0  0  0  0  0  0  0  0  0
    4.4832  -10.7384    2.6032 H   0  0  0  0  0  0  0  0  0  0  0  0
    2.2961   -6.7836    0.7684 H   0  0  0  0  0  0  0  0  0  0  0  0
    1.9545   -8.2070    4.4020 H   0  0  0  0  0  0  0  0  0  0  0  0
    0.3015   -6.2911    3.9341 H   0  0  0  0  0  0  0  0  0  0  0  0
    1.7219   -5.7574    4.8046 H   0  0  0  0  0  0  0  0  0  0  0  0
    0.9351   -5.2558    1.9527 H   0  0  0  0  0  0  0  0  0  0  0  0
    2.0418   -3.3727    4.1099 H   0  0  0  0  0  0  0  0  0  0  0  0
    0.3520   -3.6089    3.7227 H   0  0  0  0  0  0  0  0  0  0  0  0
    1.3981   -2.8493    2.5721 H   0  0  0  0  0  0  0  0  0  0  0  0
    4.1526   -4.0129    3.5120 H   0  0  0  0  0  0  0  0  0  0  0  0
    5.1410   -5.2589    2.7550 H   0  0  0  0  0  0  0  0  0  0  0  0
    4.0151   -5.7026    3.9819 H   0  0  0  0  0  0  0  0  0  0  0  0
    2.6698   -4.7310   -0.0299 H   0  0  0  0  0  0  0  0  0  0  0  0
    2.5851   -3.3645    0.9699 H   0  0  0  0  0  0  0  0  0  0  0  0
    5.1390   -4.7038    0.1151 H   0  0  0  0  0  0  0  0  0  0  0  0
    5.3714   -3.2198    2.3042 H   0  0  0  0  0  0  0  0  0  0  0  0
    7.4172   -2.4109    1.6306 H   0  0  0  0  0  0  0  0  0  0  0  0
    7.1565   -3.9845    0.9229 H   0  0  0  0  0  0  0  0  0  0  0  0
    7.1568   -1.2944   -0.3797 H   0  0  0  0  0  0  0  0  0  0  0  0
    8.1440   -2.6540   -0.8057 H   0  0  0  0  0  0  0  0  0  0  0  0
    6.1698   -2.1731   -2.4161 H   0  0  0  0  0  0  0  0  0  0  0  0
    6.4241   -3.8161   -1.9014 H   0  0  0  0  0  0  0  0  0  0  0  0
    3.8918   -4.4960   -2.4370 H   0  0  0  0  0  0  0  0  0  0  0  0
    4.2214   -0.6425   -2.8246 H   0  0  0  0  0  0  0  0  0  0  0  0
    2.5048   -0.6494   -2.3501 H   0  0  0  0  0  0  0  0  0  0  0  0
    2.8574   -1.8577   -0.4479 H   0  0  0  0  0  0  0  0  0  0  0  0
    5.3670   -0.2455   -0.3914 H   0  0  0  0  0  0  0  0  0  0  0  0
    3.8174    0.1617    0.2707 H   0  0  0  0  0  0  0  0  0  0  0  0
    3.8771   -1.4730    1.9477 H   0  0  0  0  0  0  0  0  0  0  0  0
    5.4779   -0.7982    1.9734 H   0  0  0  0  0  0  0  0  0  0  0  0
  1  2  2  0
  1 28  1  0
  1 29  1  0
  2  7  1  0
  2  3  1  0
  3  4  2  0
  3  5  1  0
  5  6  1  0
  6 12  1  0
  6  7  1  0
  6 30  1  6
  7  8  2  0
  8  9  1  0
  8 31  1  0
  9 10  1  0
  9 32  1  0
  9 33  1  0
 10 11  1  0
 10 12  1  0
 10 34  1  6
 11 35  1  0
 11 36  1  0
 11 37  1  0
 12 13  1  1
 12 14  1  0
 13 38  1  0
 13 39  1  0
 13 40  1  0
 14 15  1  0
 14 41  1  0
 14 42  1  0
 15 20  1  0
 15 16  1  0
 15 43  1  6
 16 27  1  0
 16 17  1  0
 16 44  1  1
 17 18  1  0
 17 45  1  0
 17 46  1  0
 18 19  1  0
 18 47  1  0
 18 48  1  0
 19 20  1  0
 19 49  1  0
 19 50  1  0
 20 25  1  0
 20 21  1  6
 21 22  1  0
 21 51  1  0
 22 23  2  0
 22 24  1  0
 24 25  1  0
 24 52  1  0
 24 53  1  0
 25 26  1  0
 25 54  1  1
 26 27  1  0
 26 55  1  0
 26 56  1  0
 27 57  1  0
 27 58  1  0
M  END
>  <i_m_ct_stereo_status>  (15) 
1

>  <s_m_source_file>  (15) 
/var/tmp/pbs.5076255.sched01/tmpgqtxr8g4/0xtbcsf6k.sdf

>  <i_m_source_file_index>  (15) 
5

>  <i_lp_mmshare_version>  (15) 
48012

>  <i_f3d_flags>  (15) 
0

>  <s_epik_input>  (15) 
Tz1DKE8xKUMoPVtDSDJdKUMoW0NASF0xMik9W0NIXVtDSDJdW0NAQEhdKFtDSDNdKVtDQF0yKFtDSDNdKVtDSDJdW0NAQEhdM1tDQEBIXShbQ0gyXVtDSDJdW0NIMl00KVtDSDJdW0NIMl1bQ0BIXShbQ0BdMzQ1KVtDSDJdQyg9TylbTkhdNQ==

>  <s_epik_cmdline>  (15) 
J2VwaWtfcHl0aG9uJywgJy1waHQnLCAnMi4wJywgJy1waCcsICc3LjAnLCAnLXRuJywgJzgnLCAnLW1hJywgJzIwMCcsICctaW1hZScsICc8aW5maWxlLm1hZT4nLCAnLW9tYWUnLCAnPG91dGZpbGUubWFlPic=

>  <r_lp_tautomer_probability>  (15) 
1

>  <r_epik_Ionization_Penalty>  (15) 
2.74444e-07

>  <r_epik_Ionization_Penalty_Charging>  (15) 
0

>  <r_epik_Ionization_Penalty_Neutral>  (15) 
2.74444e-07

>  <r_epik_State_Penalty>  (15) 
-0

>  <r_epik_Charging_Adjusted_Penalty>  (15) 
0

>  <i_epik_Tot_Q>  (15) 
0

>  <i_epik_Tot_abs_Q>  (15) 
0

>  <s_epik_Chemistry_Notes>  (15) 
This compound has an ester and may undergo hydrolysis at high or low pH.

>  <s_lp_Force_Field>  (15) 
OPLS3e

>  <r_lp_Energy>  (15) 
47.3778

>  <b_lp_Chiralities_Consistent>  (15) 
1

>  <s_lp_Variant>  (15) 
4:0-1

>  <s_i_glide_gridfile>  (15) 
pfpi4k_grid

>  <i_i_glide_lignum>  (15) 
5

>  <i_i_glide_rotatable_bonds>  (15) 
2

>  <r_i_docking_score>  (15) 
-3.04585

>  <r_i_glide_ligand_efficiency>  (15) 
-0.112809

>  <r_i_glide_ligand_efficiency_sa>  (15) 
-0.338428

>  <r_i_glide_ligand_efficiency_ln>  (15) 
-0.709025

>  <r_i_glide_gscore>  (15) 
-3.04585

>  <r_i_glide_lipo>  (15) 
-0.319217

>  <r_i_glide_hbond>  (15) 
-0.32

>  <r_i_glide_metal>  (15) 
-0

>  <r_i_glide_rewards>  (15) 
-0.902518

>  <r_i_glide_evdw>  (15) 
-26.1957

>  <r_i_glide_ecoul>  (15) 
-2.95657

>  <r_i_glide_erotb>  (15) 
0.282457

>  <r_i_glide_esite>  (15) 
-0.0333057

>  <r_i_glide_emodel>  (15) 
-31.6776

>  <r_i_glide_energy>  (15) 
-29.1523

>  <r_i_glide_einternal>  (15) 
3.22543

>  <r_i_glide_intrahb_reward>  (15) 
-0

>  <i_i_glide_confnum>  (15) 
1

>  <i_i_glide_posenum>  (15) 
2

>  <r_i_glide_eff_state_penalty>  (15) 
0

>  <ligand_id>  (15) 
4

>  <original_smiles>  (15) 
C=C1C(=O)OC2C1=CCC(C)C2(C)CC1C2CCCC13NC(=O)CC3CC2

>  <smiles>  (15) 
[H]C([H])=C1C(=O)OC2([H])C1=C([H])C([H])([H])C([H])(C([H])([H])[H])C2(C([H])([H])[H])C([H])([H])C1([H])C2([H])C([H])([H])C([H])([H])C([H])([H])C13N([H])C(=O)C([H])([H])C3([H])C([H])([H])C2([H])[H]

$$$$
5:0:0
     RDKit          3D

 53 54  0  0  1  0  0  0  0  0999 V2000
    3.2194    0.1325   -4.9119 C   0  0  0  0  0  0  0  0  0  0  0  0
    4.2261   -0.5598   -4.1891 O   0  0  0  0  0  0  0  0  0  0  0  0
    3.8047   -1.2938   -3.1197 C   0  0  0  0  0  0  0  0  0  0  0  0
    2.9051   -2.3667   -3.2598 C   0  0  0  0  0  0  0  0  0  0  0  0
    2.5316   -3.0937   -2.1149 C   0  0  0  0  0  0  0  0  0  0  0  0
    3.0470   -2.7747   -0.9165 N   0  0  0  0  0  0  0  0  0  0  0  0
    3.9100   -1.7542   -0.7198 C   0  0  0  0  0  0  0  0  0  0  0  0
    4.4005   -1.4735    0.6993 C   0  0  0  0  0  0  0  0  0  0  0  0
    3.2674   -1.1588    1.7261 C   0  0  2  0  0  0  0  0  0  0  0  0
    2.5335    0.1667    1.3649 C   0  0  0  0  0  0  0  0  0  0  0  0
    1.2310    0.5325    2.1391 C   0  0  2  0  0  0  0  0  0  0  0  0
    0.3545    1.2861    1.3011 N   0  0  0  0  0  0  0  0  0  0  0  0
    1.5014    1.3597    3.4319 C   0  0  0  0  0  0  0  0  0  0  0  0
    0.2412    1.7876    4.1894 C   0  0  0  0  0  0  0  0  0  0  0  0
   -0.7730    2.5522    3.5674 C   0  0  0  0  0  0  0  0  0  0  0  0
   -1.9541    2.8621    4.2659 C   0  0  0  0  0  0  0  0  0  0  0  0
   -2.0905    2.5158    5.6224 C   0  0  0  0  0  0  0  0  0  0  0  0
   -1.0527    1.8134    6.2748 C   0  0  0  0  0  0  0  0  0  0  0  0
    0.0962    1.4291    5.5524 C   0  0  0  0  0  0  0  0  0  0  0  0
    3.7613   -1.2163    3.1988 C   0  0  0  0  0  0  0  0  0  0  0  0
    4.7621   -0.0967    3.5537 C   0  0  0  0  0  0  0  0  0  0  0  0
    4.2996   -2.5890    3.6275 C   0  0  0  0  0  0  0  0  0  0  0  0
    4.3449   -1.0155   -1.8420 C   0  0  0  0  0  0  0  0  0  0  0  0
    3.6548    0.5525   -5.8194 H   0  0  0  0  0  0  0  0  0  0  0  0
    2.8359    0.9448   -4.2966 H   0  0  0  0  0  0  0  0  0  0  0  0
    2.3940   -0.5190   -5.1897 H   0  0  0  0  0  0  0  0  0  0  0  0
    2.4972   -2.6293   -4.2247 H   0  0  0  0  0  0  0  0  0  0  0  0
    1.8400   -3.9251   -2.1410 H   0  0  0  0  0  0  0  0  0  0  0  0
    4.9777   -2.3495    1.0072 H   0  0  0  0  0  0  0  0  0  0  0  0
    5.1060   -0.6403    0.6814 H   0  0  0  0  0  0  0  0  0  0  0  0
    2.5307   -1.9594    1.6396 H   0  0  0  0  0  0  0  0  0  0  0  0
    3.2317    1.0069    1.3632 H   0  0  0  0  0  0  0  0  0  0  0  0
    2.2442    0.0598    0.3241 H   0  0  0  0  0  0  0  0  0  0  0  0
    0.7233   -0.4059    2.3881 H   0  0  0  0  0  0  0  0  0  0  0  0
    0.7793    2.1927    1.0149 H   0  0  0  0  0  0  0  0  0  0  0  0
   -0.5121    1.4848    1.8040 H   0  0  0  0  0  0  0  0  0  0  0  0
    2.1278    0.8010    4.1232 H   0  0  0  0  0  0  0  0  0  0  0  0
    2.0751    2.2510    3.1692 H   0  0  0  0  0  0  0  0  0  0  0  0
   -0.6866    2.9208    2.5606 H   0  0  0  0  0  0  0  0  0  0  0  0
   -2.7424    3.3818    3.7406 H   0  0  0  0  0  0  0  0  0  0  0  0
   -2.9777    2.8082    6.1619 H   0  0  0  0  0  0  0  0  0  0  0  0
   -1.1227    1.5858    7.3280 H   0  0  0  0  0  0  0  0  0  0  0  0
    0.8874    0.8913    6.0565 H   0  0  0  0  0  0  0  0  0  0  0  0
    2.8764   -1.1031    3.8223 H   0  0  0  0  0  0  0  0  0  0  0  0
    5.6996   -0.1996    3.0061 H   0  0  0  0  0  0  0  0  0  0  0  0
    5.0011   -0.1150    4.6175 H   0  0  0  0  0  0  0  0  0  0  0  0
    4.3688    0.8967    3.3414 H   0  0  0  0  0  0  0  0  0  0  0  0
    5.2598   -2.8271    3.1689 H   0  0  0  0  0  0  0  0  0  0  0  0
    3.5879   -3.3789    3.3839 H   0  0  0  0  0  0  0  0  0  0  0  0
    4.4430   -2.6081    4.7092 H   0  0  0  0  0  0  0  0  0  0  0  0
    5.0526   -0.2172   -1.7344 H   0  0  0  0  0  0  0  0  0  0  0  0
    0.1074    0.7788    0.4319 H   0  0  0  0  0  0  0  0  0  0  0  0
    2.7537   -3.3084   -0.0961 H   0  0  0  0  0  0  0  0  0  0  0  0
  1  2  1  0
  1 24  1  0
  1 25  1  0
  1 26  1  0
  2  3  1  0
  3 23  2  0
  3  4  1  0
  4  5  2  0
  4 27  1  0
  5  6  1  0
  5 28  1  0
  6  7  2  0
  6 53  1  0
  7  8  1  0
  7 23  1  0
  8  9  1  0
  8 29  1  0
  8 30  1  0
  9 10  1  0
  9 20  1  0
  9 31  1  1
 10 11  1  0
 10 32  1  0
 10 33  1  0
 11 12  1  0
 11 13  1  0
 11 34  1  1
 12 35  1  0
 12 36  1  0
 12 52  1  0
 13 14  1  0
 13 37  1  0
 13 38  1  0
 14 19  1  0
 14 15  2  0
 15 16  1  0
 15 39  1  0
 16 17  2  0
 16 40  1  0
 17 18  1  0
 17 41  1  0
 18 19  2  0
 18 42  1  0
 19 43  1  0
 20 21  1  0
 20 22  1  0
 20 44  1  0
 21 45  1  0
 21 46  1  0
 21 47  1  0
 22 48  1  0
 22 49  1  0
 22 50  1  0
 23 51  1  0
M  CHG  2   6   1  12   1
M  END
>  <i_m_ct_stereo_status>  (16) 
1

>  <s_m_source_file>  (16) 
/var/tmp/pbs.5076255.sched01/tmpgqtxr8g4/0xtbcsf6k.sdf

>  <i_m_source_file_index>  (16) 
6

>  <i_lp_mmshare_version>  (16) 
48012

>  <i_f3d_flags>  (16) 
0

>  <s_epik_input>  (16) 
W0NIM11PYzFbY0hdW2NIXW5jKFtjSF0xKVtDSDJdW0NAQEhdKFtDSF0oW0NIM10pW0NIM10pW0NIMl1bQ0BIXShbTkgyXSlbQ0gyXWMyW2NIXVtjSF1bY0hdW2NIXVtjSF0y

>  <s_epik_cmdline>  (16) 
J2VwaWtfcHl0aG9uJywgJy1waHQnLCAnMi4wJywgJy1waCcsICc3LjAnLCAnLXRuJywgJzgnLCAnLW1hJywgJzIwMCcsICctaW1hZScsICc8aW5maWxlLm1hZT4nLCAnLW9tYWUnLCAnPG91dGZpbGUubWFlPic=

>  <r_epik_Ionization_Penalty>  (16) 
0.362307

>  <r_epik_Ionization_Penalty_Charging>  (16) 
0.362307

>  <r_epik_Ionization_Penalty_Neutral>  (16) 
1.20507e-13

>  <r_epik_State_Penalty>  (16) 
0.296285

>  <r_epik_Charging_Adjusted_Penalty>  (16) 
0.658592

>  <i_epik_Tot_Q>  (16) 
2

>  <i_epik_Tot_abs_Q>  (16) 
2

>  <s_lp_Force_Field>  (16) 
OPLS3e

>  <r_lp_Energy>  (16) 
41.6021

>  <b_lp_Chiralities_Consistent>  (16) 
1

>  <s_lp_Variant>  (16) 
5:0-1

>  <s_i_glide_gridfile>  (16) 
pfpi4k_grid

>  <i_i_glide_lignum>  (16) 
6

>  <i_i_glide_rotatable_bonds>  (16) 
8

>  <r_i_docking_score>  (16) 
-4.01333

>  <r_i_glide_ligand_efficiency>  (16) 
-0.174492

>  <r_i_glide_ligand_efficiency_sa>  (16) 
-0.496233

>  <r_i_glide_ligand_efficiency_ln>  (16) 
-0.970459

>  <r_i_glide_gscore>  (16) 
-4.01333

>  <r_i_glide_lipo>  (16) 
-0.440272

>  <r_i_glide_hbond>  (16) 
-0.389599

>  <r_i_glide_metal>  (16) 
-0

>  <r_i_glide_rewards>  (16) 
-1.26501

>  <r_i_glide_evdw>  (16) 
-25.9848

>  <r_i_glide_ecoul>  (16) 
-9.56346

>  <r_i_glide_erotb>  (16) 
0.939888

>  <r_i_glide_esite>  (16) 
-0.124571

>  <r_i_glide_emodel>  (16) 
-40.9985

>  <r_i_glide_energy>  (16) 
-35.5483

>  <r_i_glide_einternal>  (16) 
11.0129

>  <r_i_glide_intrahb_reward>  (16) 
-0

>  <i_i_glide_confnum>  (16) 
3

>  <i_i_glide_posenum>  (16) 
15

>  <r_i_glide_eff_state_penalty>  (16) 
0

>  <ligand_id>  (16) 
5

>  <original_smiles>  (16) 
COc1ccnc(CC(CC(N)Cc2ccccc2)C(C)C)c1

>  <smiles>  (16) 
[H]c1c([H])c([H])c(C([H])([H])C([H])(C([H])([H])C([H])(C([H])([H])c2c([H])c(OC([H])([H])[H])c([H])c([H])[n+]2[H])C([H])(C([H])([H])[H])C([H])([H])[H])[N+]([H])([H])[H])c([H])c1[H]

$$$$
5:0:1
     RDKit          3D

 53 54  0  0  1  0  0  0  0  0999 V2000
    3.8209   -1.8156   -3.8578 C   0  0  0  0  0  0  0  0  0  0  0  0
    4.4530   -1.2768   -2.6956 O   0  0  0  0  0  0  0  0  0  0  0  0
    4.1273   -1.8895   -1.5088 C   0  0  0  0  0  0  0  0  0  0  0  0
    3.9133   -3.2789   -1.3631 C   0  0  0  0  0  0  0  0  0  0  0  0
    3.5644   -3.8030   -0.1063 C   0  0  0  0  0  0  0  0  0  0  0  0
    3.4647   -2.9886    0.9518 N   0  0  0  0  0  0  0  0  0  0  0  0
    3.6721   -1.6545    0.8852 C   0  0  0  0  0  0  0  0  0  0  0  0
    3.5301   -0.8528    2.1641 C   0  0  0  0  0  0  0  0  0  0  0  0
    2.0818   -0.8616    2.7540 C   0  0  2  0  0  0  0  0  0  0  0  0
    1.6603    0.5472    3.2724 C   0  0  0  0  0  0  0  0  0  0  0  0
    0.3129    1.1020    2.7316 C   0  0  2  0  0  0  0  0  0  0  0  0
    0.3917    1.3273    1.3027 N   0  0  0  0  0  0  0  0  0  0  0  0
   -0.0763    2.4383    3.4406 C   0  0  0  0  0  0  0  0  0  0  0  0
   -0.4372    2.2986    4.9110 C   0  0  0  0  0  0  0  0  0  0  0  0
    0.5679    2.2683    5.9103 C   0  0  0  0  0  0  0  0  0  0  0  0
    0.2196    2.1080    7.2689 C   0  0  0  0  0  0  0  0  0  0  0  0
   -1.1383    2.0146    7.6514 C   0  0  0  0  0  0  0  0  0  0  0  0
   -2.1453    2.0748    6.6579 C   0  0  0  0  0  0  0  0  0  0  0  0
   -1.7931    2.2079    5.3012 C   0  0  0  0  0  0  0  0  0  0  0  0
    1.9111   -2.0012    3.8197 C   0  0  0  0  0  0  0  0  0  0  0  0
    0.4446   -2.2667    4.1869 C   0  0  0  0  0  0  0  0  0  0  0  0
    2.7550   -1.8420    5.1089 C   0  0  0  0  0  0  0  0  0  0  0  0
    4.0533   -1.0707   -0.3469 C   0  0  0  0  0  0  0  0  0  0  0  0
    4.2099   -1.3236   -4.7560 H   0  0  0  0  0  0  0  0  0  0  0  0
    2.7459   -1.6300   -3.8025 H   0  0  0  0  0  0  0  0  0  0  0  0
    3.9806   -2.8853   -4.0031 H   0  0  0  0  0  0  0  0  0  0  0  0
    4.0005   -3.9734   -2.1834 H   0  0  0  0  0  0  0  0  0  0  0  0
    3.3777   -4.8542    0.0581 H   0  0  0  0  0  0  0  0  0  0  0  0
    4.2763   -1.2085    2.8692 H   0  0  0  0  0  0  0  0  0  0  0  0
    3.8462    0.1670    1.9279 H   0  0  0  0  0  0  0  0  0  0  0  0
    1.4141   -1.0999    1.9254 H   0  0  0  0  0  0  0  0  0  0  0  0
    1.6124    0.4891    4.3535 H   0  0  0  0  0  0  0  0  0  0  0  0
    2.4268    1.2984    3.0834 H   0  0  0  0  0  0  0  0  0  0  0  0
   -0.4791    0.3792    2.9280 H   0  0  0  0  0  0  0  0  0  0  0  0
    1.0847    2.0360    1.0939 H   0  0  0  0  0  0  0  0  0  0  0  0
   -0.4956    1.6700    0.9427 H   0  0  0  0  0  0  0  0  0  0  0  0
    0.7307    3.1644    3.3431 H   0  0  0  0  0  0  0  0  0  0  0  0
   -0.9248    2.8866    2.9203 H   0  0  0  0  0  0  0  0  0  0  0  0
    1.6031    2.3601    5.6426 H   0  0  0  0  0  0  0  0  0  0  0  0
    0.9910    2.0696    8.0136 H   0  0  0  0  0  0  0  0  0  0  0  0
   -1.3971    1.9142    8.6813 H   0  0  0  0  0  0  0  0  0  0  0  0
   -3.1796    2.0275    6.9429 H   0  0  0  0  0  0  0  0  0  0  0  0
   -2.5669    2.2548    4.5547 H   0  0  0  0  0  0  0  0  0  0  0  0
    2.2404   -2.9229    3.3511 H   0  0  0  0  0  0  0  0  0  0  0  0
   -0.0178   -1.4230    4.6987 H   0  0  0  0  0  0  0  0  0  0  0  0
    0.3581   -3.1371    4.8494 H   0  0  0  0  0  0  0  0  0  0  0  0
   -0.1324   -2.4939    3.2946 H   0  0  0  0  0  0  0  0  0  0  0  0
    2.3993   -1.0262    5.7373 H   0  0  0  0  0  0  0  0  0  0  0  0
    3.8103   -1.6638    4.9140 H   0  0  0  0  0  0  0  0  0  0  0  0
    2.7064   -2.7488    5.7062 H   0  0  0  0  0  0  0  0  0  0  0  0
    4.2555   -0.0166   -0.4181 H   0  0  0  0  0  0  0  0  0  0  0  0
    0.5964    0.4837    0.7687 H   0  0  0  0  0  0  0  0  0  0  0  0
    3.2168   -3.3920    1.8586 H   0  0  0  0  0  0  0  0  0  0  0  0
  1  2  1  0
  1 24  1  0
  1 25  1  0
  1 26  1  0
  2  3  1  0
  3 23  2  0
  3  4  1  0
  4  5  2  0
  4 27  1  0
  5  6  1  0
  5 28  1  0
  6  7  2  0
  6 53  1  0
  7  8  1  0
  7 23  1  0
  8  9  1  0
  8 29  1  0
  8 30  1  0
  9 10  1  0
  9 20  1  0
  9 31  1  6
 10 11  1  0
 10 32  1  0
 10 33  1  0
 11 12  1  0
 11 13  1  0
 11 34  1  6
 12 35  1  0
 12 36  1  0
 12 52  1  0
 13 14  1  0
 13 37  1  0
 13 38  1  0
 14 19  1  0
 14 15  2  0
 15 16  1  0
 15 39  1  0
 16 17  2  0
 16 40  1  0
 17 18  1  0
 17 41  1  0
 18 19  2  0
 18 42  1  0
 19 43  1  0
 20 21  1  0
 20 22  1  0
 20 44  1  0
 21 45  1  0
 21 46  1  0
 21 47  1  0
 22 48  1  0
 22 49  1  0
 22 50  1  0
 23 51  1  0
M  CHG  2   6   1  12   1
M  END
>  <i_m_ct_stereo_status>  (17) 
1

>  <s_m_source_file>  (17) 
/var/tmp/pbs.5076255.sched01/tmpgqtxr8g4/0xtbcsf6k.sdf

>  <i_m_source_file_index>  (17) 
6

>  <i_lp_mmshare_version>  (17) 
48012

>  <i_f3d_flags>  (17) 
0

>  <s_epik_input>  (17) 
W0NIM11PYzFbY0hdW2NIXW5jKFtjSF0xKVtDSDJdW0NAQEhdKFtDSF0oW0NIM10pW0NIM10pW0NIMl1bQ0BIXShbTkgyXSlbQ0gyXWMyW2NIXVtjSF1bY0hdW2NIXVtjSF0y

>  <s_epik_cmdline>  (17) 
J2VwaWtfcHl0aG9uJywgJy1waHQnLCAnMi4wJywgJy1waCcsICc3LjAnLCAnLXRuJywgJzgnLCAnLW1hJywgJzIwMCcsICctaW1hZScsICc8aW5maWxlLm1hZT4nLCAnLW9tYWUnLCAnPG91dGZpbGUubWFlPic=

>  <r_epik_Ionization_Penalty>  (17) 
0.362307

>  <r_epik_Ionization_Penalty_Charging>  (17) 
0.362307

>  <r_epik_Ionization_Penalty_Neutral>  (17) 
1.20507e-13

>  <r_epik_State_Penalty>  (17) 
0.296285

>  <r_epik_Charging_Adjusted_Penalty>  (17) 
0.658592

>  <i_epik_Tot_Q>  (17) 
2

>  <i_epik_Tot_abs_Q>  (17) 
2

>  <s_lp_Force_Field>  (17) 
OPLS3e

>  <r_lp_Energy>  (17) 
41.6021

>  <b_lp_Chiralities_Consistent>  (17) 
1

>  <s_lp_Variant>  (17) 
5:0-1

>  <s_i_glide_gridfile>  (17) 
pfpi4k_grid

>  <i_i_glide_lignum>  (17) 
6

>  <i_i_glide_rotatable_bonds>  (17) 
8

>  <r_i_docking_score>  (17) 
-3.16324

>  <r_i_glide_ligand_efficiency>  (17) 
-0.137532

>  <r_i_glide_ligand_efficiency_sa>  (17) 
-0.391123

>  <r_i_glide_ligand_efficiency_ln>  (17) 
-0.7649

>  <r_i_glide_gscore>  (17) 
-3.16324

>  <r_i_glide_lipo>  (17) 
-0.155514

>  <r_i_glide_hbond>  (17) 
-0.188777

>  <r_i_glide_metal>  (17) 
-0

>  <r_i_glide_rewards>  (17) 
-1.26501

>  <r_i_glide_evdw>  (17) 
-21.9376

>  <r_i_glide_ecoul>  (17) 
-8.67535

>  <r_i_glide_erotb>  (17) 
0.939888

>  <r_i_glide_esite>  (17) 
-0.0956436

>  <r_i_glide_emodel>  (17) 
-34.6773

>  <r_i_glide_energy>  (17) 
-30.613

>  <r_i_glide_einternal>  (17) 
10.8677

>  <r_i_glide_intrahb_reward>  (17) 
-0

>  <i_i_glide_confnum>  (17) 
6

>  <i_i_glide_posenum>  (17) 
28

>  <r_i_glide_eff_state_penalty>  (17) 
0

>  <ligand_id>  (17) 
5

>  <original_smiles>  (17) 
COc1ccnc(CC(CC(N)Cc2ccccc2)C(C)C)c1

>  <smiles>  (17) 
[H]c1c([H])c([H])c(C([H])([H])C([H])(C([H])([H])C([H])(C([H])([H])c2c([H])c(OC([H])([H])[H])c([H])c([H])[n+]2[H])C([H])(C([H])([H])[H])C([H])([H])[H])[N+]([H])([H])[H])c([H])c1[H]

$$$$
5:0:2
     RDKit          3D

 53 54  0  0  1  0  0  0  0  0999 V2000
    4.6670   -3.2425   -3.1616 C   0  0  0  0  0  0  0  0  0  0  0  0
    4.5200   -2.1180   -2.2955 O   0  0  0  0  0  0  0  0  0  0  0  0
    4.1577   -2.3812   -0.9915 C   0  0  0  0  0  0  0  0  0  0  0  0
    4.0136   -3.6926   -0.4719 C   0  0  0  0  0  0  0  0  0  0  0  0
    3.6726   -3.8700    0.8745 C   0  0  0  0  0  0  0  0  0  0  0  0
    3.4784   -2.7999    1.6603 N   0  0  0  0  0  0  0  0  0  0  0  0
    3.5708   -1.5261    1.2292 C   0  0  0  0  0  0  0  0  0  0  0  0
    3.3044   -0.4066    2.2272 C   0  0  0  0  0  0  0  0  0  0  0  0
    1.8592   -0.4211    2.8262 C   0  0  2  0  0  0  0  0  0  0  0  0
    1.4443    1.0033    3.3037 C   0  0  0  0  0  0  0  0  0  0  0  0
    0.0890    1.5410    2.7667 C   0  0  2  0  0  0  0  0  0  0  0  0
    0.1726    1.7242    1.3109 N   0  0  0  0  0  0  0  0  0  0  0  0
   -0.3220    2.8937    3.4153 C   0  0  0  0  0  0  0  0  0  0  0  0
   -0.7146    2.7909    4.8841 C   0  0  0  0  0  0  0  0  0  0  0  0
   -2.0707    2.6851    5.2468 C   0  0  0  0  0  0  0  0  0  0  0  0
   -2.4340    2.6012    6.6052 C   0  0  0  0  0  0  0  0  0  0  0  0
   -1.4421    2.6063    7.6003 C   0  0  0  0  0  0  0  0  0  0  0  0
   -0.0886    2.7128    7.2420 C   0  0  0  0  0  0  0  0  0  0  0  0
    0.2746    2.8177    5.8887 C   0  0  0  0  0  0  0  0  0  0  0  0
    1.6485   -1.5262    3.9253 C   0  0  0  0  0  0  0  0  0  0  0  0
    0.2131   -1.5971    4.4774 C   0  0  0  0  0  0  0  0  0  0  0  0
    2.6636   -1.4911    5.0968 C   0  0  0  0  0  0  0  0  0  0  0  0
    3.9365   -1.2875   -0.1168 C   0  0  0  0  0  0  0  0  0  0  0  0
    4.9401   -2.9516   -4.1753 H   0  0  0  0  0  0  0  0  0  0  0  0
    3.7283   -3.7978   -3.2190 H   0  0  0  0  0  0  0  0  0  0  0  0
    5.4508   -3.9042   -2.7854 H   0  0  0  0  0  0  0  0  0  0  0  0
    4.1467   -4.5818   -1.0683 H   0  0  0  0  0  0  0  0  0  0  0  0
    3.5483   -4.8369    1.3343 H   0  0  0  0  0  0  0  0  0  0  0  0
    4.0706   -0.4280    2.9990 H   0  0  0  0  0  0  0  0  0  0  0  0
    3.4698    0.5399    1.6985 H   0  0  0  0  0  0  0  0  0  0  0  0
    1.1915   -0.6742    1.9985 H   0  0  0  0  0  0  0  0  0  0  0  0
    1.4176    0.9894    4.3941 H   0  0  0  0  0  0  0  0  0  0  0  0
    2.2110    1.7403    3.0653 H   0  0  0  0  0  0  0  0  0  0  0  0
   -0.7042    0.8178    2.9571 H   0  0  0  0  0  0  0  0  0  0  0  0
    0.8427    2.4463    1.0823 H   0  0  0  0  0  0  0  0  0  0  0  0
   -0.7167    2.0575    0.9637 H   0  0  0  0  0  0  0  0  0  0  0  0
    0.4910    3.6123    3.3072 H   0  0  0  0  0  0  0  0  0  0  0  0
   -1.1554    3.3282    2.8648 H   0  0  0  0  0  0  0  0  0  0  0  0
   -2.8334    2.6792    4.4877 H   0  0  0  0  0  0  0  0  0  0  0  0
   -3.4723    2.5325    6.8745 H   0  0  0  0  0  0  0  0  0  0  0  0
   -1.7216    2.5393    8.6373 H   0  0  0  0  0  0  0  0  0  0  0  0
    0.6725    2.7195    8.0022 H   0  0  0  0  0  0  0  0  0  0  0  0
    1.3120    2.9157    5.6291 H   0  0  0  0  0  0  0  0  0  0  0  0
    1.7608   -2.4935    3.4460 H   0  0  0  0  0  0  0  0  0  0  0  0
   -0.0639   -0.7046    5.0390 H   0  0  0  0  0  0  0  0  0  0  0  0
    0.1076   -2.4567    5.1455 H   0  0  0  0  0  0  0  0  0  0  0  0
   -0.5188   -1.7362    3.6820 H   0  0  0  0  0  0  0  0  0  0  0  0
    2.5140   -0.6129    5.7285 H   0  0  0  0  0  0  0  0  0  0  0  0
    3.7046   -1.4990    4.7730 H   0  0  0  0  0  0  0  0  0  0  0  0
    2.5376   -2.3731    5.7281 H   0  0  0  0  0  0  0  0  0  0  0  0
    4.0606   -0.2801   -0.4837 H   0  0  0  0  0  0  0  0  0  0  0  0
    0.3774    0.8699    0.8033 H   0  0  0  0  0  0  0  0  0  0  0  0
    3.2352   -2.9530    2.6409 H   0  0  0  0  0  0  0  0  0  0  0  0
  1  2  1  0
  1 24  1  0
  1 25  1  0
  1 26  1  0
  2  3  1  0
  3 23  2  0
  3  4  1  0
  4  5  2  0
  4 27  1  0
  5  6  1  0
  5 28  1  0
  6  7  2  0
  6 53  1  0
  7  8  1  0
  7 23  1  0
  8  9  1  0
  8 29  1  0
  8 30  1  0
  9 10  1  0
  9 20  1  0
  9 31  1  6
 10 11  1  0
 10 32  1  0
 10 33  1  0
 11 12  1  0
 11 13  1  0
 11 34  1  6
 12 35  1  0
 12 36  1  0
 12 52  1  0
 13 14  1  0
 13 37  1  0
 13 38  1  0
 14 19  1  0
 14 15  2  0
 15 16  1  0
 15 39  1  0
 16 17  2  0
 16 40  1  0
 17 18  1  0
 17 41  1  0
 18 19  2  0
 18 42  1  0
 19 43  1  0
 20 21  1  0
 20 22  1  0
 20 44  1  0
 21 45  1  0
 21 46  1  0
 21 47  1  0
 22 48  1  0
 22 49  1  0
 22 50  1  0
 23 51  1  0
M  CHG  2   6   1  12   1
M  END
>  <i_m_ct_stereo_status>  (18) 
1

>  <s_m_source_file>  (18) 
/var/tmp/pbs.5076255.sched01/tmpgqtxr8g4/0xtbcsf6k.sdf

>  <i_m_source_file_index>  (18) 
6

>  <i_lp_mmshare_version>  (18) 
48012

>  <i_f3d_flags>  (18) 
0

>  <s_epik_input>  (18) 
W0NIM11PYzFbY0hdW2NIXW5jKFtjSF0xKVtDSDJdW0NAQEhdKFtDSF0oW0NIM10pW0NIM10pW0NIMl1bQ0BIXShbTkgyXSlbQ0gyXWMyW2NIXVtjSF1bY0hdW2NIXVtjSF0y

>  <s_epik_cmdline>  (18) 
J2VwaWtfcHl0aG9uJywgJy1waHQnLCAnMi4wJywgJy1waCcsICc3LjAnLCAnLXRuJywgJzgnLCAnLW1hJywgJzIwMCcsICctaW1hZScsICc8aW5maWxlLm1hZT4nLCAnLW9tYWUnLCAnPG91dGZpbGUubWFlPic=

>  <r_epik_Ionization_Penalty>  (18) 
0.362307

>  <r_epik_Ionization_Penalty_Charging>  (18) 
0.362307

>  <r_epik_Ionization_Penalty_Neutral>  (18) 
1.20507e-13

>  <r_epik_State_Penalty>  (18) 
0.296285

>  <r_epik_Charging_Adjusted_Penalty>  (18) 
0.658592

>  <i_epik_Tot_Q>  (18) 
2

>  <i_epik_Tot_abs_Q>  (18) 
2

>  <s_lp_Force_Field>  (18) 
OPLS3e

>  <r_lp_Energy>  (18) 
41.6021

>  <b_lp_Chiralities_Consistent>  (18) 
1

>  <s_lp_Variant>  (18) 
5:0-1

>  <s_i_glide_gridfile>  (18) 
pfpi4k_grid

>  <i_i_glide_lignum>  (18) 
6

>  <i_i_glide_rotatable_bonds>  (18) 
8

>  <r_i_docking_score>  (18) 
-3.14212

>  <r_i_glide_ligand_efficiency>  (18) 
-0.136614

>  <r_i_glide_ligand_efficiency_sa>  (18) 
-0.388511

>  <r_i_glide_ligand_efficiency_ln>  (18) 
-0.759792

>  <r_i_glide_gscore>  (18) 
-3.14212

>  <r_i_glide_lipo>  (18) 
-0.326979

>  <r_i_glide_hbond>  (18) 
-0.108012

>  <r_i_glide_metal>  (18) 
-0

>  <r_i_glide_rewards>  (18) 
-1.26501

>  <r_i_glide_evdw>  (18) 
-20.6087

>  <r_i_glide_ecoul>  (18) 
-8.46173

>  <r_i_glide_erotb>  (18) 
0.939888

>  <r_i_glide_esite>  (18) 
-0.0823043

>  <r_i_glide_emodel>  (18) 
-33.9462

>  <r_i_glide_energy>  (18) 
-29.0705

>  <r_i_glide_einternal>  (18) 
9.11757

>  <r_i_glide_intrahb_reward>  (18) 
-0

>  <i_i_glide_confnum>  (18) 
6

>  <i_i_glide_posenum>  (18) 
18

>  <r_i_glide_eff_state_penalty>  (18) 
0

>  <ligand_id>  (18) 
5

>  <original_smiles>  (18) 
COc1ccnc(CC(CC(N)Cc2ccccc2)C(C)C)c1

>  <smiles>  (18) 
[H]c1c([H])c([H])c(C([H])([H])C([H])(C([H])([H])C([H])(C([H])([H])c2c([H])c(OC([H])([H])[H])c([H])c([H])[n+]2[H])C([H])(C([H])([H])[H])C([H])([H])[H])[N+]([H])([H])[H])c([H])c1[H]

$$$$
5:1:0
     RDKit          3D

 52 53  0  0  1  0  0  0  0  0999 V2000
    3.2256   -0.5119   -4.3178 C   0  0  0  0  0  0  0  0  0  0  0  0
    4.2109   -0.6563   -3.3028 O   0  0  0  0  0  0  0  0  0  0  0  0
    3.8840   -1.4718   -2.2412 C   0  0  0  0  0  0  0  0  0  0  0  0
    3.1556   -2.6801   -2.3664 C   0  0  0  0  0  0  0  0  0  0  0  0
    2.8443   -3.3933   -1.2001 C   0  0  0  0  0  0  0  0  0  0  0  0
    3.2209   -3.0176    0.0376 N   0  0  0  0  0  0  0  0  0  0  0  0
    3.9432   -1.8782    0.1500 C   0  0  0  0  0  0  0  0  0  0  0  0
    4.3217   -1.4757    1.5708 C   0  0  0  0  0  0  0  0  0  0  0  0
    3.1467   -0.9538    2.4488 C   0  0  2  0  0  0  0  0  0  0  0  0
    2.4234    0.2558    1.7706 C   0  0  0  0  0  0  0  0  0  0  0  0
    1.0612    0.6990    2.3553 C   0  0  2  0  0  0  0  0  0  0  0  0
    0.2458    1.3479    1.2919 N   0  0  0  0  0  0  0  0  0  0  0  0
    1.1895    1.6890    3.5485 C   0  0  0  0  0  0  0  0  0  0  0  0
   -0.1328    2.1113    4.1574 C   0  0  0  0  0  0  0  0  0  0  0  0
   -0.9476    3.0386    3.4786 C   0  0  0  0  0  0  0  0  0  0  0  0
   -2.1729    3.4468    4.0295 C   0  0  0  0  0  0  0  0  0  0  0  0
   -2.5719    2.9550    5.2880 C   0  0  0  0  0  0  0  0  0  0  0  0
   -1.7533    2.0418    5.9833 C   0  0  0  0  0  0  0  0  0  0  0  0
   -0.5393    1.6108    5.4119 C   0  0  0  0  0  0  0  0  0  0  0  0
    3.5954   -0.7038    3.9231 C   0  0  0  0  0  0  0  0  0  0  0  0
    4.5510    0.5029    4.0880 C   0  0  0  0  0  0  0  0  0  0  0  0
    4.1570   -1.9397    4.6414 C   0  0  0  0  0  0  0  0  0  0  0  0
    4.3165   -1.0969   -0.9605 C   0  0  0  0  0  0  0  0  0  0  0  0
    3.6349    0.0260   -5.1730 H   0  0  0  0  0  0  0  0  0  0  0  0
    2.4033    0.0723   -3.9059 H   0  0  0  0  0  0  0  0  0  0  0  0
    2.8266   -1.4526   -4.7114 H   0  0  0  0  0  0  0  0  0  0  0  0
    2.8235   -3.0919   -3.3098 H   0  0  0  0  0  0  0  0  0  0  0  0
    2.2609   -4.2965   -1.2481 H   0  0  0  0  0  0  0  0  0  0  0  0
    4.7688   -2.3592    2.0354 H   0  0  0  0  0  0  0  0  0  0  0  0
    5.1109   -0.7253    1.5174 H   0  0  0  0  0  0  0  0  0  0  0  0
    2.4168   -1.7653    2.4855 H   0  0  0  0  0  0  0  0  0  0  0  0
    3.0887    1.1163    1.6895 H   0  0  0  0  0  0  0  0  0  0  0  0
    2.2313   -0.0307    0.7360 H   0  0  0  0  0  0  0  0  0  0  0  0
    0.5114   -0.1898    2.6622 H   0  0  0  0  0  0  0  0  0  0  0  0
    0.6773    2.1969    0.9655 H   0  0  0  0  0  0  0  0  0  0  0  0
   -0.6495    1.5932    1.6799 H   0  0  0  0  0  0  0  0  0  0  0  0
    1.7568    1.2591    4.3765 H   0  0  0  0  0  0  0  0  0  0  0  0
    1.7493    2.5745    3.2310 H   0  0  0  0  0  0  0  0  0  0  0  0
   -0.6355    3.4484    2.5349 H   0  0  0  0  0  0  0  0  0  0  0  0
   -2.7857    4.1405    3.4709 H   0  0  0  0  0  0  0  0  0  0  0  0
   -3.5085    3.2814    5.7145 H   0  0  0  0  0  0  0  0  0  0  0  0
   -2.0523    1.6790    6.9549 H   0  0  0  0  0  0  0  0  0  0  0  0
    0.0910    0.9202    5.9558 H   0  0  0  0  0  0  0  0  0  0  0  0
    2.6867   -0.5305    4.5032 H   0  0  0  0  0  0  0  0  0  0  0  0
    5.5081    0.3437    3.5920 H   0  0  0  0  0  0  0  0  0  0  0  0
    4.7620    0.6950    5.1388 H   0  0  0  0  0  0  0  0  0  0  0  0
    4.1302    1.4251    3.6914 H   0  0  0  0  0  0  0  0  0  0  0  0
    5.1420   -2.2344    4.2812 H   0  0  0  0  0  0  0  0  0  0  0  0
    3.4682   -2.7785    4.5414 H   0  0  0  0  0  0  0  0  0  0  0  0
    4.2421   -1.7268    5.7083 H   0  0  0  0  0  0  0  0  0  0  0  0
    4.8905   -0.1903   -0.8368 H   0  0  0  0  0  0  0  0  0  0  0  0
    0.0794    0.7210    0.5043 H   0  0  0  0  0  0  0  0  0  0  0  0
  1  2  1  0
  1 24  1  0
  1 25  1  0
  1 26  1  0
  2  3  1  0
  3 23  2  0
  3  4  1  0
  4  5  2  0
  4 27  1  0
  5  6  1  0
  5 28  1  0
  6  7  2  0
  7  8  1  0
  7 23  1  0
  8  9  1  0
  8 29  1  0
  8 30  1  0
  9 10  1  0
  9 20  1  0
  9 31  1  1
 10 11  1  0
 10 32  1  0
 10 33  1  0
 11 12  1  0
 11 13  1  0
 11 34  1  1
 12 35  1  0
 12 36  1  0
 12 52  1  0
 13 14  1  0
 13 37  1  0
 13 38  1  0
 14 19  1  0
 14 15  2  0
 15 16  1  0
 15 39  1  0
 16 17  2  0
 16 40  1  0
 17 18  1  0
 17 41  1  0
 18 19  2  0
 18 42  1  0
 19 43  1  0
 20 21  1  0
 20 22  1  0
 20 44  1  0
 21 45  1  0
 21 46  1  0
 21 47  1  0
 22 48  1  0
 22 49  1  0
 22 50  1  0
 23 51  1  0
M  CHG  1  12   1
M  END
>  <i_m_ct_stereo_status>  (19) 
1

>  <s_m_source_file>  (19) 
/var/tmp/pbs.5076255.sched01/tmpgqtxr8g4/0xtbcsf6k.sdf

>  <i_m_source_file_index>  (19) 
7

>  <i_lp_mmshare_version>  (19) 
48012

>  <i_f3d_flags>  (19) 
0

>  <s_epik_input>  (19) 
W0NIM11PYzFbY0hdW2NIXW5jKFtjSF0xKVtDSDJdW0NAQEhdKFtDSF0oW0NIM10pW0NIM10pW0NIMl1bQ0BIXShbTkgyXSlbQ0gyXWMyW2NIXVtjSF1bY0hdW2NIXVtjSF0y

>  <s_epik_cmdline>  (19) 
J2VwaWtfcHl0aG9uJywgJy1waHQnLCAnMi4wJywgJy1waCcsICc3LjAnLCAnLXRuJywgJzgnLCAnLW1hJywgJzIwMCcsICctaW1hZScsICc8aW5maWxlLm1hZT4nLCAnLW9tYWUnLCAnPG91dGZpbGUubWFlPic=

>  <r_epik_Ionization_Penalty>  (19) 
0.465084

>  <r_epik_Ionization_Penalty_Charging>  (19) 
0.000689178

>  <r_epik_Ionization_Penalty_Neutral>  (19) 
0.464395

>  <r_epik_State_Penalty>  (19) 
0.554037

>  <r_epik_Charging_Adjusted_Penalty>  (19) 
0.554726

>  <i_epik_Tot_Q>  (19) 
1

>  <i_epik_Tot_abs_Q>  (19) 
1

>  <s_lp_Force_Field>  (19) 
OPLS3e

>  <r_lp_Energy>  (19) 
29.0295

>  <b_lp_Chiralities_Consistent>  (19) 
1

>  <s_lp_Variant>  (19) 
5:0-2

>  <s_i_glide_gridfile>  (19) 
pfpi4k_grid

>  <i_i_glide_lignum>  (19) 
7

>  <i_i_glide_rotatable_bonds>  (19) 
8

>  <r_i_docking_score>  (19) 
-3.45334

>  <r_i_glide_ligand_efficiency>  (19) 
-0.150145

>  <r_i_glide_ligand_efficiency_sa>  (19) 
-0.426993

>  <r_i_glide_ligand_efficiency_ln>  (19) 
-0.835048

>  <r_i_glide_gscore>  (19) 
-3.45334

>  <r_i_glide_lipo>  (19) 
-0.395912

>  <r_i_glide_hbond>  (19) 
-0.394076

>  <r_i_glide_metal>  (19) 
-0

>  <r_i_glide_rewards>  (19) 
-1.27188

>  <r_i_glide_evdw>  (19) 
-25.9934

>  <r_i_glide_ecoul>  (19) 
-6.31811

>  <r_i_glide_erotb>  (19) 
0.945209

>  <r_i_glide_esite>  (19) 
-0.089285

>  <r_i_glide_emodel>  (19) 
-36.8488

>  <r_i_glide_energy>  (19) 
-32.3115

>  <r_i_glide_einternal>  (19) 
9.31408

>  <r_i_glide_intrahb_reward>  (19) 
-0

>  <i_i_glide_confnum>  (19) 
3

>  <i_i_glide_posenum>  (19) 
40

>  <r_i_glide_eff_state_penalty>  (19) 
0

>  <ligand_id>  (19) 
5

>  <original_smiles>  (19) 
COc1ccnc(CC(CC(N)Cc2ccccc2)C(C)C)c1

>  <smiles>  (19) 
[H]c1nc(C([H])([H])C([H])(C([H])([H])C([H])(C([H])([H])c2c([H])c([H])c([H])c([H])c2[H])[N+]([H])([H])[H])C([H])(C([H])([H])[H])C([H])([H])[H])c([H])c(OC([H])([H])[H])c1[H]

$$$$
5:1:1
     RDKit          3D

 52 53  0  0  1  0  0  0  0  0999 V2000
   -1.7129   -0.8315    4.9152 C   0  0  0  0  0  0  0  0  0  0  0  0
   -0.7832   -0.6598    5.9730 O   0  0  0  0  0  0  0  0  0  0  0  0
    0.3611   -1.4222    5.9592 C   0  0  0  0  0  0  0  0  0  0  0  0
    1.3349   -1.1404    6.9336 C   0  0  0  0  0  0  0  0  0  0  0  0
    2.5182   -1.8916    6.9546 C   0  0  0  0  0  0  0  0  0  0  0  0
    2.7765   -2.8831    6.0813 N   0  0  0  0  0  0  0  0  0  0  0  0
    1.8475   -3.1639    5.1451 C   0  0  0  0  0  0  0  0  0  0  0  0
    2.1889   -4.3016    4.1942 C   0  0  0  0  0  0  0  0  0  0  0  0
    3.1604   -3.9368    3.0430 C   0  0  2  0  0  0  0  0  0  0  0  0
    2.6800   -2.6750    2.2637 C   0  0  0  0  0  0  0  0  0  0  0  0
    3.5749   -2.0845    1.1406 C   0  0  2  0  0  0  0  0  0  0  0  0
    3.0012   -0.7873    0.7319 N   0  0  0  0  0  0  0  0  0  0  0  0
    3.7457   -3.0181   -0.1013 C   0  0  0  0  0  0  0  0  0  0  0  0
    3.6824   -2.4066   -1.4813 C   0  0  0  0  0  0  0  0  0  0  0  0
    2.8831   -3.0181   -2.4744 C   0  0  0  0  0  0  0  0  0  0  0  0
    2.7685   -2.4459   -3.7529 C   0  0  0  0  0  0  0  0  0  0  0  0
    3.4301   -1.2368   -4.0269 C   0  0  0  0  0  0  0  0  0  0  0  0
    4.2210   -0.6159   -3.0247 C   0  0  0  0  0  0  0  0  0  0  0  0
    4.3942   -1.2320   -1.7794 C   0  0  0  0  0  0  0  0  0  0  0  0
    3.4624   -5.1768    2.1455 C   0  0  0  0  0  0  0  0  0  0  0  0
    2.2252   -5.7348    1.3920 C   0  0  0  0  0  0  0  0  0  0  0  0
    4.1697   -6.3190    2.8859 C   0  0  0  0  0  0  0  0  0  0  0  0
    0.6279   -2.4666    5.0405 C   0  0  0  0  0  0  0  0  0  0  0  0
   -2.5572   -0.1531    5.0494 H   0  0  0  0  0  0  0  0  0  0  0  0
   -2.1036   -1.8473    4.9138 H   0  0  0  0  0  0  0  0  0  0  0  0
   -1.2583   -0.6117    3.9481 H   0  0  0  0  0  0  0  0  0  0  0  0
    1.1851   -0.3538    7.6537 H   0  0  0  0  0  0  0  0  0  0  0  0
    3.2864   -1.7023    7.6884 H   0  0  0  0  0  0  0  0  0  0  0  0
    2.6124   -5.1141    4.7856 H   0  0  0  0  0  0  0  0  0  0  0  0
    1.2521   -4.6794    3.7888 H   0  0  0  0  0  0  0  0  0  0  0  0
    4.1020   -3.6405    3.5112 H   0  0  0  0  0  0  0  0  0  0  0  0
    1.6687   -2.8355    1.8840 H   0  0  0  0  0  0  0  0  0  0  0  0
    2.5675   -1.8711    2.9939 H   0  0  0  0  0  0  0  0  0  0  0  0
    4.5532   -1.8461    1.5530 H   0  0  0  0  0  0  0  0  0  0  0  0
    2.0580   -0.9105    0.3537 H   0  0  0  0  0  0  0  0  0  0  0  0
    3.5788   -0.4023   -0.0087 H   0  0  0  0  0  0  0  0  0  0  0  0
    4.7224   -3.5095   -0.0624 H   0  0  0  0  0  0  0  0  0  0  0  0
    2.9467   -3.7596   -0.1192 H   0  0  0  0  0  0  0  0  0  0  0  0
    2.3106   -3.8961   -2.2380 H   0  0  0  0  0  0  0  0  0  0  0  0
    2.1365   -2.9378   -4.4761 H   0  0  0  0  0  0  0  0  0  0  0  0
    3.3006   -0.7606   -4.9895 H   0  0  0  0  0  0  0  0  0  0  0  0
    4.6592    0.3515   -3.1986 H   0  0  0  0  0  0  0  0  0  0  0  0
    5.0499   -0.7756   -1.0563 H   0  0  0  0  0  0  0  0  0  0  0  0
    4.2315   -4.8712    1.4326 H   0  0  0  0  0  0  0  0  0  0  0  0
    1.5244   -6.2574    2.0424 H   0  0  0  0  0  0  0  0  0  0  0  0
    2.5447   -6.4656    0.6562 H   0  0  0  0  0  0  0  0  0  0  0  0
    1.6843   -4.9778    0.8322 H   0  0  0  0  0  0  0  0  0  0  0  0
    3.5201   -6.8739    3.5632 H   0  0  0  0  0  0  0  0  0  0  0  0
    5.0307   -5.9467    3.4400 H   0  0  0  0  0  0  0  0  0  0  0  0
    4.5584   -7.0207    2.1496 H   0  0  0  0  0  0  0  0  0  0  0  0
   -0.0704   -2.7404    4.2661 H   0  0  0  0  0  0  0  0  0  0  0  0
    2.9407   -0.1215    1.4868 H   0  0  0  0  0  0  0  0  0  0  0  0
  1  2  1  0
  1 24  1  0
  1 25  1  0
  1 26  1  0
  2  3  1  0
  3 23  2  0
  3  4  1  0
  4  5  2  0
  4 27  1  0
  5  6  1  0
  5 28  1  0
  6  7  2  0
  7  8  1  0
  7 23  1  0
  8  9  1  0
  8 29  1  0
  8 30  1  0
  9 10  1  0
  9 20  1  0
  9 31  1  1
 10 11  1  0
 10 32  1  0
 10 33  1  0
 11 12  1  0
 11 13  1  0
 11 34  1  1
 12 35  1  0
 12 36  1  0
 12 52  1  0
 13 14  1  0
 13 37  1  0
 13 38  1  0
 14 19  1  0
 14 15  2  0
 15 16  1  0
 15 39  1  0
 16 17  2  0
 16 40  1  0
 17 18  1  0
 17 41  1  0
 18 19  2  0
 18 42  1  0
 19 43  1  0
 20 21  1  0
 20 22  1  0
 20 44  1  0
 21 45  1  0
 21 46  1  0
 21 47  1  0
 22 48  1  0
 22 49  1  0
 22 50  1  0
 23 51  1  0
M  CHG  1  12   1
M  END
>  <i_m_ct_stereo_status>  (20) 
1

>  <s_m_source_file>  (20) 
/var/tmp/pbs.5076255.sched01/tmpgqtxr8g4/0xtbcsf6k.sdf

>  <i_m_source_file_index>  (20) 
7

>  <i_lp_mmshare_version>  (20) 
48012

>  <i_f3d_flags>  (20) 
0

>  <s_epik_input>  (20) 
W0NIM11PYzFbY0hdW2NIXW5jKFtjSF0xKVtDSDJdW0NAQEhdKFtDSF0oW0NIM10pW0NIM10pW0NIMl1bQ0BIXShbTkgyXSlbQ0gyXWMyW2NIXVtjSF1bY0hdW2NIXVtjSF0y

>  <s_epik_cmdline>  (20) 
J2VwaWtfcHl0aG9uJywgJy1waHQnLCAnMi4wJywgJy1waCcsICc3LjAnLCAnLXRuJywgJzgnLCAnLW1hJywgJzIwMCcsICctaW1hZScsICc8aW5maWxlLm1hZT4nLCAnLW9tYWUnLCAnPG91dGZpbGUubWFlPic=

>  <r_epik_Ionization_Penalty>  (20) 
0.465084

>  <r_epik_Ionization_Penalty_Charging>  (20) 
0.000689178

>  <r_epik_Ionization_Penalty_Neutral>  (20) 
0.464395

>  <r_epik_State_Penalty>  (20) 
0.554037

>  <r_epik_Charging_Adjusted_Penalty>  (20) 
0.554726

>  <i_epik_Tot_Q>  (20) 
1

>  <i_epik_Tot_abs_Q>  (20) 
1

>  <s_lp_Force_Field>  (20) 
OPLS3e

>  <r_lp_Energy>  (20) 
29.0295

>  <b_lp_Chiralities_Consistent>  (20) 
1

>  <s_lp_Variant>  (20) 
5:0-2

>  <s_i_glide_gridfile>  (20) 
pfpi4k_grid

>  <i_i_glide_lignum>  (20) 
7

>  <i_i_glide_rotatable_bonds>  (20) 
8

>  <r_i_docking_score>  (20) 
-3.26766

>  <r_i_glide_ligand_efficiency>  (20) 
-0.142072

>  <r_i_glide_ligand_efficiency_sa>  (20) 
-0.404034

>  <r_i_glide_ligand_efficiency_ln>  (20) 
-0.79015

>  <r_i_glide_gscore>  (20) 
-3.26766

>  <r_i_glide_lipo>  (20) 
-0.458847

>  <r_i_glide_hbond>  (20) 
-0.2

>  <r_i_glide_metal>  (20) 
-0

>  <r_i_glide_rewards>  (20) 
-1.27188

>  <r_i_glide_evdw>  (20) 
-21.6297

>  <r_i_glide_ecoul>  (20) 
-7.5322

>  <r_i_glide_erotb>  (20) 
0.945209

>  <r_i_glide_esite>  (20) 
-0.0708234

>  <r_i_glide_emodel>  (20) 
-32.8529

>  <r_i_glide_energy>  (20) 
-29.1619

>  <r_i_glide_einternal>  (20) 
9.12294

>  <r_i_glide_intrahb_reward>  (20) 
-0

>  <i_i_glide_confnum>  (20) 
2

>  <i_i_glide_posenum>  (20) 
21

>  <r_i_glide_eff_state_penalty>  (20) 
0

>  <ligand_id>  (20) 
5

>  <original_smiles>  (20) 
COc1ccnc(CC(CC(N)Cc2ccccc2)C(C)C)c1

>  <smiles>  (20) 
[H]c1nc(C([H])([H])C([H])(C([H])([H])C([H])(C([H])([H])c2c([H])c([H])c([H])c([H])c2[H])[N+]([H])([H])[H])C([H])(C([H])([H])[H])C([H])([H])[H])c([H])c(OC([H])([H])[H])c1[H]

$$$$
5:1:2
     RDKit          3D

 52 53  0  0  1  0  0  0  0  0999 V2000
   -1.9422    1.6398    6.5599 C   0  0  0  0  0  0  0  0  0  0  0  0
   -1.7874    0.4876    5.7378 O   0  0  0  0  0  0  0  0  0  0  0  0
   -0.6619   -0.2870    5.9403 C   0  0  0  0  0  0  0  0  0  0  0  0
    0.2606   -0.0291    6.9816 C   0  0  0  0  0  0  0  0  0  0  0  0
    1.3782   -0.8623    7.1366 C   0  0  0  0  0  0  0  0  0  0  0  0
    1.6234   -1.9175    6.3319 N   0  0  0  0  0  0  0  0  0  0  0  0
    0.7522   -2.1593    5.3318 C   0  0  0  0  0  0  0  0  0  0  0  0
    1.0967   -3.3679    4.4796 C   0  0  0  0  0  0  0  0  0  0  0  0
    2.3813   -3.2089    3.6219 C   0  0  2  0  0  0  0  0  0  0  0  0
    2.1811   -2.1335    2.4964 C   0  0  0  0  0  0  0  0  0  0  0  0
    3.3381   -1.8513    1.5012 C   0  0  2  0  0  0  0  0  0  0  0  0
    2.9951   -0.6664    0.6482 N   0  0  0  0  0  0  0  0  0  0  0  0
    3.6660   -3.0420    0.5373 C   0  0  0  0  0  0  0  0  0  0  0  0
    4.9995   -2.8474   -0.1742 C   0  0  0  0  0  0  0  0  0  0  0  0
    5.0371   -3.1166   -1.5481 C   0  0  0  0  0  0  0  0  0  0  0  0
    6.2580   -3.0531   -2.2248 C   0  0  0  0  0  0  0  0  0  0  0  0
    7.4432   -2.7526   -1.5230 C   0  0  0  0  0  0  0  0  0  0  0  0
    7.4205   -2.5798   -0.1234 C   0  0  0  0  0  0  0  0  0  0  0  0
    6.1955   -2.6475    0.5646 C   0  0  0  0  0  0  0  0  0  0  0  0
    2.9091   -4.5926    3.1255 C   0  0  0  0  0  0  0  0  0  0  0  0
    1.9891   -5.2576    2.0599 C   0  0  0  0  0  0  0  0  0  0  0  0
    3.2431   -5.6196    4.2214 C   0  0  0  0  0  0  0  0  0  0  0  0
   -0.4036   -1.3880    5.0970 C   0  0  0  0  0  0  0  0  0  0  0  0
   -2.8530    2.1968    6.3430 H   0  0  0  0  0  0  0  0  0  0  0  0
   -1.1094    2.3232    6.4309 H   0  0  0  0  0  0  0  0  0  0  0  0
   -1.9954    1.3822    7.6117 H   0  0  0  0  0  0  0  0  0  0  0  0
    0.1826    0.7837    7.6915 H   0  0  0  0  0  0  0  0  0  0  0  0
    2.0779   -0.6546    7.9316 H   0  0  0  0  0  0  0  0  0  0  0  0
    1.2083   -4.2018    5.1735 H   0  0  0  0  0  0  0  0  0  0  0  0
    0.2518   -3.6304    3.8445 H   0  0  0  0  0  0  0  0  0  0  0  0
    3.1683   -2.8330    4.2809 H   0  0  0  0  0  0  0  0  0  0  0  0
    1.2858   -2.3511    1.9257 H   0  0  0  0  0  0  0  0  0  0  0  0
    1.9490   -1.1934    3.0070 H   0  0  0  0  0  0  0  0  0  0  0  0
    4.2005   -1.5570    2.1047 H   0  0  0  0  0  0  0  0  0  0  0  0
    2.1493   -0.8752    0.1056 H   0  0  0  0  0  0  0  0  0  0  0  0
    3.7776   -0.5101    0.0114 H   0  0  0  0  0  0  0  0  0  0  0  0
    3.9352   -3.9780    0.9953 H   0  0  0  0  0  0  0  0  0  0  0  0
    2.8371   -3.1368   -0.2047 H   0  0  0  0  0  0  0  0  0  0  0  0
    4.1052   -3.3859   -2.0558 H   0  0  0  0  0  0  0  0  0  0  0  0
    6.2553   -3.2077   -3.2986 H   0  0  0  0  0  0  0  0  0  0  0  0
    8.3748   -2.6741   -2.0635 H   0  0  0  0  0  0  0  0  0  0  0  0
    8.3373   -2.3582    0.4208 H   0  0  0  0  0  0  0  0  0  0  0  0
    6.1924   -2.5547    1.6573 H   0  0  0  0  0  0  0  0  0  0  0  0
    3.9068   -4.3947    2.7701 H   0  0  0  0  0  0  0  0  0  0  0  0
    1.0026   -5.5384    2.4320 H   0  0  0  0  0  0  0  0  0  0  0  0
    2.4574   -6.1364    1.6129 H   0  0  0  0  0  0  0  0  0  0  0  0
    1.8010   -4.6096    1.2151 H   0  0  0  0  0  0  0  0  0  0  0  0
    2.3560   -6.0537    4.7123 H   0  0  0  0  0  0  0  0  0  0  0  0
    3.9109   -5.1529    4.9555 H   0  0  0  0  0  0  0  0  0  0  0  0
    3.8086   -6.4352    3.7489 H   0  0  0  0  0  0  0  0  0  0  0  0
   -1.0712   -1.6434    4.2868 H   0  0  0  0  0  0  0  0  0  0  0  0
    2.8335    0.1563    1.2205 H   0  0  0  0  0  0  0  0  0  0  0  0
  1  2  1  0
  1 24  1  0
  1 25  1  0
  1 26  1  0
  2  3  1  0
  3 23  2  0
  3  4  1  0
  4  5  2  0
  4 27  1  0
  5  6  1  0
  5 28  1  0
  6  7  2  0
  7  8  1  0
  7 23  1  0
  8  9  1  0
  8 29  1  0
  8 30  1  0
  9 10  1  0
  9 20  1  0
  9 31  1  1
 10 11  1  0
 10 32  1  0
 10 33  1  0
 11 12  1  0
 11 13  1  0
 11 34  1  1
 12 35  1  0
 12 36  1  0
 12 52  1  0
 13 14  1  0
 13 37  1  0
 13 38  1  0
 14 19  1  0
 14 15  2  0
 15 16  1  0
 15 39  1  0
 16 17  2  0
 16 40  1  0
 17 18  1  0
 17 41  1  0
 18 19  2  0
 18 42  1  0
 19 43  1  0
 20 21  1  0
 20 22  1  0
 20 44  1  0
 21 45  1  0
 21 46  1  0
 21 47  1  0
 22 48  1  0
 22 49  1  0
 22 50  1  0
 23 51  1  0
M  CHG  1  12   1
M  END
>  <i_m_ct_stereo_status>  (21) 
1

>  <s_m_source_file>  (21) 
/var/tmp/pbs.5076255.sched01/tmpgqtxr8g4/0xtbcsf6k.sdf

>  <i_m_source_file_index>  (21) 
7

>  <i_lp_mmshare_version>  (21) 
48012

>  <i_f3d_flags>  (21) 
0

>  <s_epik_input>  (21) 
W0NIM11PYzFbY0hdW2NIXW5jKFtjSF0xKVtDSDJdW0NAQEhdKFtDSF0oW0NIM10pW0NIM10pW0NIMl1bQ0BIXShbTkgyXSlbQ0gyXWMyW2NIXVtjSF1bY0hdW2NIXVtjSF0y

>  <s_epik_cmdline>  (21) 
J2VwaWtfcHl0aG9uJywgJy1waHQnLCAnMi4wJywgJy1waCcsICc3LjAnLCAnLXRuJywgJzgnLCAnLW1hJywgJzIwMCcsICctaW1hZScsICc8aW5maWxlLm1hZT4nLCAnLW9tYWUnLCAnPG91dGZpbGUubWFlPic=

>  <r_epik_Ionization_Penalty>  (21) 
0.465084

>  <r_epik_Ionization_Penalty_Charging>  (21) 
0.000689178

>  <r_epik_Ionization_Penalty_Neutral>  (21) 
0.464395

>  <r_epik_State_Penalty>  (21) 
0.554037

>  <r_epik_Charging_Adjusted_Penalty>  (21) 
0.554726

>  <i_epik_Tot_Q>  (21) 
1

>  <i_epik_Tot_abs_Q>  (21) 
1

>  <s_lp_Force_Field>  (21) 
OPLS3e

>  <r_lp_Energy>  (21) 
29.0295

>  <b_lp_Chiralities_Consistent>  (21) 
1

>  <s_lp_Variant>  (21) 
5:0-2

>  <s_i_glide_gridfile>  (21) 
pfpi4k_grid

>  <i_i_glide_lignum>  (21) 
7

>  <i_i_glide_rotatable_bonds>  (21) 
8

>  <r_i_docking_score>  (21) 
-3.09341

>  <r_i_glide_ligand_efficiency>  (21) 
-0.134496

>  <r_i_glide_ligand_efficiency_sa>  (21) 
-0.382489

>  <r_i_glide_ligand_efficiency_ln>  (21) 
-0.748015

>  <r_i_glide_gscore>  (21) 
-3.09341

>  <r_i_glide_lipo>  (21) 
-0.311311

>  <r_i_glide_hbond>  (21) 
-0.2

>  <r_i_glide_metal>  (21) 
-0

>  <r_i_glide_rewards>  (21) 
-1.27188

>  <r_i_glide_evdw>  (21) 
-19.8227

>  <r_i_glide_ecoul>  (21) 
-7.93579

>  <r_i_glide_erotb>  (21) 
0.945209

>  <r_i_glide_esite>  (21) 
-0.0739243

>  <r_i_glide_emodel>  (21) 
-30.0312

>  <r_i_glide_energy>  (21) 
-27.7585

>  <r_i_glide_einternal>  (21) 
6.63653

>  <r_i_glide_intrahb_reward>  (21) 
-0

>  <i_i_glide_confnum>  (21) 
2

>  <i_i_glide_posenum>  (21) 
27

>  <r_i_glide_eff_state_penalty>  (21) 
0

>  <ligand_id>  (21) 
5

>  <original_smiles>  (21) 
COc1ccnc(CC(CC(N)Cc2ccccc2)C(C)C)c1

>  <smiles>  (21) 
[H]c1nc(C([H])([H])C([H])(C([H])([H])C([H])(C([H])([H])c2c([H])c([H])c([H])c([H])c2[H])[N+]([H])([H])[H])C([H])(C([H])([H])[H])C([H])([H])[H])c([H])c(OC([H])([H])[H])c1[H]

$$$$
6:0:0
     RDKit          3D

 50 54  0  0  1  0  0  0  0  0999 V2000
    2.1170   -3.0516   -3.5181 C   0  0  0  0  0  0  0  0  0  0  0  0
    3.2755   -2.1620   -3.0457 C   0  0  0  0  0  0  0  0  0  0  0  0
    4.1390   -1.8209   -4.2783 C   0  0  0  0  0  0  0  0  0  0  0  0
    2.7384   -0.9163   -2.6998 O   0  0  0  0  0  0  0  0  0  0  0  0
    4.0687   -2.7425   -1.8299 C   0  0  1  0  0  0  0  0  0  0  0  0
    5.0790   -3.8500   -2.1949 C   0  0  0  0  0  0  0  0  0  0  0  0
    6.1017   -3.1613   -1.3328 C   0  0  2  0  0  0  0  0  0  0  0  0
    6.3441   -3.5051    0.1201 C   0  0  1  0  0  0  0  0  0  0  0  0
    6.6466   -2.0950    0.6323 C   0  0  0  0  0  0  0  0  0  0  0  0
    5.3653   -1.3719    0.1757 C   0  0  1  0  0  0  0  0  0  0  0  0
    5.2560   -1.9007   -1.2875 C   0  0  2  0  0  0  0  0  0  0  0  0
    4.1668   -1.7890    1.1223 C   0  0  2  0  0  0  0  0  0  0  0  0
    3.0552   -0.7236    0.9442 C   0  0  0  0  0  0  0  0  0  0  0  0
    4.5570   -1.7233    2.6414 C   0  0  0  0  0  0  0  0  0  0  0  0
    5.1814   -2.9988    3.2875 C   0  0  1  0  0  0  0  0  0  0  0  0
    4.4067   -3.4115    4.3912 O   0  0  0  0  0  0  0  0  0  0  0  0
    5.4365   -4.2433    2.3783 C   0  0  0  0  0  0  0  0  0  0  0  0
    5.0785   -4.0796    0.8754 C   0  0  1  0  0  0  0  0  0  0  0  0
    3.7415   -3.2497    0.7124 C   0  0  1  0  0  0  0  0  0  0  0  0
    2.6170   -3.9075    1.5928 C   0  0  0  0  0  0  0  0  0  0  0  0
    2.2331   -5.0555    1.2620 O   0  0  0  0  0  0  0  0  0  0  0  0
    2.1489   -3.2990    2.5781 O   0  0  0  0  0  0  0  0  0  0  0  0
    3.1332   -3.2435   -0.7286 C   0  0  0  0  0  0  0  0  0  0  0  0
    2.4574   -4.0032   -3.9208 H   0  0  0  0  0  0  0  0  0  0  0  0
    1.5364   -2.5503   -4.2938 H   0  0  0  0  0  0  0  0  0  0  0  0
    1.4075   -3.2669   -2.7194 H   0  0  0  0  0  0  0  0  0  0  0  0
    4.5392   -2.7277   -4.7115 H   0  0  0  0  0  0  0  0  0  0  0  0
    4.9716   -1.1577   -4.0458 H   0  0  0  0  0  0  0  0  0  0  0  0
    3.5481   -1.3186   -5.0526 H   0  0  0  0  0  0  0  0  0  0  0  0
    2.0654   -1.0500   -2.0355 H   0  0  0  0  0  0  0  0  0  0  0  0
    4.8149   -4.8518   -1.8481 H   0  0  0  0  0  0  0  0  0  0  0  0
    5.4261   -3.8878   -3.2243 H   0  0  0  0  0  0  0  0  0  0  0  0
    7.0175   -2.9911   -1.9021 H   0  0  0  0  0  0  0  0  0  0  0  0
    7.2093   -4.1682    0.2206 H   0  0  0  0  0  0  0  0  0  0  0  0
    6.9033   -2.0255    1.6822 H   0  0  0  0  0  0  0  0  0  0  0  0
    7.5125   -1.6866    0.1030 H   0  0  0  0  0  0  0  0  0  0  0  0
    5.5236   -0.2924    0.2003 H   0  0  0  0  0  0  0  0  0  0  0  0
    5.6247   -1.1834   -2.0177 H   0  0  0  0  0  0  0  0  0  0  0  0
    2.1448   -0.9870    1.4879 H   0  0  0  0  0  0  0  0  0  0  0  0
    2.7851   -0.5981   -0.1016 H   0  0  0  0  0  0  0  0  0  0  0  0
    3.3790    0.2583    1.3026 H   0  0  0  0  0  0  0  0  0  0  0  0
    5.2443   -0.8886    2.7846 H   0  0  0  0  0  0  0  0  0  0  0  0
    3.6869   -1.4252    3.2299 H   0  0  0  0  0  0  0  0  0  0  0  0
    6.1251   -2.6890    3.7206 H   0  0  0  0  0  0  0  0  0  0  0  0
    3.5407   -3.6052    4.0410 H   0  0  0  0  0  0  0  0  0  0  0  0
    6.4918   -4.5214    2.4615 H   0  0  0  0  0  0  0  0  0  0  0  0
    4.9027   -5.1131    2.7688 H   0  0  0  0  0  0  0  0  0  0  0  0
    4.9091   -5.0800    0.4745 H   0  0  0  0  0  0  0  0  0  0  0  0
    2.2153   -2.6608   -0.7076 H   0  0  0  0  0  0  0  0  0  0  0  0
    2.8102   -4.2522   -0.9937 H   0  0  0  0  0  0  0  0  0  0  0  0
  1  2  1  0
  1 24  1  0
  1 25  1  0
  1 26  1  0
  2  3  1  0
  2  4  1  0
  5  2  1  6
  3 27  1  0
  3 28  1  0
  3 29  1  0
  4 30  1  0
  5 11  1  0
  5 23  1  0
  5  6  1  0
  6  7  1  0
  6 31  1  0
  6 32  1  0
  7 11  1  0
  7  8  1  0
  7 33  1  6
  8 18  1  0
  8  9  1  0
  8 34  1  6
  9 10  1  0
  9 35  1  0
  9 36  1  0
 10 11  1  0
 10 12  1  0
 10 37  1  6
 11 38  1  6
 12 19  1  0
 12 13  1  1
 12 14  1  0
 13 39  1  0
 13 40  1  0
 13 41  1  0
 14 15  1  0
 14 42  1  0
 14 43  1  0
 15 16  1  0
 15 17  1  0
 15 44  1  1
 16 45  1  0
 17 18  1  0
 17 46  1  0
 17 47  1  0
 18 19  1  0
 18 48  1  6
 19 20  1  1
 19 23  1  0
 20 21  2  0
 20 22  1  0
 23 49  1  0
 23 50  1  0
M  CHG  1  22  -1
M  END
>  <i_m_ct_stereo_status>  (22) 
1

>  <s_m_source_file>  (22) 
/var/tmp/pbs.5076255.sched01/tmpgqtxr8g4/0xtbcsf6k.sdf

>  <i_m_source_file_index>  (22) 
8

>  <i_lp_mmshare_version>  (22) 
48012

>  <i_f3d_flags>  (22) 
0

>  <s_epik_input>  (22) 
W0NIM11DKFtDSDNdKShbT0hdKVtDQF0xMltDQEBIXTNbQ0BIXShbQ0gyXTEpW0NAQEhdNFtDQEBIXTVbQ0BAXShbQ0gyXTIpKEMoPU8pW09IXSlbQ0BdKFtDSDNdKShbQ0BIXTNbQ0gyXTQpW0NIMl1bQ0BASF0oW09IXSlbQ0gyXTU=

>  <s_epik_cmdline>  (22) 
J2VwaWtfcHl0aG9uJywgJy1waHQnLCAnMi4wJywgJy1waCcsICc3LjAnLCAnLXRuJywgJzgnLCAnLW1hJywgJzIwMCcsICctaW1hZScsICc8aW5maWxlLm1hZT4nLCAnLW9tYWUnLCAnPG91dGZpbGUubWFlPic=

>  <r_epik_Ionization_Penalty>  (22) 
0.00681427

>  <r_epik_Ionization_Penalty_Charging>  (22) 
0.00680989

>  <r_epik_Ionization_Penalty_Neutral>  (22) 
4.37342e-06

>  <r_epik_State_Penalty>  (22) 
0.00505646

>  <r_epik_Charging_Adjusted_Penalty>  (22) 
0.0118664

>  <i_epik_Tot_Q>  (22) 
-1

>  <i_epik_Tot_abs_Q>  (22) 
1

>  <s_lp_Force_Field>  (22) 
OPLS3e

>  <r_lp_Energy>  (22) 
78.5816

>  <b_lp_Chiralities_Consistent>  (22) 
1

>  <s_lp_Variant>  (22) 
6:0-1

>  <s_i_glide_gridfile>  (22) 
pfpi4k_grid

>  <i_i_glide_lignum>  (22) 
8

>  <i_i_glide_rotatable_bonds>  (22) 
4

>  <r_i_docking_score>  (22) 
-3.84598

>  <r_i_glide_ligand_efficiency>  (22) 
-0.167217

>  <r_i_glide_ligand_efficiency_sa>  (22) 
-0.475542

>  <r_i_glide_ligand_efficiency_ln>  (22) 
-0.929993

>  <r_i_glide_gscore>  (22) 
-3.84598

>  <r_i_glide_lipo>  (22) 
-0.762025

>  <r_i_glide_hbond>  (22) 
-0.168965

>  <r_i_glide_metal>  (22) 
-0

>  <r_i_glide_rewards>  (22) 
-1.73126

>  <r_i_glide_evdw>  (22) 
-21.3882

>  <r_i_glide_ecoul>  (22) 
-1.90447

>  <r_i_glide_erotb>  (22) 
0.18288

>  <r_i_glide_esite>  (22) 
-0.0115311

>  <r_i_glide_emodel>  (22) 
-33.7326

>  <r_i_glide_energy>  (22) 
-23.2927

>  <r_i_glide_einternal>  (22) 
2.07462

>  <r_i_glide_intrahb_reward>  (22) 
-0.5

>  <i_i_glide_confnum>  (22) 
6

>  <i_i_glide_posenum>  (22) 
5

>  <r_i_glide_eff_state_penalty>  (22) 
0

>  <ligand_id>  (22) 
6

>  <original_smiles>  (22) 
CC(C)(O)C12CC3C4CC(C31)C1(C)CC(O)CC4C1(C(=O)O)C2

>  <smiles>  (22) 
[H]OC1([H])C([H])([H])C2([H])C3([H])C([H])([H])C4([H])C5([H])C3([H])C([H])([H])C5(C(O[H])(C([H])([H])[H])C([H])([H])[H])C([H])([H])C2(C(=O)[O-])C4(C([H])([H])[H])C1([H])[H]

$$$$
6:0:1
     RDKit          3D

 50 54  0  0  1  0  0  0  0  0999 V2000
    3.0239   -0.6591   -2.9106 C   0  0  0  0  0  0  0  0  0  0  0  0
    3.4085   -2.1317   -3.0763 C   0  0  0  0  0  0  0  0  0  0  0  0
    2.2117   -2.9771   -3.5235 C   0  0  0  0  0  0  0  0  0  0  0  0
    4.2083   -2.0460   -4.2310 O   0  0  0  0  0  0  0  0  0  0  0  0
    4.1887   -2.7482   -1.8622 C   0  0  1  0  0  0  0  0  0  0  0  0
    5.2121   -3.8419   -2.2370 C   0  0  0  0  0  0  0  0  0  0  0  0
    6.2020   -3.1958   -1.3045 C   0  0  2  0  0  0  0  0  0  0  0  0
    6.3881   -3.6022    0.1442 C   0  0  1  0  0  0  0  0  0  0  0  0
    6.6697   -2.2121    0.7199 C   0  0  0  0  0  0  0  0  0  0  0  0
    5.4082   -1.4682    0.2499 C   0  0  1  0  0  0  0  0  0  0  0  0
    5.3572   -1.9319   -1.2444 C   0  0  2  0  0  0  0  0  0  0  0  0
    4.1805   -1.9225    1.1399 C   0  0  2  0  0  0  0  0  0  0  0  0
    3.0705   -0.8531    0.9705 C   0  0  0  0  0  0  0  0  0  0  0  0
    4.5126   -1.9284    2.6771 C   0  0  0  0  0  0  0  0  0  0  0  0
    5.1187   -3.2233    3.3011 C   0  0  1  0  0  0  0  0  0  0  0  0
    4.3461   -3.6454    4.4104 O   0  0  0  0  0  0  0  0  0  0  0  0
    5.4050   -4.4326    2.3496 C   0  0  0  0  0  0  0  0  0  0  0  0
    5.1053   -4.2072    0.8356 C   0  0  1  0  0  0  0  0  0  0  0  0
    3.7772   -3.3662    0.6583 C   0  0  1  0  0  0  0  0  0  0  0  0
    2.6164   -4.0581    1.4550 C   0  0  0  0  0  0  0  0  0  0  0  0
    2.2383   -5.1825    1.0519 O   0  0  0  0  0  0  0  0  0  0  0  0
    2.0657   -3.4704    2.4114 O   0  0  0  0  0  0  0  0  0  0  0  0
    3.2241   -3.2910   -0.8052 C   0  0  0  0  0  0  0  0  0  0  0  0
    2.2261   -0.5583   -2.1907 H   0  0  0  0  0  0  0  0  0  0  0  0
    2.6299   -0.2274   -3.8314 H   0  0  0  0  0  0  0  0  0  0  0  0
    3.8632   -0.0376   -2.5909 H   0  0  0  0  0  0  0  0  0  0  0  0
    1.4166   -3.0122   -2.7815 H   0  0  0  0  0  0  0  0  0  0  0  0
    2.5030   -4.0004   -3.7561 H   0  0  0  0  0  0  0  0  0  0  0  0
    1.7453   -2.5569   -4.4052 H   0  0  0  0  0  0  0  0  0  0  0  0
    3.9780   -1.2370   -4.6572 H   0  0  0  0  0  0  0  0  0  0  0  0
    4.9482   -4.8613   -1.9527 H   0  0  0  0  0  0  0  0  0  0  0  0
    5.5846   -3.8234   -3.2592 H   0  0  0  0  0  0  0  0  0  0  0  0
    7.1438   -3.0074   -1.8224 H   0  0  0  0  0  0  0  0  0  0  0  0
    7.2500   -4.2645    0.2563 H   0  0  0  0  0  0  0  0  0  0  0  0
    6.8794   -2.1868    1.7816 H   0  0  0  0  0  0  0  0  0  0  0  0
    7.5568   -1.7827    0.2499 H   0  0  0  0  0  0  0  0  0  0  0  0
    5.5641   -0.3916    0.3325 H   0  0  0  0  0  0  0  0  0  0  0  0
    5.7526   -1.2074   -1.9543 H   0  0  0  0  0  0  0  0  0  0  0  0
    2.1400   -1.1444    1.4634 H   0  0  0  0  0  0  0  0  0  0  0  0
    2.8446   -0.6665   -0.0762 H   0  0  0  0  0  0  0  0  0  0  0  0
    3.3748    0.1083    1.3936 H   0  0  0  0  0  0  0  0  0  0  0  0
    5.1833   -1.0960    2.8869 H   0  0  0  0  0  0  0  0  0  0  0  0
    3.6163   -1.6724    3.2440 H   0  0  0  0  0  0  0  0  0  0  0  0
    6.0531   -2.9317    3.7693 H   0  0  0  0  0  0  0  0  0  0  0  0
    4.7408   -4.4240    4.7686 H   0  0  0  0  0  0  0  0  0  0  0  0
    6.4557   -4.7189    2.4560 H   0  0  0  0  0  0  0  0  0  0  0  0
    4.8517   -5.3135    2.6799 H   0  0  0  0  0  0  0  0  0  0  0  0
    4.9461   -5.1901    0.3871 H   0  0  0  0  0  0  0  0  0  0  0  0
    2.3055   -2.7065   -0.7926 H   0  0  0  0  0  0  0  0  0  0  0  0
    2.9074   -4.2853   -1.1193 H   0  0  0  0  0  0  0  0  0  0  0  0
  1  2  1  0
  1 24  1  0
  1 25  1  0
  1 26  1  0
  2  3  1  0
  2  4  1  0
  5  2  1  6
  3 27  1  0
  3 28  1  0
  3 29  1  0
  4 30  1  0
  5 11  1  0
  5 23  1  0
  5  6  1  0
  6  7  1  0
  6 31  1  0
  6 32  1  0
  7 11  1  0
  7  8  1  0
  7 33  1  6
  8 18  1  0
  8  9  1  0
  8 34  1  6
  9 10  1  0
  9 35  1  0
  9 36  1  0
 10 11  1  0
 10 12  1  0
 10 37  1  6
 11 38  1  6
 12 19  1  0
 12 13  1  1
 12 14  1  0
 13 39  1  0
 13 40  1  0
 13 41  1  0
 14 15  1  0
 14 42  1  0
 14 43  1  0
 15 16  1  0
 15 17  1  0
 15 44  1  1
 16 45  1  0
 17 18  1  0
 17 46  1  0
 17 47  1  0
 18 19  1  0
 18 48  1  6
 19 20  1  1
 19 23  1  0
 20 21  2  0
 20 22  1  0
 23 49  1  0
 23 50  1  0
M  CHG  1  22  -1
M  END
>  <i_m_ct_stereo_status>  (23) 
1

>  <s_m_source_file>  (23) 
/var/tmp/pbs.5076255.sched01/tmpgqtxr8g4/0xtbcsf6k.sdf

>  <i_m_source_file_index>  (23) 
8

>  <i_lp_mmshare_version>  (23) 
48012

>  <i_f3d_flags>  (23) 
0

>  <s_epik_input>  (23) 
W0NIM11DKFtDSDNdKShbT0hdKVtDQF0xMltDQEBIXTNbQ0BIXShbQ0gyXTEpW0NAQEhdNFtDQEBIXTVbQ0BAXShbQ0gyXTIpKEMoPU8pW09IXSlbQ0BdKFtDSDNdKShbQ0BIXTNbQ0gyXTQpW0NIMl1bQ0BASF0oW09IXSlbQ0gyXTU=

>  <s_epik_cmdline>  (23) 
J2VwaWtfcHl0aG9uJywgJy1waHQnLCAnMi4wJywgJy1waCcsICc3LjAnLCAnLXRuJywgJzgnLCAnLW1hJywgJzIwMCcsICctaW1hZScsICc8aW5maWxlLm1hZT4nLCAnLW9tYWUnLCAnPG91dGZpbGUubWFlPic=

>  <r_epik_Ionization_Penalty>  (23) 
0.00681427

>  <r_epik_Ionization_Penalty_Charging>  (23) 
0.00680989

>  <r_epik_Ionization_Penalty_Neutral>  (23) 
4.37342e-06

>  <r_epik_State_Penalty>  (23) 
0.00505646

>  <r_epik_Charging_Adjusted_Penalty>  (23) 
0.0118664

>  <i_epik_Tot_Q>  (23) 
-1

>  <i_epik_Tot_abs_Q>  (23) 
1

>  <s_lp_Force_Field>  (23) 
OPLS3e

>  <r_lp_Energy>  (23) 
78.5816

>  <b_lp_Chiralities_Consistent>  (23) 
1

>  <s_lp_Variant>  (23) 
6:0-1

>  <s_i_glide_gridfile>  (23) 
pfpi4k_grid

>  <i_i_glide_lignum>  (23) 
8

>  <i_i_glide_rotatable_bonds>  (23) 
4

>  <r_i_docking_score>  (23) 
-3.58973

>  <r_i_glide_ligand_efficiency>  (23) 
-0.156075

>  <r_i_glide_ligand_efficiency_sa>  (23) 
-0.443857

>  <r_i_glide_ligand_efficiency_ln>  (23) 
-0.868029

>  <r_i_glide_gscore>  (23) 
-3.58973

>  <r_i_glide_lipo>  (23) 
-0.851829

>  <r_i_glide_hbond>  (23) 
-0.331954

>  <r_i_glide_metal>  (23) 
-0

>  <r_i_glide_rewards>  (23) 
-1.23126

>  <r_i_glide_evdw>  (23) 
-22.8633

>  <r_i_glide_ecoul>  (23) 
-1.33594

>  <r_i_glide_erotb>  (23) 
0.18288

>  <r_i_glide_esite>  (23) 
-0.0140118

>  <r_i_glide_emodel>  (23) 
-27.4176

>  <r_i_glide_energy>  (23) 
-24.1992

>  <r_i_glide_einternal>  (23) 
4.17983

>  <r_i_glide_intrahb_reward>  (23) 
-0

>  <i_i_glide_confnum>  (23) 
1

>  <i_i_glide_posenum>  (23) 
23

>  <r_i_glide_eff_state_penalty>  (23) 
0

>  <ligand_id>  (23) 
6

>  <original_smiles>  (23) 
CC(C)(O)C12CC3C4CC(C31)C1(C)CC(O)CC4C1(C(=O)O)C2

>  <smiles>  (23) 
[H]OC1([H])C([H])([H])C2([H])C3([H])C([H])([H])C4([H])C5([H])C3([H])C([H])([H])C5(C(O[H])(C([H])([H])[H])C([H])([H])[H])C([H])([H])C2(C(=O)[O-])C4(C([H])([H])[H])C1([H])[H]

$$$$
6:0:2
     RDKit          3D

 50 54  0  0  1  0  0  0  0  0999 V2000
    2.1145   -2.9230   -3.5445 C   0  0  0  0  0  0  0  0  0  0  0  0
    3.3023   -2.0646   -3.0749 C   0  0  0  0  0  0  0  0  0  0  0  0
    4.1497   -1.7120   -4.2977 C   0  0  0  0  0  0  0  0  0  0  0  0
    2.8800   -0.7836   -2.7201 O   0  0  0  0  0  0  0  0  0  0  0  0
    4.0866   -2.6800   -1.8702 C   0  0  1  0  0  0  0  0  0  0  0  0
    5.0915   -3.7784   -2.2535 C   0  0  0  0  0  0  0  0  0  0  0  0
    6.1158   -3.1092   -1.3806 C   0  0  2  0  0  0  0  0  0  0  0  0
    6.3526   -3.4925    0.0633 C   0  0  1  0  0  0  0  0  0  0  0  0
    6.6518   -2.0978    0.6098 C   0  0  0  0  0  0  0  0  0  0  0  0
    5.3703   -1.3689    0.1816 C   0  0  1  0  0  0  0  0  0  0  0  0
    5.2664   -1.8513   -1.2998 C   0  0  2  0  0  0  0  0  0  0  0  0
    4.1727   -1.8154    1.1110 C   0  0  2  0  0  0  0  0  0  0  0  0
    3.0534   -0.7506    0.9685 C   0  0  0  0  0  0  0  0  0  0  0  0
    4.5660   -1.7908    2.6344 C   0  0  0  0  0  0  0  0  0  0  0  0
    5.1922   -3.0862    3.2410 C   0  0  1  0  0  0  0  0  0  0  0  0
    4.4196   -3.5255    4.3302 O   0  0  0  0  0  0  0  0  0  0  0  0
    5.4481   -4.3013    2.2938 C   0  0  0  0  0  0  0  0  0  0  0  0
    5.0913   -4.0949    0.7949 C   0  0  1  0  0  0  0  0  0  0  0  0
    3.7514   -3.2611    0.6590 C   0  0  1  0  0  0  0  0  0  0  0  0
    2.6187   -3.9457    1.5282 C   0  0  0  0  0  0  0  0  0  0  0  0
    2.2138   -5.0582    1.1356 O   0  0  0  0  0  0  0  0  0  0  0  0
    2.1833   -3.3863    2.5502 O   0  0  0  0  0  0  0  0  0  0  0  0
    3.1469   -3.2216   -0.7831 C   0  0  0  0  0  0  0  0  0  0  0  0
    2.4442   -3.8726   -3.9599 H   0  0  0  0  0  0  0  0  0  0  0  0
    1.5381   -2.4203   -4.3199 H   0  0  0  0  0  0  0  0  0  0  0  0
    1.4065   -3.1507   -2.7526 H   0  0  0  0  0  0  0  0  0  0  0  0
    4.5535   -2.6209   -4.7272 H   0  0  0  0  0  0  0  0  0  0  0  0
    4.9871   -1.0601   -4.0601 H   0  0  0  0  0  0  0  0  0  0  0  0
    3.5651   -1.1972   -5.0664 H   0  0  0  0  0  0  0  0  0  0  0  0
    2.2437   -0.4780   -3.3510 H   0  0  0  0  0  0  0  0  0  0  0  0
    4.8236   -4.7826   -1.9330 H   0  0  0  0  0  0  0  0  0  0  0  0
    5.4515   -3.7958   -3.2833 H   0  0  0  0  0  0  0  0  0  0  0  0
    7.0196   -2.9151   -1.9443 H   0  0  0  0  0  0  0  0  0  0  0  0
    7.2175   -4.1567    0.1446 H   0  0  0  0  0  0  0  0  0  0  0  0
    6.9100   -2.0606    1.6697 H   0  0  0  0  0  0  0  0  0  0  0  0
    7.5152   -1.6745    0.1016 H   0  0  0  0  0  0  0  0  0  0  0  0
    5.5220   -0.2870    0.2372 H   0  0  0  0  0  0  0  0  0  0  0  0
    5.6275   -1.1162   -2.0078 H   0  0  0  0  0  0  0  0  0  0  0  0
    2.1493   -1.0325    1.5078 H   0  0  0  0  0  0  0  0  0  0  0  0
    2.7839   -0.5932   -0.0743 H   0  0  0  0  0  0  0  0  0  0  0  0
    3.3796    0.2237    1.3565 H   0  0  0  0  0  0  0  0  0  0  0  0
    5.2522   -0.9623    2.8000 H   0  0  0  0  0  0  0  0  0  0  0  0
    3.6934   -1.5135    3.2357 H   0  0  0  0  0  0  0  0  0  0  0  0
    6.1359   -2.7831    3.6873 H   0  0  0  0  0  0  0  0  0  0  0  0
    3.5476   -3.7151    3.9700 H   0  0  0  0  0  0  0  0  0  0  0  0
    6.5008   -4.5800    2.3713 H   0  0  0  0  0  0  0  0  0  0  0  0
    4.9117   -5.1829    2.6620 H   0  0  0  0  0  0  0  0  0  0  0  0
    4.9200   -5.0788    0.3698 H   0  0  0  0  0  0  0  0  0  0  0  0
    2.2156   -2.6642   -0.7528 H   0  0  0  0  0  0  0  0  0  0  0  0
    2.8279   -4.2191   -1.0799 H   0  0  0  0  0  0  0  0  0  0  0  0
  1  2  1  0
  1 24  1  0
  1 25  1  0
  1 26  1  0
  2  3  1  0
  2  4  1  0
  5  2  1  6
  3 27  1  0
  3 28  1  0
  3 29  1  0
  4 30  1  0
  5 11  1  0
  5 23  1  0
  5  6  1  0
  6  7  1  0
  6 31  1  0
  6 32  1  0
  7 11  1  0
  7  8  1  0
  7 33  1  6
  8 18  1  0
  8  9  1  0
  8 34  1  6
  9 10  1  0
  9 35  1  0
  9 36  1  0
 10 11  1  0
 10 12  1  0
 10 37  1  6
 11 38  1  6
 12 19  1  0
 12 13  1  1
 12 14  1  0
 13 39  1  0
 13 40  1  0
 13 41  1  0
 14 15  1  0
 14 42  1  0
 14 43  1  0
 15 16  1  0
 15 17  1  0
 15 44  1  1
 16 45  1  0
 17 18  1  0
 17 46  1  0
 17 47  1  0
 18 19  1  0
 18 48  1  6
 19 20  1  1
 19 23  1  0
 20 21  2  0
 20 22  1  0
 23 49  1  0
 23 50  1  0
M  CHG  1  22  -1
M  END
>  <i_m_ct_stereo_status>  (24) 
1

>  <s_m_source_file>  (24) 
/var/tmp/pbs.5076255.sched01/tmpgqtxr8g4/0xtbcsf6k.sdf

>  <i_m_source_file_index>  (24) 
8

>  <i_lp_mmshare_version>  (24) 
48012

>  <i_f3d_flags>  (24) 
0

>  <s_epik_input>  (24) 
W0NIM11DKFtDSDNdKShbT0hdKVtDQF0xMltDQEBIXTNbQ0BIXShbQ0gyXTEpW0NAQEhdNFtDQEBIXTVbQ0BAXShbQ0gyXTIpKEMoPU8pW09IXSlbQ0BdKFtDSDNdKShbQ0BIXTNbQ0gyXTQpW0NIMl1bQ0BASF0oW09IXSlbQ0gyXTU=

>  <s_epik_cmdline>  (24) 
J2VwaWtfcHl0aG9uJywgJy1waHQnLCAnMi4wJywgJy1waCcsICc3LjAnLCAnLXRuJywgJzgnLCAnLW1hJywgJzIwMCcsICctaW1hZScsICc8aW5maWxlLm1hZT4nLCAnLW9tYWUnLCAnPG91dGZpbGUubWFlPic=

>  <r_epik_Ionization_Penalty>  (24) 
0.00681427

>  <r_epik_Ionization_Penalty_Charging>  (24) 
0.00680989

>  <r_epik_Ionization_Penalty_Neutral>  (24) 
4.37342e-06

>  <r_epik_State_Penalty>  (24) 
0.00505646

>  <r_epik_Charging_Adjusted_Penalty>  (24) 
0.0118664

>  <i_epik_Tot_Q>  (24) 
-1

>  <i_epik_Tot_abs_Q>  (24) 
1

>  <s_lp_Force_Field>  (24) 
OPLS3e

>  <r_lp_Energy>  (24) 
78.5816

>  <b_lp_Chiralities_Consistent>  (24) 
1

>  <s_lp_Variant>  (24) 
6:0-1

>  <s_i_glide_gridfile>  (24) 
pfpi4k_grid

>  <i_i_glide_lignum>  (24) 
8

>  <i_i_glide_rotatable_bonds>  (24) 
4

>  <r_i_docking_score>  (24) 
-3.26995

>  <r_i_glide_ligand_efficiency>  (24) 
-0.142172

>  <r_i_glide_ligand_efficiency_sa>  (24) 
-0.404318

>  <r_i_glide_ligand_efficiency_ln>  (24) 
-0.790704

>  <r_i_glide_gscore>  (24) 
-3.26995

>  <r_i_glide_lipo>  (24) 
-0.790496

>  <r_i_glide_hbond>  (24) 
-0.0177774

>  <r_i_glide_metal>  (24) 
-0

>  <r_i_glide_rewards>  (24) 
-1.73126

>  <r_i_glide_evdw>  (24) 
-22.766

>  <r_i_glide_ecoul>  (24) 
1.58251

>  <r_i_glide_erotb>  (24) 
0.18288

>  <r_i_glide_esite>  (24) 
-0.0123755

>  <r_i_glide_emodel>  (24) 
-29.4542

>  <r_i_glide_energy>  (24) 
-21.1835

>  <r_i_glide_einternal>  (24) 
2.47653

>  <r_i_glide_intrahb_reward>  (24) 
-0.5

>  <i_i_glide_confnum>  (24) 
3

>  <i_i_glide_posenum>  (24) 
37

>  <r_i_glide_eff_state_penalty>  (24) 
0

>  <ligand_id>  (24) 
6

>  <original_smiles>  (24) 
CC(C)(O)C12CC3C4CC(C31)C1(C)CC(O)CC4C1(C(=O)O)C2

>  <smiles>  (24) 
[H]OC1([H])C([H])([H])C2([H])C3([H])C([H])([H])C4([H])C5([H])C3([H])C([H])([H])C5(C(O[H])(C([H])([H])[H])C([H])([H])[H])C([H])([H])C2(C(=O)[O-])C4(C([H])([H])[H])C1([H])[H]

$$$$
7:0:0
     RDKit          3D

 55 60  0  0  1  0  0  0  0  0999 V2000
    1.0975  -10.7454    2.9572 C   0  0  0  0  0  0  0  0  0  0  0  0
    2.0427   -9.7502    2.8923 C   0  0  0  0  0  0  0  0  0  0  0  0
    1.3266   -8.5637    2.7627 N   0  0  0  0  0  0  0  0  0  0  0  0
    1.7600   -7.2206    2.6538 C   0  0  0  0  0  0  0  0  0  0  0  0
    0.9943   -6.1650    3.2105 C   0  0  0  0  0  0  0  0  0  0  0  0
    1.4931   -4.8522    3.1419 C   0  0  0  0  0  0  0  0  0  0  0  0
    2.6585   -4.5180    2.5622 N   0  0  0  0  0  0  0  0  0  0  0  0
    3.3910   -5.5515    2.0351 C   0  0  0  0  0  0  0  0  0  0  0  0
    3.0030   -6.9256    2.0361 C   0  0  0  0  0  0  0  0  0  0  0  0
    4.0438   -7.6689    1.3730 C   0  0  0  0  0  0  0  0  0  0  0  0
    5.0070   -6.7623    1.0219 C   0  0  0  0  0  0  0  0  0  0  0  0
    4.6389   -5.4717    1.4037 N   0  0  0  0  0  0  0  0  0  0  0  0
    5.4126   -4.2884    1.1783 C   0  0  0  0  0  0  0  0  0  0  0  0
    6.4794   -4.2878    0.2520 C   0  0  0  0  0  0  0  0  0  0  0  0
    7.1837   -3.0847    0.0638 C   0  0  0  0  0  0  0  0  0  0  0  0
    6.8504   -1.9593    0.7263 N   0  0  0  0  0  0  0  0  0  0  0  0
    5.8350   -2.0557    1.5778 C   0  0  0  0  0  0  0  0  0  0  0  0
    5.5151   -0.9064    2.2603 N   0  0  0  0  0  0  0  0  0  0  0  0
    4.1452   -0.5982    2.6722 C   0  0  0  0  0  0  0  0  0  0  0  0
    3.3694    0.0952    1.5379 C   0  0  0  0  0  0  0  0  0  0  0  0
    1.9471    0.4715    1.9801 C   0  0  0  0  0  0  0  0  0  0  0  0
    1.9352    1.3721    3.2250 C   0  0  0  0  0  0  0  0  0  0  0  0
    2.6958    0.6443    4.3444 C   0  0  0  0  0  0  0  0  0  0  0  0
    4.1290    0.2714    3.9388 C   0  0  0  0  0  0  0  0  0  0  0  0
    0.5707    1.9595    3.5925 C   0  0  0  0  0  0  0  0  0  0  0  0
    0.9426    3.1852    2.8931 N   0  0  0  0  0  0  0  0  0  0  0  0
    2.3456    2.8297    2.9955 C   0  0  0  0  0  0  0  0  0  0  0  0
    5.1249   -3.1462    1.8377 N   0  0  0  0  0  0  0  0  0  0  0  0
    0.0255   -8.8944    2.7700 C   0  0  0  0  0  0  0  0  0  0  0  0
   -0.1821  -10.2007    2.8812 N   0  0  0  0  0  0  0  0  0  0  0  0
    1.2361  -11.8125    3.0455 H   0  0  0  0  0  0  0  0  0  0  0  0
    3.1196   -9.7982    2.9332 H   0  0  0  0  0  0  0  0  0  0  0  0
    0.0625   -6.3522    3.7236 H   0  0  0  0  0  0  0  0  0  0  0  0
    0.9395   -4.0276    3.5656 H   0  0  0  0  0  0  0  0  0  0  0  0
    4.0686   -8.7331    1.1951 H   0  0  0  0  0  0  0  0  0  0  0  0
    5.9376   -6.9592    0.5177 H   0  0  0  0  0  0  0  0  0  0  0  0
    6.7449   -5.1587   -0.3126 H   0  0  0  0  0  0  0  0  0  0  0  0
    8.0079   -3.0328   -0.6365 H   0  0  0  0  0  0  0  0  0  0  0  0
    3.6018   -1.5152    2.9164 H   0  0  0  0  0  0  0  0  0  0  0  0
    3.8967    0.9953    1.2288 H   0  0  0  0  0  0  0  0  0  0  0  0
    3.3157   -0.5379    0.6515 H   0  0  0  0  0  0  0  0  0  0  0  0
    1.4556    0.9763    1.1468 H   0  0  0  0  0  0  0  0  0  0  0  0
    1.3651   -0.4351    2.1535 H   0  0  0  0  0  0  0  0  0  0  0  0
    2.7653    1.2815    5.2255 H   0  0  0  0  0  0  0  0  0  0  0  0
    2.1539   -0.2430    4.6704 H   0  0  0  0  0  0  0  0  0  0  0  0
    4.6232   -0.2500    4.7586 H   0  0  0  0  0  0  0  0  0  0  0  0
    4.6952    1.1883    3.7769 H   0  0  0  0  0  0  0  0  0  0  0  0
   -0.2827    1.4300    3.1644 H   0  0  0  0  0  0  0  0  0  0  0  0
    0.4470    2.1237    4.6636 H   0  0  0  0  0  0  0  0  0  0  0  0
    0.6284    3.2439    1.9246 H   0  0  0  0  0  0  0  0  0  0  0  0
    2.8247    3.2935    3.8599 H   0  0  0  0  0  0  0  0  0  0  0  0
    2.9028    3.0094    2.0775 H   0  0  0  0  0  0  0  0  0  0  0  0
   -0.7888   -8.1904    2.6956 H   0  0  0  0  0  0  0  0  0  0  0  0
    6.1456   -0.1427    2.0765 H   0  0  0  0  0  0  0  0  0  0  0  0
    0.7100    4.0298    3.3983 H   0  0  0  0  0  0  0  0  0  0  0  0
  1 30  1  0
  1  2  2  0
  1 31  1  0
  2  3  1  0
  2 32  1  0
  3  4  1  0
  3 29  1  0
  4  9  1  0
  4  5  2  0
  5  6  1  0
  5 33  1  0
  6  7  2  0
  6 34  1  0
  7  8  1  0
  8 12  1  0
  8  9  2  0
  9 10  1  0
 10 11  2  0
 10 35  1  0
 11 12  1  0
 11 36  1  0
 12 13  1  0
 13 28  1  0
 13 14  2  0
 14 15  1  0
 14 37  1  0
 15 16  2  0
 15 38  1  0
 16 17  1  0
 17 18  1  0
 17 28  2  0
 18 19  1  0
 18 54  1  0
 19 24  1  0
 19 20  1  0
 19 39  1  0
 20 21  1  0
 20 40  1  0
 20 41  1  0
 21 22  1  0
 21 42  1  0
 21 43  1  0
 22 27  1  0
 22 23  1  0
 22 25  1  0
 23 24  1  0
 23 44  1  0
 23 45  1  0
 24 46  1  0
 24 47  1  0
 25 26  1  0
 25 48  1  0
 25 49  1  0
 26 27  1  0
 26 50  1  0
 26 55  1  0
 27 51  1  0
 27 52  1  0
 29 30  2  0
 29 53  1  0
M  CHG  1  26   1
M  END
>  <i_m_ct_stereo_status>  (25) 
1

>  <s_m_source_file>  (25) 
/var/tmp/pbs.5076255.sched01/tmpgqtxr8g4/0xtbcsf6k.sdf

>  <i_m_source_file_index>  (25) 
9

>  <i_lp_mmshare_version>  (25) 
48012

>  <i_f3d_flags>  (25) 
0

>  <s_epik_input>  (25) 
W2NIXTFuW2NIXVtjSF1uMS1jKFtjSF1bY0hdbjIpYyhjMjMpW2NIXVtjSF1uMy1jNFtjSF1bY0hdW25IXS9jKG40KT1OL1tDSF0oW0NIMl1bQ0gyXTUpW0NIMl1bQ0gyXUM1NltDSDJdW05IXVtDSDJdNg==

>  <s_epik_cmdline>  (25) 
J2VwaWtfcHl0aG9uJywgJy1waHQnLCAnMi4wJywgJy1waCcsICc3LjAnLCAnLXRuJywgJzgnLCAnLW1hJywgJzIwMCcsICctaW1hZScsICc8aW5maWxlLm1hZT4nLCAnLW9tYWUnLCAnPG91dGZpbGUubWFlPic=

>  <r_lp_tautomer_probability>  (25) 
1

>  <r_epik_Ionization_Penalty>  (25) 
0.0270851

>  <r_epik_Ionization_Penalty_Charging>  (25) 
0.0270533

>  <r_epik_Ionization_Penalty_Neutral>  (25) 
3.18158e-05

>  <r_epik_State_Penalty>  (25) 
0.0220938

>  <r_epik_Charging_Adjusted_Penalty>  (25) 
0.0491472

>  <i_epik_Tot_Q>  (25) 
1

>  <i_epik_Tot_abs_Q>  (25) 
1

>  <s_lp_Force_Field>  (25) 
OPLS3e

>  <r_lp_Energy>  (25) 
65.0116

>  <b_lp_Chiralities_Consistent>  (25) 
1

>  <s_lp_Variant>  (25) 
7:0-1

>  <s_i_glide_gridfile>  (25) 
pfpi4k_grid

>  <i_i_glide_lignum>  (25) 
9

>  <i_i_glide_rotatable_bonds>  (25) 
4

>  <r_i_docking_score>  (25) 
-3.94024

>  <r_i_glide_ligand_efficiency>  (25) 
-0.131341

>  <r_i_glide_ligand_efficiency_sa>  (25) 
-0.408108

>  <r_i_glide_ligand_efficiency_ln>  (25) 
-0.895266

>  <r_i_glide_gscore>  (25) 
-3.94024

>  <r_i_glide_lipo>  (25) 
-0.647353

>  <r_i_glide_hbond>  (25) 
-0.274836

>  <r_i_glide_metal>  (25) 
-0

>  <r_i_glide_rewards>  (25) 
-0.957134

>  <r_i_glide_evdw>  (25) 
-31.57

>  <r_i_glide_ecoul>  (25) 
-5.47535

>  <r_i_glide_erotb>  (25) 
0.486737

>  <r_i_glide_esite>  (25) 
-0.14785

>  <r_i_glide_emodel>  (25) 
-49.3643

>  <r_i_glide_energy>  (25) 
-37.0454

>  <r_i_glide_einternal>  (25) 
1.55218

>  <r_i_glide_intrahb_reward>  (25) 
-0

>  <i_i_glide_confnum>  (25) 
4

>  <i_i_glide_posenum>  (25) 
14

>  <r_i_glide_eff_state_penalty>  (25) 
0

>  <ligand_id>  (25) 
7

>  <original_smiles>  (25) 
c1cn(-c2ccnc3c2ccn3-c2cc[nH]c(=NC3CCC4(CC3)CNC4)n2)cn1

>  <smiles>  (25) 
[H]c1nc(N([H])C2([H])C([H])([H])C([H])([H])C3(C([H])([H])C2([H])[H])C([H])([H])[N+]([H])([H])C3([H])[H])nc(-n2c([H])c([H])c3c(-n4c([H])nc([H])c4[H])c([H])c([H])nc32)c1[H]

$$$$
7:0:1
     RDKit          3D

 55 60  0  0  1  0  0  0  0  0999 V2000
    0.2122  -10.4519    3.0421 C   0  0  0  0  0  0  0  0  0  0  0  0
    0.8215   -9.3362    2.5388 C   0  0  0  0  0  0  0  0  0  0  0  0
    2.1829   -9.6238    2.5259 N   0  0  0  0  0  0  0  0  0  0  0  0
    3.2895   -8.8461    2.1362 C   0  0  0  0  0  0  0  0  0  0  0  0
    4.5083   -9.4540    1.7329 C   0  0  0  0  0  0  0  0  0  0  0  0
    5.5819   -8.6480    1.3338 C   0  0  0  0  0  0  0  0  0  0  0  0
    5.5409   -7.2984    1.2956 N   0  0  0  0  0  0  0  0  0  0  0  0
    4.3512   -6.7291    1.6689 C   0  0  0  0  0  0  0  0  0  0  0  0
    3.1870   -7.4238    2.1133 C   0  0  0  0  0  0  0  0  0  0  0  0
    2.1885   -6.4306    2.4411 C   0  0  0  0  0  0  0  0  0  0  0  0
    2.7450   -5.2075    2.1684 C   0  0  0  0  0  0  0  0  0  0  0  0
    4.0431   -5.3596    1.6971 N   0  0  0  0  0  0  0  0  0  0  0  0
    4.8781   -4.2647    1.3376 C   0  0  0  0  0  0  0  0  0  0  0  0
    5.8603   -4.3832    0.3381 C   0  0  0  0  0  0  0  0  0  0  0  0
    6.6372   -3.2481    0.0500 C   0  0  0  0  0  0  0  0  0  0  0  0
    6.4461   -2.0749    0.6876 N   0  0  0  0  0  0  0  0  0  0  0  0
    5.4717   -2.0564    1.5943 C   0  0  0  0  0  0  0  0  0  0  0  0
    5.2930   -0.8540    2.2324 N   0  0  0  0  0  0  0  0  0  0  0  0
    3.9865   -0.3997    2.7028 C   0  0  0  0  0  0  0  0  0  0  0  0
    3.2201    0.3481    1.5968 C   0  0  0  0  0  0  0  0  0  0  0  0
    1.8621    0.8674    2.0960 C   0  0  0  0  0  0  0  0  0  0  0  0
    1.9996    1.7941    3.3165 C   0  0  0  0  0  0  0  0  0  0  0  0
    2.7490    1.0120    4.4111 C   0  0  0  0  0  0  0  0  0  0  0  0
    4.1187    0.4886    3.9467 C   0  0  0  0  0  0  0  0  0  0  0  0
    0.7175    2.5106    3.7437 C   0  0  0  0  0  0  0  0  0  0  0  0
    1.1548    3.6853    2.9960 N   0  0  0  0  0  0  0  0  0  0  0  0
    2.5231    3.2038    3.0334 C   0  0  0  0  0  0  0  0  0  0  0  0
    4.6817   -3.0713    1.9486 N   0  0  0  0  0  0  0  0  0  0  0  0
    2.3101  -10.8865    2.9735 C   0  0  0  0  0  0  0  0  0  0  0  0
    1.1498  -11.4460    3.2933 N   0  0  0  0  0  0  0  0  0  0  0  0
   -0.8408  -10.6129    3.2103 H   0  0  0  0  0  0  0  0  0  0  0  0
    0.3762   -8.4137    2.1906 H   0  0  0  0  0  0  0  0  0  0  0  0
    4.6280  -10.5331    1.6931 H   0  0  0  0  0  0  0  0  0  0  0  0
    6.5125   -9.0955    1.0074 H   0  0  0  0  0  0  0  0  0  0  0  0
    1.2044   -6.5963    2.8459 H   0  0  0  0  0  0  0  0  0  0  0  0
    2.3152   -4.2218    2.2894 H   0  0  0  0  0  0  0  0  0  0  0  0
    6.0191   -5.2995   -0.2003 H   0  0  0  0  0  0  0  0  0  0  0  0
    7.4071   -3.2836   -0.7050 H   0  0  0  0  0  0  0  0  0  0  0  0
    3.3613   -1.2445    2.9993 H   0  0  0  0  0  0  0  0  0  0  0  0
    3.8150    1.1921    1.2507 H   0  0  0  0  0  0  0  0  0  0  0  0
    3.0616   -0.2870    0.7229 H   0  0  0  0  0  0  0  0  0  0  0  0
    1.3813    1.3976    1.2781 H   0  0  0  0  0  0  0  0  0  0  0  0
    1.2079    0.0240    2.3189 H   0  0  0  0  0  0  0  0  0  0  0  0
    2.9325    1.6500    5.2678 H   0  0  0  0  0  0  0  0  0  0  0  0
    2.1448    0.1871    4.7901 H   0  0  0  0  0  0  0  0  0  0  0  0
    4.6038   -0.0560    4.7549 H   0  0  0  0  0  0  0  0  0  0  0  0
    4.7620    1.3421    3.7373 H   0  0  0  0  0  0  0  0  0  0  0  0
   -0.2023    2.0529    3.3752 H   0  0  0  0  0  0  0  0  0  0  0  0
    0.6717    2.7063    4.8139 H   0  0  0  0  0  0  0  0  0  0  0  0
    0.7910    3.7136    2.0279 H   0  0  0  0  0  0  0  0  0  0  0  0
    3.0969    3.6318    3.8543 H   0  0  0  0  0  0  0  0  0  0  0  0
    3.0246    3.3171    2.0779 H   0  0  0  0  0  0  0  0  0  0  0  0
    3.2344  -11.4491    3.0580 H   0  0  0  0  0  0  0  0  0  0  0  0
    5.9695   -0.1684    1.9505 H   0  0  0  0  0  0  0  0  0  0  0  0
    1.0300    4.5616    3.4933 H   0  0  0  0  0  0  0  0  0  0  0  0
  1 30  1  0
  1  2  2  0
  1 31  1  0
  2  3  1  0
  2 32  1  0
  3  4  1  0
  3 29  1  0
  4  9  1  0
  4  5  2  0
  5  6  1  0
  5 33  1  0
  6  7  2  0
  6 34  1  0
  7  8  1  0
  8 12  1  0
  8  9  2  0
  9 10  1  0
 10 11  2  0
 10 35  1  0
 11 12  1  0
 11 36  1  0
 12 13  1  0
 13 28  1  0
 13 14  2  0
 14 15  1  0
 14 37  1  0
 15 16  2  0
 15 38  1  0
 16 17  1  0
 17 18  1  0
 17 28  2  0
 18 19  1  0
 18 54  1  0
 19 24  1  0
 19 20  1  0
 19 39  1  0
 20 21  1  0
 20 40  1  0
 20 41  1  0
 21 22  1  0
 21 42  1  0
 21 43  1  0
 22 27  1  0
 22 23  1  0
 22 25  1  0
 23 24  1  0
 23 44  1  0
 23 45  1  0
 24 46  1  0
 24 47  1  0
 25 26  1  0
 25 48  1  0
 25 49  1  0
 26 27  1  0
 26 50  1  0
 26 55  1  0
 27 51  1  0
 27 52  1  0
 29 30  2  0
 29 53  1  0
M  CHG  1  26   1
M  END
>  <i_m_ct_stereo_status>  (26) 
1

>  <s_m_source_file>  (26) 
/var/tmp/pbs.5076255.sched01/tmpgqtxr8g4/0xtbcsf6k.sdf

>  <i_m_source_file_index>  (26) 
9

>  <i_lp_mmshare_version>  (26) 
48012

>  <i_f3d_flags>  (26) 
0

>  <s_epik_input>  (26) 
W2NIXTFuW2NIXVtjSF1uMS1jKFtjSF1bY0hdbjIpYyhjMjMpW2NIXVtjSF1uMy1jNFtjSF1bY0hdW25IXS9jKG40KT1OL1tDSF0oW0NIMl1bQ0gyXTUpW0NIMl1bQ0gyXUM1NltDSDJdW05IXVtDSDJdNg==

>  <s_epik_cmdline>  (26) 
J2VwaWtfcHl0aG9uJywgJy1waHQnLCAnMi4wJywgJy1waCcsICc3LjAnLCAnLXRuJywgJzgnLCAnLW1hJywgJzIwMCcsICctaW1hZScsICc8aW5maWxlLm1hZT4nLCAnLW9tYWUnLCAnPG91dGZpbGUubWFlPic=

>  <r_lp_tautomer_probability>  (26) 
1

>  <r_epik_Ionization_Penalty>  (26) 
0.0270851

>  <r_epik_Ionization_Penalty_Charging>  (26) 
0.0270533

>  <r_epik_Ionization_Penalty_Neutral>  (26) 
3.18158e-05

>  <r_epik_State_Penalty>  (26) 
0.0220938

>  <r_epik_Charging_Adjusted_Penalty>  (26) 
0.0491472

>  <i_epik_Tot_Q>  (26) 
1

>  <i_epik_Tot_abs_Q>  (26) 
1

>  <s_lp_Force_Field>  (26) 
OPLS3e

>  <r_lp_Energy>  (26) 
65.0116

>  <b_lp_Chiralities_Consistent>  (26) 
1

>  <s_lp_Variant>  (26) 
7:0-1

>  <s_i_glide_gridfile>  (26) 
pfpi4k_grid

>  <i_i_glide_lignum>  (26) 
9

>  <i_i_glide_rotatable_bonds>  (26) 
4

>  <r_i_docking_score>  (26) 
-3.93188

>  <r_i_glide_ligand_efficiency>  (26) 
-0.131063

>  <r_i_glide_ligand_efficiency_sa>  (26) 
-0.407242

>  <r_i_glide_ligand_efficiency_ln>  (26) 
-0.893366

>  <r_i_glide_gscore>  (26) 
-3.93188

>  <r_i_glide_lipo>  (26) 
-0.414657

>  <r_i_glide_hbond>  (26) 
-0.2

>  <r_i_glide_metal>  (26) 
-0

>  <r_i_glide_rewards>  (26) 
-1.02178

>  <r_i_glide_evdw>  (26) 
-31.3797

>  <r_i_glide_ecoul>  (26) 
-7.4213

>  <r_i_glide_erotb>  (26) 
0.486737

>  <r_i_glide_esite>  (26) 
-0.1

>  <r_i_glide_emodel>  (26) 
-50.957

>  <r_i_glide_energy>  (26) 
-38.801

>  <r_i_glide_einternal>  (26) 
1.51902

>  <r_i_glide_intrahb_reward>  (26) 
-0

>  <i_i_glide_confnum>  (26) 
6

>  <i_i_glide_posenum>  (26) 
3

>  <r_i_glide_eff_state_penalty>  (26) 
0

>  <ligand_id>  (26) 
7

>  <original_smiles>  (26) 
c1cn(-c2ccnc3c2ccn3-c2cc[nH]c(=NC3CCC4(CC3)CNC4)n2)cn1

>  <smiles>  (26) 
[H]c1nc(N([H])C2([H])C([H])([H])C([H])([H])C3(C([H])([H])C2([H])[H])C([H])([H])[N+]([H])([H])C3([H])[H])nc(-n2c([H])c([H])c3c(-n4c([H])nc([H])c4[H])c([H])c([H])nc32)c1[H]

$$$$
7:0:2
     RDKit          3D

 55 60  0  0  1  0  0  0  0  0999 V2000
    0.5284  -10.6532    2.7783 C   0  0  0  0  0  0  0  0  0  0  0  0
    0.1997   -9.5043    3.4500 C   0  0  0  0  0  0  0  0  0  0  0  0
    0.6193   -9.6947    4.7584 N   0  0  0  0  0  0  0  0  0  0  0  0
    0.5317   -8.8538    5.8857 C   0  0  0  0  0  0  0  0  0  0  0  0
    0.3211   -9.3814    7.1805 C   0  0  0  0  0  0  0  0  0  0  0  0
    0.2160   -8.5027    8.2713 C   0  0  0  0  0  0  0  0  0  0  0  0
    0.2539   -7.1575    8.1607 N   0  0  0  0  0  0  0  0  0  0  0  0
    0.4645   -6.6645    6.8997 C   0  0  0  0  0  0  0  0  0  0  0  0
    0.6008   -7.4419    5.7112 C   0  0  0  0  0  0  0  0  0  0  0  0
    0.7710   -6.5355    4.6071 C   0  0  0  0  0  0  0  0  0  0  0  0
    0.7526   -5.2713    5.1362 C   0  0  0  0  0  0  0  0  0  0  0  0
    0.5829   -5.3211    6.5188 N   0  0  0  0  0  0  0  0  0  0  0  0
    0.5521   -4.1676    7.3537 C   0  0  0  0  0  0  0  0  0  0  0  0
    0.8912   -4.2195    8.7241 C   0  0  0  0  0  0  0  0  0  0  0  0
    0.8270   -3.0265    9.4594 C   0  0  0  0  0  0  0  0  0  0  0  0
    0.4750   -1.8593    8.8807 N   0  0  0  0  0  0  0  0  0  0  0  0
    0.2265   -1.8988    7.5761 C   0  0  0  0  0  0  0  0  0  0  0  0
   -0.1059   -0.6817    7.0287 N   0  0  0  0  0  0  0  0  0  0  0  0
   -0.1828   -0.4493    5.5972 C   0  0  0  0  0  0  0  0  0  0  0  0
    1.2218   -0.3226    4.9841 C   0  0  0  0  0  0  0  0  0  0  0  0
    1.1338   -0.0660    3.4805 C   0  0  0  0  0  0  0  0  0  0  0  0
    0.3231    1.1954    3.1731 C   0  0  0  0  0  0  0  0  0  0  0  0
   -1.0766    1.0476    3.7755 C   0  0  0  0  0  0  0  0  0  0  0  0
   -1.0250    0.7969    5.2866 C   0  0  0  0  0  0  0  0  0  0  0  0
    0.3739    1.6216    1.7166 C   0  0  0  0  0  0  0  0  0  0  0  0
    1.4142    2.5591    2.0831 N   0  0  0  0  0  0  0  0  0  0  0  0
    1.0152    2.5245    3.4759 C   0  0  0  0  0  0  0  0  0  0  0  0
    0.2223   -2.9798    6.7926 N   0  0  0  0  0  0  0  0  0  0  0  0
    1.1599  -10.9242    4.8090 C   0  0  0  0  0  0  0  0  0  0  0  0
    1.1306  -11.5547    3.6422 N   0  0  0  0  0  0  0  0  0  0  0  0
    0.3284  -10.9215    1.7586 H   0  0  0  0  0  0  0  0  0  0  0  0
   -0.3190   -8.6227    3.0951 H   0  0  0  0  0  0  0  0  0  0  0  0
    0.2158  -10.4490    7.3421 H   0  0  0  0  0  0  0  0  0  0  0  0
    0.0545   -8.8811    9.2719 H   0  0  0  0  0  0  0  0  0  0  0  0
    0.8964   -6.8005    3.5658 H   0  0  0  0  0  0  0  0  0  0  0  0
    0.8659   -4.3208    4.6319 H   0  0  0  0  0  0  0  0  0  0  0  0
    1.2017   -5.1202    9.2195 H   0  0  0  0  0  0  0  0  0  0  0  0
    1.0603   -3.0178   10.5141 H   0  0  0  0  0  0  0  0  0  0  0  0
   -0.6849   -1.2934    5.1165 H   0  0  0  0  0  0  0  0  0  0  0  0
    1.7645    0.4933    5.4641 H   0  0  0  0  0  0  0  0  0  0  0  0
    1.8112   -1.2232    5.1510 H   0  0  0  0  0  0  0  0  0  0  0  0
    2.1437    0.0424    3.0945 H   0  0  0  0  0  0  0  0  0  0  0  0
    0.7065   -0.9268    2.9646 H   0  0  0  0  0  0  0  0  0  0  0  0
   -1.6516    1.9545    3.6154 H   0  0  0  0  0  0  0  0  0  0  0  0
   -1.6356    0.2616    3.2701 H   0  0  0  0  0  0  0  0  0  0  0  0
   -2.0395    0.6823    5.6644 H   0  0  0  0  0  0  0  0  0  0  0  0
   -0.6105    1.6827    5.7739 H   0  0  0  0  0  0  0  0  0  0  0  0
    0.6954    0.8747    0.9930 H   0  0  0  0  0  0  0  0  0  0  0  0
   -0.5151    2.1463    1.3839 H   0  0  0  0  0  0  0  0  0  0  0  0
    2.3344    2.1907    1.9378 H   0  0  0  0  0  0  0  0  0  0  0  0
    0.3403    3.3476    3.7129 H   0  0  0  0  0  0  0  0  0  0  0  0
    1.8614    2.4693    4.1626 H   0  0  0  0  0  0  0  0  0  0  0  0
    1.5939  -11.3872    5.6812 H   0  0  0  0  0  0  0  0  0  0  0  0
    0.1013    0.1015    7.6274 H   0  0  0  0  0  0  0  0  0  0  0  0
    1.1920    3.4571    1.6241 H   0  0  0  0  0  0  0  0  0  0  0  0
  1 30  1  0
  1  2  2  0
  1 31  1  0
  2  3  1  0
  2 32  1  0
  3  4  1  0
  3 29  1  0
  4  9  1  0
  4  5  2  0
  5  6  1  0
  5 33  1  0
  6  7  2  0
  6 34  1  0
  7  8  1  0
  8 12  1  0
  8  9  2  0
  9 10  1  0
 10 11  2  0
 10 35  1  0
 11 12  1  0
 11 36  1  0
 12 13  1  0
 13 28  1  0
 13 14  2  0
 14 15  1  0
 14 37  1  0
 15 16  2  0
 15 38  1  0
 16 17  1  0
 17 18  1  0
 17 28  2  0
 18 19  1  0
 18 54  1  0
 19 24  1  0
 19 20  1  0
 19 39  1  0
 20 21  1  0
 20 40  1  0
 20 41  1  0
 21 22  1  0
 21 42  1  0
 21 43  1  0
 22 27  1  0
 22 23  1  0
 22 25  1  0
 23 24  1  0
 23 44  1  0
 23 45  1  0
 24 46  1  0
 24 47  1  0
 25 26  1  0
 25 48  1  0
 25 49  1  0
 26 27  1  0
 26 50  1  0
 26 55  1  0
 27 51  1  0
 27 52  1  0
 29 30  2  0
 29 53  1  0
M  CHG  1  26   1
M  END
>  <i_m_ct_stereo_status>  (27) 
1

>  <s_m_source_file>  (27) 
/var/tmp/pbs.5076255.sched01/tmpgqtxr8g4/0xtbcsf6k.sdf

>  <i_m_source_file_index>  (27) 
9

>  <i_lp_mmshare_version>  (27) 
48012

>  <i_f3d_flags>  (27) 
0

>  <s_epik_input>  (27) 
W2NIXTFuW2NIXVtjSF1uMS1jKFtjSF1bY0hdbjIpYyhjMjMpW2NIXVtjSF1uMy1jNFtjSF1bY0hdW25IXS9jKG40KT1OL1tDSF0oW0NIMl1bQ0gyXTUpW0NIMl1bQ0gyXUM1NltDSDJdW05IXVtDSDJdNg==

>  <s_epik_cmdline>  (27) 
J2VwaWtfcHl0aG9uJywgJy1waHQnLCAnMi4wJywgJy1waCcsICc3LjAnLCAnLXRuJywgJzgnLCAnLW1hJywgJzIwMCcsICctaW1hZScsICc8aW5maWxlLm1hZT4nLCAnLW9tYWUnLCAnPG91dGZpbGUubWFlPic=

>  <r_lp_tautomer_probability>  (27) 
1

>  <r_epik_Ionization_Penalty>  (27) 
0.0270851

>  <r_epik_Ionization_Penalty_Charging>  (27) 
0.0270533

>  <r_epik_Ionization_Penalty_Neutral>  (27) 
3.18158e-05

>  <r_epik_State_Penalty>  (27) 
0.0220938

>  <r_epik_Charging_Adjusted_Penalty>  (27) 
0.0491472

>  <i_epik_Tot_Q>  (27) 
1

>  <i_epik_Tot_abs_Q>  (27) 
1

>  <s_lp_Force_Field>  (27) 
OPLS3e

>  <r_lp_Energy>  (27) 
65.0116

>  <b_lp_Chiralities_Consistent>  (27) 
1

>  <s_lp_Variant>  (27) 
7:0-1

>  <s_i_glide_gridfile>  (27) 
pfpi4k_grid

>  <i_i_glide_lignum>  (27) 
9

>  <i_i_glide_rotatable_bonds>  (27) 
4

>  <r_i_docking_score>  (27) 
-3.58456

>  <r_i_glide_ligand_efficiency>  (27) 
-0.119485

>  <r_i_glide_ligand_efficiency_sa>  (27) 
-0.371268

>  <r_i_glide_ligand_efficiency_ln>  (27) 
-0.81445

>  <r_i_glide_gscore>  (27) 
-3.58456

>  <r_i_glide_lipo>  (27) 
-0.109287

>  <r_i_glide_hbond>  (27) 
-0.216824

>  <r_i_glide_metal>  (27) 
-0

>  <r_i_glide_rewards>  (27) 
-0.671676

>  <r_i_glide_evdw>  (27) 
-26.4738

>  <r_i_glide_ecoul>  (27) 
-9.65532

>  <r_i_glide_erotb>  (27) 
0.486737

>  <r_i_glide_esite>  (27) 
-0.301517

>  <r_i_glide_emodel>  (27) 
-47.2777

>  <r_i_glide_energy>  (27) 
-36.1291

>  <r_i_glide_einternal>  (27) 
1.02738

>  <r_i_glide_intrahb_reward>  (27) 
-0

>  <i_i_glide_confnum>  (27) 
5

>  <i_i_glide_posenum>  (27) 
22

>  <r_i_glide_eff_state_penalty>  (27) 
0

>  <ligand_id>  (27) 
7

>  <original_smiles>  (27) 
c1cn(-c2ccnc3c2ccn3-c2cc[nH]c(=NC3CCC4(CC3)CNC4)n2)cn1

>  <smiles>  (27) 
[H]c1nc(N([H])C2([H])C([H])([H])C([H])([H])C3(C([H])([H])C2([H])[H])C([H])([H])[N+]([H])([H])C3([H])[H])nc(-n2c([H])c([H])c3c(-n4c([H])nc([H])c4[H])c([H])c([H])nc32)c1[H]

$$$$
7:1:0
     RDKit          3D

 56 61  0  0  1  0  0  0  0  0999 V2000
    1.0503  -11.4045    3.2946 C   0  0  0  0  0  0  0  0  0  0  0  0
    1.1636  -10.9345    4.5745 C   0  0  0  0  0  0  0  0  0  0  0  0
    0.6107   -9.6658    4.6058 N   0  0  0  0  0  0  0  0  0  0  0  0
    0.5276   -8.8246    5.7462 C   0  0  0  0  0  0  0  0  0  0  0  0
    0.5011   -9.4062    7.0325 C   0  0  0  0  0  0  0  0  0  0  0  0
    0.4493   -8.5905    8.1722 C   0  0  0  0  0  0  0  0  0  0  0  0
    0.3947   -7.2486    8.1226 N   0  0  0  0  0  0  0  0  0  0  0  0
    0.4041   -6.6926    6.8656 C   0  0  0  0  0  0  0  0  0  0  0  0
    0.4772   -7.4064    5.6305 C   0  0  0  0  0  0  0  0  0  0  0  0
    0.5015   -6.4294    4.5695 C   0  0  0  0  0  0  0  0  0  0  0  0
    0.4054   -5.2008    5.1644 C   0  0  0  0  0  0  0  0  0  0  0  0
    0.3449   -5.3325    6.5540 N   0  0  0  0  0  0  0  0  0  0  0  0
    0.2763   -4.2313    7.4556 C   0  0  0  0  0  0  0  0  0  0  0  0
   -0.3048   -4.3403    8.7394 C   0  0  0  0  0  0  0  0  0  0  0  0
   -0.3352   -3.1935    9.5433 C   0  0  0  0  0  0  0  0  0  0  0  0
    0.0576   -1.9933    9.0715 N   0  0  0  0  0  0  0  0  0  0  0  0
    0.5917   -1.9859    7.8534 C   0  0  0  0  0  0  0  0  0  0  0  0
    0.9237   -0.7373    7.3832 N   0  0  0  0  0  0  0  0  0  0  0  0
    1.4000   -0.4675    6.0371 C   0  0  0  0  0  0  0  0  0  0  0  0
    2.0150    0.9416    5.9192 C   0  0  0  0  0  0  0  0  0  0  0  0
    2.4421    1.2286    4.4716 C   0  0  0  0  0  0  0  0  0  0  0  0
    1.2811    1.0766    3.4797 C   0  0  0  0  0  0  0  0  0  0  0  0
    0.7204   -0.3369    3.6128 C   0  0  0  0  0  0  0  0  0  0  0  0
    0.2523   -0.6309    5.0292 C   0  0  0  0  0  0  0  0  0  0  0  0
    1.5452    1.5193    2.0508 C   0  0  0  0  0  0  0  0  0  0  0  0
    0.2247    2.1376    2.0529 N   0  0  0  0  0  0  0  0  0  0  0  0
    0.2379    2.2020    3.4933 C   0  0  0  0  0  0  0  0  0  0  0  0
    0.7362   -3.0331    7.0377 N   0  0  0  0  0  0  0  0  0  0  0  0
    0.1503   -9.3923    3.3720 C   0  0  0  0  0  0  0  0  0  0  0  0
    0.4359  -10.4171    2.5718 N   0  0  0  0  0  0  0  0  0  0  0  0
    1.3559  -12.3484    2.8695 H   0  0  0  0  0  0  0  0  0  0  0  0
    1.5915  -11.4266    5.4464 H   0  0  0  0  0  0  0  0  0  0  0  0
    0.5214  -10.4735    7.1617 H   0  0  0  0  0  0  0  0  0  0  0  0
    0.4333   -9.0306    9.1634 H   0  0  0  0  0  0  0  0  0  0  0  0
    0.6021   -6.6109    3.5086 H   0  0  0  0  0  0  0  0  0  0  0  0
    0.3925   -4.2223    4.7005 H   0  0  0  0  0  0  0  0  0  0  0  0
   -0.7196   -5.2509    9.1223 H   0  0  0  0  0  0  0  0  0  0  0  0
   -0.7659   -3.2232   10.5325 H   0  0  0  0  0  0  0  0  0  0  0  0
    2.1951   -1.1755    5.7850 H   0  0  0  0  0  0  0  0  0  0  0  0
    1.3080    1.7166    6.2241 H   0  0  0  0  0  0  0  0  0  0  0  0
    2.8830    1.0518    6.5694 H   0  0  0  0  0  0  0  0  0  0  0  0
    2.8216    2.2427    4.4470 H   0  0  0  0  0  0  0  0  0  0  0  0
    3.2868    0.6049    4.1769 H   0  0  0  0  0  0  0  0  0  0  0  0
   -0.1405   -0.4572    2.9666 H   0  0  0  0  0  0  0  0  0  0  0  0
    1.4521   -1.0765    3.2871 H   0  0  0  0  0  0  0  0  0  0  0  0
   -0.1598   -1.6373    5.0271 H   0  0  0  0  0  0  0  0  0  0  0  0
   -0.5670    0.0316    5.3075 H   0  0  0  0  0  0  0  0  0  0  0  0
    2.3342    2.2627    1.9493 H   0  0  0  0  0  0  0  0  0  0  0  0
    1.6331    0.7162    1.3133 H   0  0  0  0  0  0  0  0  0  0  0  0
    0.2151    3.0564    1.5934 H   0  0  0  0  0  0  0  0  0  0  0  0
   -0.7154    1.9488    3.9543 H   0  0  0  0  0  0  0  0  0  0  0  0
    0.6265    3.1478    3.8632 H   0  0  0  0  0  0  0  0  0  0  0  0
   -0.3715   -8.5066    3.0501 H   0  0  0  0  0  0  0  0  0  0  0  0
    0.7108    0.0290    7.9991 H   0  0  0  0  0  0  0  0  0  0  0  0
   -0.4697    1.4810    1.6998 H   0  0  0  0  0  0  0  0  0  0  0  0
    0.2195  -10.4457    1.5789 H   0  0  0  0  0  0  0  0  0  0  0  0
  1 30  1  0
  1  2  2  0
  1 31  1  0
  2  3  1  0
  2 32  1  0
  3  4  1  0
  3 29  1  0
  4  9  1  0
  4  5  2  0
  5  6  1  0
  5 33  1  0
  6  7  2  0
  6 34  1  0
  7  8  1  0
  8 12  1  0
  8  9  2  0
  9 10  1  0
 10 11  2  0
 10 35  1  0
 11 12  1  0
 11 36  1  0
 12 13  1  0
 13 28  1  0
 13 14  2  0
 14 15  1  0
 14 37  1  0
 15 16  2  0
 15 38  1  0
 16 17  1  0
 17 18  1  0
 17 28  2  0
 18 19  1  0
 18 54  1  0
 19 24  1  0
 19 20  1  0
 19 39  1  0
 20 21  1  0
 20 40  1  0
 20 41  1  0
 21 22  1  0
 21 42  1  0
 21 43  1  0
 22 27  1  0
 22 23  1  0
 22 25  1  0
 23 24  1  0
 23 44  1  0
 23 45  1  0
 24 46  1  0
 24 47  1  0
 25 26  1  0
 25 48  1  0
 25 49  1  0
 26 27  1  0
 26 50  1  0
 26 55  1  0
 27 51  1  0
 27 52  1  0
 29 30  2  0
 29 53  1  0
 30 56  1  0
M  CHG  2  26   1  30   1
M  END
>  <i_m_ct_stereo_status>  (28) 
1

>  <s_m_source_file>  (28) 
/var/tmp/pbs.5076255.sched01/tmpgqtxr8g4/0xtbcsf6k.sdf

>  <i_m_source_file_index>  (28) 
10

>  <i_lp_mmshare_version>  (28) 
48012

>  <i_f3d_flags>  (28) 
0

>  <s_epik_input>  (28) 
W2NIXTFuW2NIXVtjSF1uMS1jKFtjSF1bY0hdbjIpYyhjMjMpW2NIXVtjSF1uMy1jNFtjSF1bY0hdW25IXS9jKG40KT1OL1tDSF0oW0NIMl1bQ0gyXTUpW0NIMl1bQ0gyXUM1NltDSDJdW05IXVtDSDJdNg==

>  <s_epik_cmdline>  (28) 
J2VwaWtfcHl0aG9uJywgJy1waHQnLCAnMi4wJywgJy1waCcsICc3LjAnLCAnLXRuJywgJzgnLCAnLW1hJywgJzIwMCcsICctaW1hZScsICc8aW5maWxlLm1hZT4nLCAnLW9tYWUnLCAnPG91dGZpbGUubWFlPic=

>  <r_lp_tautomer_probability>  (28) 
1

>  <r_epik_Ionization_Penalty>  (28) 
1.84289

>  <r_epik_Ionization_Penalty_Charging>  (28) 
3.01648e-05

>  <r_epik_Ionization_Penalty_Neutral>  (28) 
1.84286

>  <r_epik_State_Penalty>  (28) 
1.95971

>  <r_epik_Charging_Adjusted_Penalty>  (28) 
1.95974

>  <i_epik_Tot_Q>  (28) 
2

>  <i_epik_Tot_abs_Q>  (28) 
2

>  <s_lp_Force_Field>  (28) 
OPLS3e

>  <r_lp_Energy>  (28) 
71.7884

>  <b_lp_Chiralities_Consistent>  (28) 
1

>  <s_lp_Variant>  (28) 
7:0-2

>  <s_i_glide_gridfile>  (28) 
pfpi4k_grid

>  <i_i_glide_lignum>  (28) 
10

>  <i_i_glide_rotatable_bonds>  (28) 
4

>  <r_i_docking_score>  (28) 
-4.72967

>  <r_i_glide_ligand_efficiency>  (28) 
-0.157656

>  <r_i_glide_ligand_efficiency_sa>  (28) 
-0.489873

>  <r_i_glide_ligand_efficiency_ln>  (28) 
-1.07463

>  <r_i_glide_gscore>  (28) 
-4.72967

>  <r_i_glide_lipo>  (28) 
-0.216821

>  <r_i_glide_hbond>  (28) 
-0.356343

>  <r_i_glide_metal>  (28) 
-0

>  <r_i_glide_rewards>  (28) 
-0.664804

>  <r_i_glide_evdw>  (28) 
-24.1129

>  <r_i_glide_ecoul>  (28) 
-16.8513

>  <r_i_glide_erotb>  (28) 
0.484544

>  <r_i_glide_esite>  (28) 
-0.242905

>  <r_i_glide_emodel>  (28) 
-59.1478

>  <r_i_glide_energy>  (28) 
-40.9642

>  <r_i_glide_einternal>  (28) 
1.20317

>  <r_i_glide_intrahb_reward>  (28) 
-0

>  <i_i_glide_confnum>  (28) 
5

>  <i_i_glide_posenum>  (28) 
2

>  <r_i_glide_eff_state_penalty>  (28) 
0

>  <ligand_id>  (28) 
7

>  <original_smiles>  (28) 
c1cn(-c2ccnc3c2ccn3-c2cc[nH]c(=NC3CCC4(CC3)CNC4)n2)cn1

>  <smiles>  (28) 
[H]c1nc(N([H])C2([H])C([H])([H])C([H])([H])C3(C([H])([H])C2([H])[H])C([H])([H])[N+]([H])([H])C3([H])[H])nc(-n2c([H])c([H])c3c(-n4c([H])c([H])[n+]([H])c4[H])c([H])c([H])nc32)c1[H]

$$$$
7:1:1
     RDKit          3D

 56 61  0  0  1  0  0  0  0  0999 V2000
   -0.0545    1.9731    3.3704 C   0  0  0  0  0  0  0  0  0  0  0  0
    0.3513    0.7538    3.8632 C   0  0  0  0  0  0  0  0  0  0  0  0
    1.0172    0.1101    2.8380 N   0  0  0  0  0  0  0  0  0  0  0  0
    1.5981   -1.1864    2.9395 C   0  0  0  0  0  0  0  0  0  0  0  0
    1.0060   -2.1509    3.7866 C   0  0  0  0  0  0  0  0  0  0  0  0
    1.5975   -3.4320    3.8944 C   0  0  0  0  0  0  0  0  0  0  0  0
    2.7058   -3.7982    3.2363 N   0  0  0  0  0  0  0  0  0  0  0  0
    3.2676   -2.8476    2.4140 C   0  0  0  0  0  0  0  0  0  0  0  0
    2.7781   -1.5172    2.2144 C   0  0  0  0  0  0  0  0  0  0  0  0
    3.6738   -0.8571    1.2995 C   0  0  0  0  0  0  0  0  0  0  0  0
    4.6286   -1.7672    0.9582 C   0  0  0  0  0  0  0  0  0  0  0  0
    4.4226   -2.9753    1.6285 N   0  0  0  0  0  0  0  0  0  0  0  0
    5.2529   -4.1361    1.5040 C   0  0  0  0  0  0  0  0  0  0  0  0
    6.5767   -4.0257    1.0096 C   0  0  0  0  0  0  0  0  0  0  0  0
    7.3189   -5.2147    0.8827 C   0  0  0  0  0  0  0  0  0  0  0  0
    6.7946   -6.4136    1.1935 N   0  0  0  0  0  0  0  0  0  0  0  0
    5.5516   -6.4166    1.6437 C   0  0  0  0  0  0  0  0  0  0  0  0
    4.9985   -7.6439    1.8784 N   0  0  0  0  0  0  0  0  0  0  0  0
    3.7266   -7.8509    2.5657 C   0  0  0  0  0  0  0  0  0  0  0  0
    3.8445   -7.7365    4.1040 C   0  0  0  0  0  0  0  0  0  0  0  0
    2.4829   -7.9782    4.7680 C   0  0  0  0  0  0  0  0  0  0  0  0
    1.8812   -9.3415    4.4018 C   0  0  0  0  0  0  0  0  0  0  0  0
    1.7737   -9.4175    2.8746 C   0  0  0  0  0  0  0  0  0  0  0  0
    3.1250   -9.2074    2.1810 C   0  0  0  0  0  0  0  0  0  0  0  0
    0.6240   -9.7615    5.1667 C   0  0  0  0  0  0  0  0  0  0  0  0
    1.1928  -11.0913    5.2751 N   0  0  0  0  0  0  0  0  0  0  0  0
    2.5222  -10.5554    5.0764 C   0  0  0  0  0  0  0  0  0  0  0  0
    4.7789   -5.3540    1.8197 N   0  0  0  0  0  0  0  0  0  0  0  0
    1.0008    0.8986    1.7577 C   0  0  0  0  0  0  0  0  0  0  0  0
    0.3883    2.0323    2.0833 N   0  0  0  0  0  0  0  0  0  0  0  0
   -0.6029    2.7697    3.8462 H   0  0  0  0  0  0  0  0  0  0  0  0
    0.2155    0.3259    4.8448 H   0  0  0  0  0  0  0  0  0  0  0  0
    0.1035   -1.9492    4.3497 H   0  0  0  0  0  0  0  0  0  0  0  0
    1.1575   -4.1905    4.5232 H   0  0  0  0  0  0  0  0  0  0  0  0
    3.6087    0.1530    0.9381 H   0  0  0  0  0  0  0  0  0  0  0  0
    5.4503   -1.6312    0.2739 H   0  0  0  0  0  0  0  0  0  0  0  0
    7.0221   -3.0880    0.7431 H   0  0  0  0  0  0  0  0  0  0  0  0
    8.3374   -5.1950    0.5065 H   0  0  0  0  0  0  0  0  0  0  0  0
    2.9990   -7.0979    2.2455 H   0  0  0  0  0  0  0  0  0  0  0  0
    4.5579   -8.4573    4.5085 H   0  0  0  0  0  0  0  0  0  0  0  0
    4.2093   -6.7529    4.3964 H   0  0  0  0  0  0  0  0  0  0  0  0
    2.6419   -7.9133    5.8386 H   0  0  0  0  0  0  0  0  0  0  0  0
    1.7900   -7.1719    4.5305 H   0  0  0  0  0  0  0  0  0  0  0  0
    1.4028  -10.3922    2.5679 H   0  0  0  0  0  0  0  0  0  0  0  0
    1.0452   -8.6946    2.5056 H   0  0  0  0  0  0  0  0  0  0  0  0
    2.9886   -9.2741    1.1005 H   0  0  0  0  0  0  0  0  0  0  0  0
    3.8096  -10.0138    2.4512 H   0  0  0  0  0  0  0  0  0  0  0  0
    0.5023   -9.2804    6.1379 H   0  0  0  0  0  0  0  0  0  0  0  0
   -0.2971   -9.7388    4.5790 H   0  0  0  0  0  0  0  0  0  0  0  0
    1.1223  -11.5041    6.2243 H   0  0  0  0  0  0  0  0  0  0  0  0
    3.1440  -11.1807    4.4344 H   0  0  0  0  0  0  0  0  0  0  0  0
    3.0195  -10.3263    6.0187 H   0  0  0  0  0  0  0  0  0  0  0  0
    1.3975    0.6537    0.7866 H   0  0  0  0  0  0  0  0  0  0  0  0
    5.5314   -8.4365    1.5590 H   0  0  0  0  0  0  0  0  0  0  0  0
    0.9147  -11.6943    4.5210 H   0  0  0  0  0  0  0  0  0  0  0  0
    0.2532    2.8413    1.4636 H   0  0  0  0  0  0  0  0  0  0  0  0
  1 30  1  0
  1  2  2  0
  1 31  1  0
  2  3  1  0
  2 32  1  0
  3  4  1  0
  3 29  1  0
  4  9  1  0
  4  5  2  0
  5  6  1  0
  5 33  1  0
  6  7  2  0
  6 34  1  0
  7  8  1  0
  8 12  1  0
  8  9  2  0
  9 10  1  0
 10 11  2  0
 10 35  1  0
 11 12  1  0
 11 36  1  0
 12 13  1  0
 13 28  1  0
 13 14  2  0
 14 15  1  0
 14 37  1  0
 15 16  2  0
 15 38  1  0
 16 17  1  0
 17 18  1  0
 17 28  2  0
 18 19  1  0
 18 54  1  0
 19 24  1  0
 19 20  1  0
 19 39  1  0
 20 21  1  0
 20 40  1  0
 20 41  1  0
 21 22  1  0
 21 42  1  0
 21 43  1  0
 22 27  1  0
 22 23  1  0
 22 25  1  0
 23 24  1  0
 23 44  1  0
 23 45  1  0
 24 46  1  0
 24 47  1  0
 25 26  1  0
 25 48  1  0
 25 49  1  0
 26 27  1  0
 26 50  1  0
 26 55  1  0
 27 51  1  0
 27 52  1  0
 29 30  2  0
 29 53  1  0
 30 56  1  0
M  CHG  2  26   1  30   1
M  END
>  <i_m_ct_stereo_status>  (29) 
1

>  <s_m_source_file>  (29) 
/var/tmp/pbs.5076255.sched01/tmpgqtxr8g4/0xtbcsf6k.sdf

>  <i_m_source_file_index>  (29) 
10

>  <i_lp_mmshare_version>  (29) 
48012

>  <i_f3d_flags>  (29) 
0

>  <s_epik_input>  (29) 
W2NIXTFuW2NIXVtjSF1uMS1jKFtjSF1bY0hdbjIpYyhjMjMpW2NIXVtjSF1uMy1jNFtjSF1bY0hdW25IXS9jKG40KT1OL1tDSF0oW0NIMl1bQ0gyXTUpW0NIMl1bQ0gyXUM1NltDSDJdW05IXVtDSDJdNg==

>  <s_epik_cmdline>  (29) 
J2VwaWtfcHl0aG9uJywgJy1waHQnLCAnMi4wJywgJy1waCcsICc3LjAnLCAnLXRuJywgJzgnLCAnLW1hJywgJzIwMCcsICctaW1hZScsICc8aW5maWxlLm1hZT4nLCAnLW9tYWUnLCAnPG91dGZpbGUubWFlPic=

>  <r_lp_tautomer_probability>  (29) 
1

>  <r_epik_Ionization_Penalty>  (29) 
1.84289

>  <r_epik_Ionization_Penalty_Charging>  (29) 
3.01648e-05

>  <r_epik_Ionization_Penalty_Neutral>  (29) 
1.84286

>  <r_epik_State_Penalty>  (29) 
1.95971

>  <r_epik_Charging_Adjusted_Penalty>  (29) 
1.95974

>  <i_epik_Tot_Q>  (29) 
2

>  <i_epik_Tot_abs_Q>  (29) 
2

>  <s_lp_Force_Field>  (29) 
OPLS3e

>  <r_lp_Energy>  (29) 
71.7884

>  <b_lp_Chiralities_Consistent>  (29) 
1

>  <s_lp_Variant>  (29) 
7:0-2

>  <s_i_glide_gridfile>  (29) 
pfpi4k_grid

>  <i_i_glide_lignum>  (29) 
10

>  <i_i_glide_rotatable_bonds>  (29) 
4

>  <r_i_docking_score>  (29) 
-4.43449

>  <r_i_glide_ligand_efficiency>  (29) 
-0.147816

>  <r_i_glide_ligand_efficiency_sa>  (29) 
-0.4593

>  <r_i_glide_ligand_efficiency_ln>  (29) 
-1.00756

>  <r_i_glide_gscore>  (29) 
-4.43449

>  <r_i_glide_lipo>  (29) 
-0.296983

>  <r_i_glide_hbond>  (29) 
-0.4

>  <r_i_glide_metal>  (29) 
-0

>  <r_i_glide_rewards>  (29) 
-0.834817

>  <r_i_glide_evdw>  (29) 
-27.1564

>  <r_i_glide_ecoul>  (29) 
-11.6405

>  <r_i_glide_erotb>  (29) 
0.484544

>  <r_i_glide_esite>  (29) 
-0.283339

>  <r_i_glide_emodel>  (29) 
-55.4805

>  <r_i_glide_energy>  (29) 
-38.7969

>  <r_i_glide_einternal>  (29) 
1.68732

>  <r_i_glide_intrahb_reward>  (29) 
-0

>  <i_i_glide_confnum>  (29) 
2

>  <i_i_glide_posenum>  (29) 
34

>  <r_i_glide_eff_state_penalty>  (29) 
0

>  <ligand_id>  (29) 
7

>  <original_smiles>  (29) 
c1cn(-c2ccnc3c2ccn3-c2cc[nH]c(=NC3CCC4(CC3)CNC4)n2)cn1

>  <smiles>  (29) 
[H]c1nc(N([H])C2([H])C([H])([H])C([H])([H])C3(C([H])([H])C2([H])[H])C([H])([H])[N+]([H])([H])C3([H])[H])nc(-n2c([H])c([H])c3c(-n4c([H])c([H])[n+]([H])c4[H])c([H])c([H])nc32)c1[H]

$$$$
7:1:2
     RDKit          3D

 56 61  0  0  1  0  0  0  0  0999 V2000
    1.4115    2.3447    2.4780 C   0  0  0  0  0  0  0  0  0  0  0  0
    2.5111    1.7194    3.0060 C   0  0  0  0  0  0  0  0  0  0  0  0
    2.4764    0.4079    2.5696 N   0  0  0  0  0  0  0  0  0  0  0  0
    3.4395   -0.5847    2.8912 C   0  0  0  0  0  0  0  0  0  0  0  0
    4.0776   -0.5494    4.1486 C   0  0  0  0  0  0  0  0  0  0  0  0
    5.0206   -1.5511    4.4736 C   0  0  0  0  0  0  0  0  0  0  0  0
    5.3819   -2.5520    3.6472 N   0  0  0  0  0  0  0  0  0  0  0  0
    4.7557   -2.5574    2.4304 C   0  0  0  0  0  0  0  0  0  0  0  0
    3.7740   -1.6236    1.9730 C   0  0  0  0  0  0  0  0  0  0  0  0
    3.3897   -2.0273    0.6473 C   0  0  0  0  0  0  0  0  0  0  0  0
    4.1114   -3.1484    0.3423 C   0  0  0  0  0  0  0  0  0  0  0  0
    4.9512   -3.4721    1.4018 N   0  0  0  0  0  0  0  0  0  0  0  0
    5.8240   -4.5833    1.4162 C   0  0  0  0  0  0  0  0  0  0  0  0
    7.1291   -4.4624    0.8906 C   0  0  0  0  0  0  0  0  0  0  0  0
    7.9165   -5.6310    0.8859 C   0  0  0  0  0  0  0  0  0  0  0  0
    7.4333   -6.8095    1.3200 N   0  0  0  0  0  0  0  0  0  0  0  0
    6.1929   -6.8154    1.7814 C   0  0  0  0  0  0  0  0  0  0  0  0
    5.7222   -8.0448    2.1567 N   0  0  0  0  0  0  0  0  0  0  0  0
    4.3487   -8.3075    2.5585 C   0  0  0  0  0  0  0  0  0  0  0  0
    4.1278   -8.1002    4.0696 C   0  0  0  0  0  0  0  0  0  0  0  0
    2.6712   -8.4011    4.4513 C   0  0  0  0  0  0  0  0  0  0  0  0
    2.2397   -9.8212    4.0608 C   0  0  0  0  0  0  0  0  0  0  0  0
    2.4716   -9.9889    2.5545 C   0  0  0  0  0  0  0  0  0  0  0  0
    3.9244   -9.7184    2.1462 C   0  0  0  0  0  0  0  0  0  0  0  0
    0.8727  -10.2880    4.5669 C   0  0  0  0  0  0  0  0  0  0  0  0
    1.4777  -11.5603    4.9252 N   0  0  0  0  0  0  0  0  0  0  0  0
    2.7920  -10.9466    4.9356 C   0  0  0  0  0  0  0  0  0  0  0  0
    5.3688   -5.7710    1.8587 N   0  0  0  0  0  0  0  0  0  0  0  0
    1.3887    0.2415    1.8116 C   0  0  0  0  0  0  0  0  0  0  0  0
    0.7469    1.4020    1.7473 N   0  0  0  0  0  0  0  0  0  0  0  0
    1.0699    3.3666    2.5476 H   0  0  0  0  0  0  0  0  0  0  0  0
    3.3007    2.1212    3.6274 H   0  0  0  0  0  0  0  0  0  0  0  0
    3.8609    0.2171    4.8852 H   0  0  0  0  0  0  0  0  0  0  0  0
    5.5277   -1.5261    5.4258 H   0  0  0  0  0  0  0  0  0  0  0  0
    2.6602   -1.5417    0.0197 H   0  0  0  0  0  0  0  0  0  0  0  0
    4.0952   -3.7521   -0.5529 H   0  0  0  0  0  0  0  0  0  0  0  0
    7.5062   -3.5273    0.5127 H   0  0  0  0  0  0  0  0  0  0  0  0
    8.9328   -5.6285    0.5081 H   0  0  0  0  0  0  0  0  0  0  0  0
    3.6819   -7.6268    2.0241 H   0  0  0  0  0  0  0  0  0  0  0  0
    4.7864   -8.7497    4.6491 H   0  0  0  0  0  0  0  0  0  0  0  0
    4.3773   -7.0796    4.3549 H   0  0  0  0  0  0  0  0  0  0  0  0
    2.5843   -8.2678    5.5256 H   0  0  0  0  0  0  0  0  0  0  0  0
    2.0035   -7.6615    4.0117 H   0  0  0  0  0  0  0  0  0  0  0  0
    2.2441  -11.0102    2.2653 H   0  0  0  0  0  0  0  0  0  0  0  0
    1.7963   -9.3514    1.9813 H   0  0  0  0  0  0  0  0  0  0  0  0
    4.0261   -9.8460    1.0670 H   0  0  0  0  0  0  0  0  0  0  0  0
    4.5800  -10.4643    2.6001 H   0  0  0  0  0  0  0  0  0  0  0  0
    0.5163   -9.7502    5.4462 H   0  0  0  0  0  0  0  0  0  0  0  0
    0.0996  -10.3665    3.7993 H   0  0  0  0  0  0  0  0  0  0  0  0
    1.2359  -11.8884    5.8662 H   0  0  0  0  0  0  0  0  0  0  0  0
    3.5696  -11.5554    4.4729 H   0  0  0  0  0  0  0  0  0  0  0  0
    3.0759  -10.6229    5.9375 H   0  0  0  0  0  0  0  0  0  0  0  0
    1.0729   -0.6548    1.3073 H   0  0  0  0  0  0  0  0  0  0  0  0
    6.3486   -8.8194    2.0067 H   0  0  0  0  0  0  0  0  0  0  0  0
    1.4058  -12.2521    4.1925 H   0  0  0  0  0  0  0  0  0  0  0  0
   -0.0776    1.5784    1.1892 H   0  0  0  0  0  0  0  0  0  0  0  0
  1 30  1  0
  1  2  2  0
  1 31  1  0
  2  3  1  0
  2 32  1  0
  3  4  1  0
  3 29  1  0
  4  9  1  0
  4  5  2  0
  5  6  1  0
  5 33  1  0
  6  7  2  0
  6 34  1  0
  7  8  1  0
  8 12  1  0
  8  9  2  0
  9 10  1  0
 10 11  2  0
 10 35  1  0
 11 12  1  0
 11 36  1  0
 12 13  1  0
 13 28  1  0
 13 14  2  0
 14 15  1  0
 14 37  1  0
 15 16  2  0
 15 38  1  0
 16 17  1  0
 17 18  1  0
 17 28  2  0
 18 19  1  0
 18 54  1  0
 19 24  1  0
 19 20  1  0
 19 39  1  0
 20 21  1  0
 20 40  1  0
 20 41  1  0
 21 22  1  0
 21 42  1  0
 21 43  1  0
 22 27  1  0
 22 23  1  0
 22 25  1  0
 23 24  1  0
 23 44  1  0
 23 45  1  0
 24 46  1  0
 24 47  1  0
 25 26  1  0
 25 48  1  0
 25 49  1  0
 26 27  1  0
 26 50  1  0
 26 55  1  0
 27 51  1  0
 27 52  1  0
 29 30  2  0
 29 53  1  0
 30 56  1  0
M  CHG  2  26   1  30   1
M  END
>  <i_m_ct_stereo_status>  (30) 
1

>  <s_m_source_file>  (30) 
/var/tmp/pbs.5076255.sched01/tmpgqtxr8g4/0xtbcsf6k.sdf

>  <i_m_source_file_index>  (30) 
10

>  <i_lp_mmshare_version>  (30) 
48012

>  <i_f3d_flags>  (30) 
0

>  <s_epik_input>  (30) 
W2NIXTFuW2NIXVtjSF1uMS1jKFtjSF1bY0hdbjIpYyhjMjMpW2NIXVtjSF1uMy1jNFtjSF1bY0hdW25IXS9jKG40KT1OL1tDSF0oW0NIMl1bQ0gyXTUpW0NIMl1bQ0gyXUM1NltDSDJdW05IXVtDSDJdNg==

>  <s_epik_cmdline>  (30) 
J2VwaWtfcHl0aG9uJywgJy1waHQnLCAnMi4wJywgJy1waCcsICc3LjAnLCAnLXRuJywgJzgnLCAnLW1hJywgJzIwMCcsICctaW1hZScsICc8aW5maWxlLm1hZT4nLCAnLW9tYWUnLCAnPG91dGZpbGUubWFlPic=

>  <r_lp_tautomer_probability>  (30) 
1

>  <r_epik_Ionization_Penalty>  (30) 
1.84289

>  <r_epik_Ionization_Penalty_Charging>  (30) 
3.01648e-05

>  <r_epik_Ionization_Penalty_Neutral>  (30) 
1.84286

>  <r_epik_State_Penalty>  (30) 
1.95971

>  <r_epik_Charging_Adjusted_Penalty>  (30) 
1.95974

>  <i_epik_Tot_Q>  (30) 
2

>  <i_epik_Tot_abs_Q>  (30) 
2

>  <s_lp_Force_Field>  (30) 
OPLS3e

>  <r_lp_Energy>  (30) 
71.7884

>  <b_lp_Chiralities_Consistent>  (30) 
1

>  <s_lp_Variant>  (30) 
7:0-2

>  <s_i_glide_gridfile>  (30) 
pfpi4k_grid

>  <i_i_glide_lignum>  (30) 
10

>  <i_i_glide_rotatable_bonds>  (30) 
4

>  <r_i_docking_score>  (30) 
-4.29403

>  <r_i_glide_ligand_efficiency>  (30) 
-0.143134

>  <r_i_glide_ligand_efficiency_sa>  (30) 
-0.444752

>  <r_i_glide_ligand_efficiency_ln>  (30) 
-0.975651

>  <r_i_glide_gscore>  (30) 
-4.29403

>  <r_i_glide_lipo>  (30) 
-0.261124

>  <r_i_glide_hbond>  (30) 
-0.2

>  <r_i_glide_metal>  (30) 
-0

>  <r_i_glide_rewards>  (30) 
-0.947658

>  <r_i_glide_evdw>  (30) 
-25.9973

>  <r_i_glide_ecoul>  (30) 
-12.396

>  <r_i_glide_erotb>  (30) 
0.484544

>  <r_i_glide_esite>  (30) 
-0.210537

>  <r_i_glide_emodel>  (30) 
-54.4803

>  <r_i_glide_energy>  (30) 
-38.3933

>  <r_i_glide_einternal>  (30) 
2.04996

>  <r_i_glide_intrahb_reward>  (30) 
-0

>  <i_i_glide_confnum>  (30) 
2

>  <i_i_glide_posenum>  (30) 
1

>  <r_i_glide_eff_state_penalty>  (30) 
0

>  <ligand_id>  (30) 
7

>  <original_smiles>  (30) 
c1cn(-c2ccnc3c2ccn3-c2cc[nH]c(=NC3CCC4(CC3)CNC4)n2)cn1

>  <smiles>  (30) 
[H]c1nc(N([H])C2([H])C([H])([H])C([H])([H])C3(C([H])([H])C2([H])[H])C([H])([H])[N+]([H])([H])C3([H])[H])nc(-n2c([H])c([H])c3c(-n4c([H])c([H])[n+]([H])c4[H])c([H])c([H])nc32)c1[H]

$$$$
8:0:0
     RDKit          3D

 62 67  0  0  1  0  0  0  0  0999 V2000
    1.7697   -7.8284    2.3473 C   0  0  0  0  0  0  0  0  0  0  0  0
    3.2869   -7.8477    2.5597 C   0  0  2  0  0  0  0  0  0  0  0  0
    3.7472   -6.6369    3.3608 C   0  0  0  0  0  0  0  0  0  0  0  0
    4.6279   -5.6847    2.9760 C   0  0  0  0  0  0  0  0  0  0  0  0
    4.9619   -4.5685    3.9561 C   0  0  0  0  0  0  0  0  0  0  0  0
    3.8470   -3.4856    4.0846 C   0  0  0  0  0  0  0  0  0  0  0  0
    4.0579   -2.0945    3.3910 C   0  0  2  0  0  0  0  0  0  0  0  0
    4.4391   -1.1279    4.5556 C   0  0  0  0  0  0  0  0  0  0  0  0
    2.7669   -1.5729    2.6616 C   0  0  2  0  0  0  0  0  0  0  0  0
    2.2715   -2.4744    1.6750 O   0  0  0  0  0  0  0  0  0  0  0  0
    3.1466   -3.4582    1.1424 C   0  0  0  0  0  0  0  0  0  0  0  0
    4.6715   -3.0826    1.0899 C   0  0  1  0  0  0  0  0  0  0  0  0
    4.9652   -2.3623   -0.2256 C   0  0  2  0  0  0  0  0  0  0  0  0
    4.0986   -1.0893   -0.3632 C   0  0  0  0  0  0  0  0  0  0  0  0
    4.2065   -0.2298    0.9330 C   0  0  2  0  0  0  0  0  0  0  0  0
    5.4138   -0.6777    1.7691 C   0  0  0  0  0  0  0  0  0  0  0  0
    5.1346   -2.1317    2.2699 C   0  0  1  0  0  0  0  0  0  0  0  0
    2.9908   -0.2357    1.8923 C   0  0  1  0  0  0  0  0  0  0  0  0
    1.8102    0.2469    1.2985 O   0  0  0  0  0  0  0  0  0  0  0  0
    4.9685   -3.4624   -1.2750 C   0  0  1  0  0  0  0  0  0  0  0  0
    5.7974   -3.1318   -2.5231 C   0  0  0  0  0  0  0  0  0  0  0  0
    5.5979   -4.5227   -0.5566 O   0  0  0  0  0  0  0  0  0  0  0  0
    5.5688   -4.3326    0.8710 C   0  0  2  0  0  0  0  0  0  0  0  0
    5.3090   -5.7223    1.5811 C   0  0  1  0  0  0  0  0  0  0  0  0
    6.6809   -6.4223    1.7848 C   0  0  0  0  0  0  0  0  0  0  0  0
    4.4660   -6.6076    0.6134 C   0  0  0  0  0  0  0  0  0  0  0  0
    4.0323   -7.9294    1.2317 C   0  0  0  0  0  0  0  0  0  0  0  0
    4.2342   -8.9970    0.6584 O   0  0  0  0  0  0  0  0  0  0  0  0
    1.4567   -6.9377    1.8039 H   0  0  0  0  0  0  0  0  0  0  0  0
    1.2461   -7.8357    3.3019 H   0  0  0  0  0  0  0  0  0  0  0  0
    1.4293   -8.6986    1.7841 H   0  0  0  0  0  0  0  0  0  0  0  0
    3.5476   -8.7394    3.1310 H   0  0  0  0  0  0  0  0  0  0  0  0
    3.3057   -6.5741    4.3444 H   0  0  0  0  0  0  0  0  0  0  0  0
    5.0331   -5.0579    4.9275 H   0  0  0  0  0  0  0  0  0  0  0  0
    5.9651   -4.1875    3.8017 H   0  0  0  0  0  0  0  0  0  0  0  0
    2.8844   -3.9111    3.8047 H   0  0  0  0  0  0  0  0  0  0  0  0
    3.7043   -3.3326    5.1541 H   0  0  0  0  0  0  0  0  0  0  0  0
    4.4593   -0.0749    4.2845 H   0  0  0  0  0  0  0  0  0  0  0  0
    5.4192   -1.3724    4.9709 H   0  0  0  0  0  0  0  0  0  0  0  0
    3.7135   -1.1747    5.3704 H   0  0  0  0  0  0  0  0  0  0  0  0
    1.9738   -1.4321    3.3998 H   0  0  0  0  0  0  0  0  0  0  0  0
    2.9598   -4.3550    1.7163 H   0  0  0  0  0  0  0  0  0  0  0  0
    2.7511   -3.7216    0.1642 H   0  0  0  0  0  0  0  0  0  0  0  0
    6.0106   -2.0533   -0.2361 H   0  0  0  0  0  0  0  0  0  0  0  0
    4.4376   -0.4994   -1.2148 H   0  0  0  0  0  0  0  0  0  0  0  0
    3.0585   -1.3484   -0.5697 H   0  0  0  0  0  0  0  0  0  0  0  0
    4.3544    0.8026    0.6216 H   0  0  0  0  0  0  0  0  0  0  0  0
    6.3343   -0.6187    1.1918 H   0  0  0  0  0  0  0  0  0  0  0  0
    5.6175    0.0223    2.5738 H   0  0  0  0  0  0  0  0  0  0  0  0
    6.0915   -2.4605    2.6749 H   0  0  0  0  0  0  0  0  0  0  0  0
    3.1976    0.5301    2.6382 H   0  0  0  0  0  0  0  0  0  0  0  0
    1.5252   -0.3433    0.5929 H   0  0  0  0  0  0  0  0  0  0  0  0
    3.9634   -3.7650   -1.5707 H   0  0  0  0  0  0  0  0  0  0  0  0
    5.3567   -2.3180   -3.0994 H   0  0  0  0  0  0  0  0  0  0  0  0
    5.8414   -4.0076   -3.1695 H   0  0  0  0  0  0  0  0  0  0  0  0
    6.8256   -2.8608   -2.2692 H   0  0  0  0  0  0  0  0  0  0  0  0
    6.5845   -4.0264    1.1225 H   0  0  0  0  0  0  0  0  0  0  0  0
    7.2042   -6.5888    0.8397 H   0  0  0  0  0  0  0  0  0  0  0  0
    6.5624   -7.4011    2.2554 H   0  0  0  0  0  0  0  0  0  0  0  0
    7.3394   -5.8481    2.4388 H   0  0  0  0  0  0  0  0  0  0  0  0
    3.5687   -6.0799    0.2967 H   0  0  0  0  0  0  0  0  0  0  0  0
    5.0180   -6.8275   -0.2996 H   0  0  0  0  0  0  0  0  0  0  0  0
  1  2  1  0
  1 29  1  0
  1 30  1  0
  1 31  1  0
  2 27  1  0
  2  3  1  0
  2 32  1  1
  3  4  2  0
  3 33  1  0
  4 24  1  0
  4  5  1  0
  5  6  1  0
  5 34  1  0
  5 35  1  0
  6  7  1  0
  6 36  1  0
  6 37  1  0
  7 17  1  0
  7  8  1  1
  7  9  1  0
  8 38  1  0
  8 39  1  0
  8 40  1  0
  9 18  1  0
  9 10  1  0
  9 41  1  1
 10 11  1  0
 12 11  1  1
 11 42  1  0
 11 43  1  0
 12 17  1  0
 12 23  1  0
 12 13  1  0
 13 14  1  0
 13 20  1  0
 13 44  1  1
 14 15  1  0
 14 45  1  0
 14 46  1  0
 15 16  1  0
 15 18  1  0
 15 47  1  6
 16 17  1  0
 16 48  1  0
 16 49  1  0
 17 50  1  1
 18 19  1  0
 18 51  1  1
 19 52  1  0
 20 21  1  0
 20 22  1  0
 20 53  1  6
 21 54  1  0
 21 55  1  0
 21 56  1  0
 22 23  1  0
 23 24  1  0
 23 57  1  1
 24 25  1  1
 24 26  1  0
 25 58  1  0
 25 59  1  0
 25 60  1  0
 26 27  1  0
 26 61  1  0
 26 62  1  0
 27 28  2  0
M  END
>  <i_m_ct_stereo_status>  (31) 
1

>  <s_m_source_file>  (31) 
/var/tmp/pbs.5076255.sched01/tmpgqtxr8g4/0xtbcsf6k.sdf

>  <i_m_source_file_index>  (31) 
11

>  <i_lp_mmshare_version>  (31) 
48012

>  <i_f3d_flags>  (31) 
0

>  <s_epik_input>  (31) 
W0NIM11bQ0BIXShbQ0hdPTEpQyg9TylbQ0gyXVtDQEBdKFtDSDNdKShbQ0BIXTJPW0NAQEhdM1tDSDNdKUMxW0NIMl1bQ0gyXVtDQF0oW0NIM10pKFtDQEhdKE9bQ0gyXTQpW0NAQEhdNVtPSF0pW0NAQEhdNltDSDJdW0NASF01W0NIMl1bQ0BIXTNbQ0BdMjQ2

>  <s_epik_cmdline>  (31) 
J2VwaWtfcHl0aG9uJywgJy1waHQnLCAnMi4wJywgJy1waCcsICc3LjAnLCAnLXRuJywgJzgnLCAnLW1hJywgJzIwMCcsICctaW1hZScsICc8aW5maWxlLm1hZT4nLCAnLW9tYWUnLCAnPG91dGZpbGUubWFlPic=

>  <r_lp_tautomer_probability>  (31) 
1

>  <r_epik_Ionization_Penalty>  (31) 
1.68869e-07

>  <r_epik_Ionization_Penalty_Charging>  (31) 
0

>  <r_epik_Ionization_Penalty_Neutral>  (31) 
1.68869e-07

>  <r_epik_State_Penalty>  (31) 
-0

>  <r_epik_Charging_Adjusted_Penalty>  (31) 
0

>  <i_epik_Tot_Q>  (31) 
0

>  <i_epik_Tot_abs_Q>  (31) 
0

>  <s_lp_Force_Field>  (31) 
OPLS3e

>  <r_lp_Energy>  (31) 
78.8443

>  <b_lp_Chiralities_Consistent>  (31) 
1

>  <s_lp_Variant>  (31) 
8:0-1

>  <s_i_glide_gridfile>  (31) 
pfpi4k_grid

>  <i_i_glide_lignum>  (31) 
11

>  <i_i_glide_rotatable_bonds>  (31) 
1

>  <r_i_docking_score>  (31) 
-3.60228

>  <r_i_glide_ligand_efficiency>  (31) 
-0.128653

>  <r_i_glide_ligand_efficiency_sa>  (31) 
-0.390666

>  <r_i_glide_ligand_efficiency_ln>  (31) 
-0.831513

>  <r_i_glide_gscore>  (31) 
-3.60228

>  <r_i_glide_lipo>  (31) 
-0.926963

>  <r_i_glide_hbond>  (31) 
0

>  <r_i_glide_metal>  (31) 
-0

>  <r_i_glide_rewards>  (31) 
-0.785235

>  <r_i_glide_evdw>  (31) 
-28.9792

>  <r_i_glide_ecoul>  (31) 
-2.94083

>  <r_i_glide_erotb>  (31) 
0

>  <r_i_glide_esite>  (31) 
0

>  <r_i_glide_emodel>  (31) 
-39.4122

>  <r_i_glide_energy>  (31) 
-31.92

>  <r_i_glide_einternal>  (31) 
0.00498994

>  <r_i_glide_intrahb_reward>  (31) 
-0

>  <i_i_glide_confnum>  (31) 
1

>  <i_i_glide_posenum>  (31) 
14

>  <r_i_glide_eff_state_penalty>  (31) 
0

>  <ligand_id>  (31) 
8

>  <original_smiles>  (31) 
CC1C=C2CCC3(C)C4OCC56C(CC(CC35)C4O)C(C)OC6C2(C)CC1=O

>  <smiles>  (31) 
[H]OC1([H])C2([H])OC([H])([H])C34C5([H])OC([H])(C([H])([H])[H])C3([H])C([H])([H])C1([H])C([H])([H])C4([H])C2(C([H])([H])[H])C([H])([H])C([H])([H])C1=C([H])C([H])(C([H])([H])[H])C(=O)C([H])([H])C15C([H])([H])[H]

$$$$
8:0:1
     RDKit          3D

 62 67  0  0  1  0  0  0  0  0999 V2000
    3.6244   -3.3761   -3.7076 C   0  0  0  0  0  0  0  0  0  0  0  0
    4.6682   -2.5723   -2.9297 C   0  0  2  0  0  0  0  0  0  0  0  0
    5.3917   -3.4235   -1.9045 C   0  0  0  0  0  0  0  0  0  0  0  0
    5.4571   -3.2333   -0.5661 C   0  0  0  0  0  0  0  0  0  0  0  0
    6.2604   -4.2082    0.2788 C   0  0  0  0  0  0  0  0  0  0  0  0
    5.5473   -5.5751    0.4959 C   0  0  0  0  0  0  0  0  0  0  0  0
    4.9004   -5.8878    1.8902 C   0  0  2  0  0  0  0  0  0  0  0  0
    5.9062   -6.8558    2.5861 C   0  0  0  0  0  0  0  0  0  0  0  0
    3.4878   -6.5706    1.7700 C   0  0  2  0  0  0  0  0  0  0  0  0
    2.5422   -5.8003    1.0272 O   0  0  0  0  0  0  0  0  0  0  0  0
    2.7914   -4.4142    0.8386 C   0  0  0  0  0  0  0  0  0  0  0  0
    3.5659   -3.6851    1.9956 C   0  0  1  0  0  0  0  0  0  0  0  0
    2.5734   -3.2034    3.0531 C   0  0  2  0  0  0  0  0  0  0  0  0
    1.7629   -4.3972    3.6227 C   0  0  0  0  0  0  0  0  0  0  0  0
    2.7288   -5.5436    4.0675 C   0  0  2  0  0  0  0  0  0  0  0  0
    4.1673   -5.0106    4.1649 C   0  0  0  0  0  0  0  0  0  0  0  0
    4.6331   -4.6050    2.7260 C   0  0  1  0  0  0  0  0  0  0  0  0
    2.7963   -6.7964    3.1526 C   0  0  1  0  0  0  0  0  0  0  0  0
    1.5371   -7.4289    3.0197 O   0  0  0  0  0  0  0  0  0  0  0  0
    1.9170   -1.9768    2.4366 C   0  0  1  0  0  0  0  0  0  0  0  0
    1.3414   -0.9798    3.4506 C   0  0  0  0  0  0  0  0  0  0  0  0
    3.0256   -1.3755    1.7693 O   0  0  0  0  0  0  0  0  0  0  0  0
    4.1071   -2.2989    1.5428 C   0  0  2  0  0  0  0  0  0  0  0  0
    4.7381   -2.0409    0.1154 C   0  0  1  0  0  0  0  0  0  0  0  0
    5.7896   -0.9197    0.2704 C   0  0  0  0  0  0  0  0  0  0  0  0
    3.6151   -1.5085   -0.8221 C   0  0  0  0  0  0  0  0  0  0  0  0
    4.0401   -1.3462   -2.2822 C   0  0  0  0  0  0  0  0  0  0  0  0
    3.8819   -0.3061   -2.9144 O   0  0  0  0  0  0  0  0  0  0  0  0
    2.8668   -3.7838   -3.0377 H   0  0  0  0  0  0  0  0  0  0  0  0
    4.0881   -4.2120   -4.2296 H   0  0  0  0  0  0  0  0  0  0  0  0
    3.1075   -2.7667   -4.4480 H   0  0  0  0  0  0  0  0  0  0  0  0
    5.4138   -2.2065   -3.6323 H   0  0  0  0  0  0  0  0  0  0  0  0
    5.9076   -4.2577   -2.3395 H   0  0  0  0  0  0  0  0  0  0  0  0
    7.1552   -4.4127   -0.3105 H   0  0  0  0  0  0  0  0  0  0  0  0
    6.6637   -3.7441    1.1764 H   0  0  0  0  0  0  0  0  0  0  0  0
    4.8418   -5.7677   -0.3120 H   0  0  0  0  0  0  0  0  0  0  0  0
    6.3084   -6.3235    0.2921 H   0  0  0  0  0  0  0  0  0  0  0  0
    5.5408   -7.3091    3.5045 H   0  0  0  0  0  0  0  0  0  0  0  0
    6.8431   -6.3489    2.8277 H   0  0  0  0  0  0  0  0  0  0  0  0
    6.1506   -7.7087    1.9482 H   0  0  0  0  0  0  0  0  0  0  0  0
    3.5984   -7.5329    1.2642 H   0  0  0  0  0  0  0  0  0  0  0  0
    3.2851   -4.3307   -0.1191 H   0  0  0  0  0  0  0  0  0  0  0  0
    1.8240   -3.9582    0.6413 H   0  0  0  0  0  0  0  0  0  0  0  0
    3.1220   -2.7558    3.8819 H   0  0  0  0  0  0  0  0  0  0  0  0
    1.1834   -4.0672    4.4841 H   0  0  0  0  0  0  0  0  0  0  0  0
    1.0359   -4.7628    2.8967 H   0  0  0  0  0  0  0  0  0  0  0  0
    2.4089   -5.8765    5.0554 H   0  0  0  0  0  0  0  0  0  0  0  0
    4.2277   -4.1739    4.8587 H   0  0  0  0  0  0  0  0  0  0  0  0
    4.8209   -5.7343    4.6415 H   0  0  0  0  0  0  0  0  0  0  0  0
    5.5640   -4.0635    2.8926 H   0  0  0  0  0  0  0  0  0  0  0  0
    3.3819   -7.5340    3.6982 H   0  0  0  0  0  0  0  0  0  0  0  0
    1.6618   -8.2693    2.6056 H   0  0  0  0  0  0  0  0  0  0  0  0
    1.1527   -2.2351    1.7064 H   0  0  0  0  0  0  0  0  0  0  0  0
    0.4948   -1.4081    3.9910 H   0  0  0  0  0  0  0  0  0  0  0  0
    0.9937   -0.0838    2.9357 H   0  0  0  0  0  0  0  0  0  0  0  0
    2.0941   -0.6716    4.1802 H   0  0  0  0  0  0  0  0  0  0  0  0
    4.8496   -2.0079    2.2877 H   0  0  0  0  0  0  0  0  0  0  0  0
    5.3555    0.0051    0.6612 H   0  0  0  0  0  0  0  0  0  0  0  0
    6.2088   -0.6783   -0.7038 H   0  0  0  0  0  0  0  0  0  0  0  0
    6.6149   -1.2086    0.9259 H   0  0  0  0  0  0  0  0  0  0  0  0
    2.7606   -2.1839   -0.8056 H   0  0  0  0  0  0  0  0  0  0  0  0
    3.2471   -0.5556   -0.4446 H   0  0  0  0  0  0  0  0  0  0  0  0
  1  2  1  0
  1 29  1  0
  1 30  1  0
  1 31  1  0
  2 27  1  0
  2  3  1  0
  2 32  1  6
  3  4  2  0
  3 33  1  0
  4 24  1  0
  4  5  1  0
  5  6  1  0
  5 34  1  0
  5 35  1  0
  6  7  1  0
  6 36  1  0
  6 37  1  0
  7 17  1  0
  7  8  1  1
  7  9  1  0
  8 38  1  0
  8 39  1  0
  8 40  1  0
  9 18  1  0
  9 10  1  0
  9 41  1  6
 10 11  1  0
 12 11  1  6
 11 42  1  0
 11 43  1  0
 12 17  1  0
 12 23  1  0
 12 13  1  0
 13 14  1  0
 13 20  1  0
 13 44  1  1
 14 15  1  0
 14 45  1  0
 14 46  1  0
 15 16  1  0
 15 18  1  0
 15 47  1  1
 16 17  1  0
 16 48  1  0
 16 49  1  0
 17 50  1  1
 18 19  1  0
 18 51  1  1
 19 52  1  0
 20 21  1  0
 20 22  1  0
 20 53  1  6
 21 54  1  0
 21 55  1  0
 21 56  1  0
 22 23  1  0
 23 24  1  0
 23 57  1  1
 24 25  1  1
 24 26  1  0
 25 58  1  0
 25 59  1  0
 25 60  1  0
 26 27  1  0
 26 61  1  0
 26 62  1  0
 27 28  2  0
M  END
>  <i_m_ct_stereo_status>  (32) 
1

>  <s_m_source_file>  (32) 
/var/tmp/pbs.5076255.sched01/tmpgqtxr8g4/0xtbcsf6k.sdf

>  <i_m_source_file_index>  (32) 
11

>  <i_lp_mmshare_version>  (32) 
48012

>  <i_f3d_flags>  (32) 
0

>  <s_epik_input>  (32) 
W0NIM11bQ0BIXShbQ0hdPTEpQyg9TylbQ0gyXVtDQEBdKFtDSDNdKShbQ0BIXTJPW0NAQEhdM1tDSDNdKUMxW0NIMl1bQ0gyXVtDQF0oW0NIM10pKFtDQEhdKE9bQ0gyXTQpW0NAQEhdNVtPSF0pW0NAQEhdNltDSDJdW0NASF01W0NIMl1bQ0BIXTNbQ0BdMjQ2

>  <s_epik_cmdline>  (32) 
J2VwaWtfcHl0aG9uJywgJy1waHQnLCAnMi4wJywgJy1waCcsICc3LjAnLCAnLXRuJywgJzgnLCAnLW1hJywgJzIwMCcsICctaW1hZScsICc8aW5maWxlLm1hZT4nLCAnLW9tYWUnLCAnPG91dGZpbGUubWFlPic=

>  <r_lp_tautomer_probability>  (32) 
1

>  <r_epik_Ionization_Penalty>  (32) 
1.68869e-07

>  <r_epik_Ionization_Penalty_Charging>  (32) 
0

>  <r_epik_Ionization_Penalty_Neutral>  (32) 
1.68869e-07

>  <r_epik_State_Penalty>  (32) 
-0

>  <r_epik_Charging_Adjusted_Penalty>  (32) 
0

>  <i_epik_Tot_Q>  (32) 
0

>  <i_epik_Tot_abs_Q>  (32) 
0

>  <s_lp_Force_Field>  (32) 
OPLS3e

>  <r_lp_Energy>  (32) 
78.8443

>  <b_lp_Chiralities_Consistent>  (32) 
1

>  <s_lp_Variant>  (32) 
8:0-1

>  <s_i_glide_gridfile>  (32) 
pfpi4k_grid

>  <i_i_glide_lignum>  (32) 
11

>  <i_i_glide_rotatable_bonds>  (32) 
1

>  <r_i_docking_score>  (32) 
-3.34053

>  <r_i_glide_ligand_efficiency>  (32) 
-0.119304

>  <r_i_glide_ligand_efficiency_sa>  (32) 
-0.362279

>  <r_i_glide_ligand_efficiency_ln>  (32) 
-0.771091

>  <r_i_glide_gscore>  (32) 
-3.34053

>  <r_i_glide_lipo>  (32) 
-0.860911

>  <r_i_glide_hbond>  (32) 
0

>  <r_i_glide_metal>  (32) 
-0

>  <r_i_glide_rewards>  (32) 
-0.773698

>  <r_i_glide_evdw>  (32) 
-30.4624

>  <r_i_glide_ecoul>  (32) 
-0.904734

>  <r_i_glide_erotb>  (32) 
0

>  <r_i_glide_esite>  (32) 
-0.0470865

>  <r_i_glide_emodel>  (32) 
-38.1229

>  <r_i_glide_energy>  (32) 
-31.3671

>  <r_i_glide_einternal>  (32) 
0.367053

>  <r_i_glide_intrahb_reward>  (32) 
-0

>  <i_i_glide_confnum>  (32) 
2

>  <i_i_glide_posenum>  (32) 
32

>  <r_i_glide_eff_state_penalty>  (32) 
0

>  <ligand_id>  (32) 
8

>  <original_smiles>  (32) 
CC1C=C2CCC3(C)C4OCC56C(CC(CC35)C4O)C(C)OC6C2(C)CC1=O

>  <smiles>  (32) 
[H]OC1([H])C2([H])OC([H])([H])C34C5([H])OC([H])(C([H])([H])[H])C3([H])C([H])([H])C1([H])C([H])([H])C4([H])C2(C([H])([H])[H])C([H])([H])C([H])([H])C1=C([H])C([H])(C([H])([H])[H])C(=O)C([H])([H])C15C([H])([H])[H]

$$$$
8:0:2
     RDKit          3D

 62 67  0  0  1  0  0  0  0  0999 V2000
    3.3513   -3.1226   -3.4222 C   0  0  0  0  0  0  0  0  0  0  0  0
    4.6613   -2.7088   -2.7444 C   0  0  2  0  0  0  0  0  0  0  0  0
    5.1397   -3.7642   -1.7595 C   0  0  0  0  0  0  0  0  0  0  0  0
    5.3730   -3.6120   -0.4338 C   0  0  0  0  0  0  0  0  0  0  0  0
    5.8796   -4.8087    0.3626 C   0  0  0  0  0  0  0  0  0  0  0  0
    4.7895   -5.8803    0.6582 C   0  0  0  0  0  0  0  0  0  0  0  0
    4.1975   -5.9717    2.1073 C   0  0  2  0  0  0  0  0  0  0  0  0
    4.8879   -7.2189    2.7406 C   0  0  0  0  0  0  0  0  0  0  0  0
    2.6380   -6.1570    2.1136 C   0  0  2  0  0  0  0  0  0  0  0  0
    1.9443   -5.1211    1.4213 O   0  0  0  0  0  0  0  0  0  0  0  0
    2.6145   -3.8809    1.2003 C   0  0  0  0  0  0  0  0  0  0  0  0
    3.6692   -3.4521    2.2753 C   0  0  1  0  0  0  0  0  0  0  0  0
    2.9717   -2.6783    3.3936 C   0  0  2  0  0  0  0  0  0  0  0  0
    1.8660   -3.5469    4.0492 C   0  0  0  0  0  0  0  0  0  0  0  0
    2.4388   -4.9476    4.4403 C   0  0  2  0  0  0  0  0  0  0  0  0
    3.9757   -4.9145    4.4128 C   0  0  0  0  0  0  0  0  0  0  0  0
    4.4362   -4.6755    2.9365 C   0  0  1  0  0  0  0  0  0  0  0  0
    2.0159   -6.1464    3.5477 C   0  0  1  0  0  0  0  0  0  0  0  0
    0.6131   -6.3438    3.5198 O   0  0  0  0  0  0  0  0  0  0  0  0
    2.6902   -1.3049    2.8015 C   0  0  1  0  0  0  0  0  0  0  0  0
    2.5649   -0.1817    3.8406 C   0  0  0  0  0  0  0  0  0  0  0  0
    3.8779   -1.0880    2.0371 O   0  0  0  0  0  0  0  0  0  0  0  0
    4.5897   -2.3081    1.7533 C   0  0  2  0  0  0  0  0  0  0  0  0
    5.1473   -2.2535    0.2756 C   0  0  1  0  0  0  0  0  0  0  0  0
    6.5257   -1.5501    0.3145 C   0  0  0  0  0  0  0  0  0  0  0  0
    4.1815   -1.3705   -0.5778 C   0  0  0  0  0  0  0  0  0  0  0  0
    4.5051   -1.3538   -2.0667 C   0  0  0  0  0  0  0  0  0  0  0  0
    4.6035   -0.3058   -2.7056 O   0  0  0  0  0  0  0  0  0  0  0  0
    2.5623   -3.2722   -2.6855 H   0  0  0  0  0  0  0  0  0  0  0  0
    3.4760   -4.0616   -3.9605 H   0  0  0  0  0  0  0  0  0  0  0  0
    3.0009   -2.3768   -4.1361 H   0  0  0  0  0  0  0  0  0  0  0  0
    5.4284   -2.6068   -3.5113 H   0  0  0  0  0  0  0  0  0  0  0  0
    5.3106   -4.7253   -2.2143 H   0  0  0  0  0  0  0  0  0  0  0  0
    6.6041   -5.2905   -0.2890 H   0  0  0  0  0  0  0  0  0  0  0  0
    6.4906   -4.5126    1.2131 H   0  0  0  0  0  0  0  0  0  0  0  0
    3.9945   -5.8190   -0.0844 H   0  0  0  0  0  0  0  0  0  0  0  0
    5.2316   -6.8413    0.3994 H   0  0  0  0  0  0  0  0  0  0  0  0
    4.4693   -7.5324    3.6941 H   0  0  0  0  0  0  0  0  0  0  0  0
    5.9542   -7.0446    2.8953 H   0  0  0  0  0  0  0  0  0  0  0  0
    4.7865   -8.0994    2.1016 H   0  0  0  0  0  0  0  0  0  0  0  0
    2.3880   -7.1004    1.6217 H   0  0  0  0  0  0  0  0  0  0  0  0
    3.0239   -3.9437    0.2041 H   0  0  0  0  0  0  0  0  0  0  0  0
    1.8388   -3.1263    1.0805 H   0  0  0  0  0  0  0  0  0  0  0  0
    3.6990   -2.4365    4.1681 H   0  0  0  0  0  0  0  0  0  0  0  0
    1.5000   -3.0542    4.9505 H   0  0  0  0  0  0  0  0  0  0  0  0
    1.0038   -3.6507    3.3913 H   0  0  0  0  0  0  0  0  0  0  0  0
    2.1111   -5.1648    5.4556 H   0  0  0  0  0  0  0  0  0  0  0  0
    4.3618   -4.1481    5.0828 H   0  0  0  0  0  0  0  0  0  0  0  0
    4.3955   -5.8159    4.8514 H   0  0  0  0  0  0  0  0  0  0  0  0
    5.4997   -4.4683    3.0189 H   0  0  0  0  0  0  0  0  0  0  0  0
    2.3729   -7.0345    4.0660 H   0  0  0  0  0  0  0  0  0  0  0  0
    0.4472   -7.2409    3.2626 H   0  0  0  0  0  0  0  0  0  0  0  0
    1.8198   -1.3026    2.1450 H   0  0  0  0  0  0  0  0  0  0  0  0
    1.6761   -0.3118    4.4617 H   0  0  0  0  0  0  0  0  0  0  0  0
    2.4903    0.7855    3.3425 H   0  0  0  0  0  0  0  0  0  0  0  0
    3.4367   -0.1448    4.4986 H   0  0  0  0  0  0  0  0  0  0  0  0
    5.4476   -2.2760    2.4268 H   0  0  0  0  0  0  0  0  0  0  0  0
    6.4560   -0.5325    0.7106 H   0  0  0  0  0  0  0  0  0  0  0  0
    6.9499   -1.4855   -0.6861 H   0  0  0  0  0  0  0  0  0  0  0  0
    7.2503   -2.0992    0.9201 H   0  0  0  0  0  0  0  0  0  0  0  0
    3.1553   -1.7225   -0.4720 H   0  0  0  0  0  0  0  0  0  0  0  0
    4.1892   -0.3396   -0.2194 H   0  0  0  0  0  0  0  0  0  0  0  0
  1  2  1  0
  1 29  1  0
  1 30  1  0
  1 31  1  0
  2 27  1  0
  2  3  1  0
  2 32  1  6
  3  4  2  0
  3 33  1  0
  4 24  1  0
  4  5  1  0
  5  6  1  0
  5 34  1  0
  5 35  1  0
  6  7  1  0
  6 36  1  0
  6 37  1  0
  7 17  1  0
  7  8  1  1
  7  9  1  0
  8 38  1  0
  8 39  1  0
  8 40  1  0
  9 18  1  0
  9 10  1  0
  9 41  1  6
 10 11  1  0
 12 11  1  6
 11 42  1  0
 11 43  1  0
 12 17  1  0
 12 23  1  0
 12 13  1  0
 13 14  1  0
 13 20  1  0
 13 44  1  1
 14 15  1  0
 14 45  1  0
 14 46  1  0
 15 16  1  0
 15 18  1  0
 15 47  1  1
 16 17  1  0
 16 48  1  0
 16 49  1  0
 17 50  1  1
 18 19  1  0
 18 51  1  1
 19 52  1  0
 20 21  1  0
 20 22  1  0
 20 53  1  6
 21 54  1  0
 21 55  1  0
 21 56  1  0
 22 23  1  0
 23 24  1  0
 23 57  1  1
 24 25  1  1
 24 26  1  0
 25 58  1  0
 25 59  1  0
 25 60  1  0
 26 27  1  0
 26 61  1  0
 26 62  1  0
 27 28  2  0
M  END
>  <i_m_ct_stereo_status>  (33) 
1

>  <s_m_source_file>  (33) 
/var/tmp/pbs.5076255.sched01/tmpgqtxr8g4/0xtbcsf6k.sdf

>  <i_m_source_file_index>  (33) 
11

>  <i_lp_mmshare_version>  (33) 
48012

>  <i_f3d_flags>  (33) 
0

>  <s_epik_input>  (33) 
W0NIM11bQ0BIXShbQ0hdPTEpQyg9TylbQ0gyXVtDQEBdKFtDSDNdKShbQ0BIXTJPW0NAQEhdM1tDSDNdKUMxW0NIMl1bQ0gyXVtDQF0oW0NIM10pKFtDQEhdKE9bQ0gyXTQpW0NAQEhdNVtPSF0pW0NAQEhdNltDSDJdW0NASF01W0NIMl1bQ0BIXTNbQ0BdMjQ2

>  <s_epik_cmdline>  (33) 
J2VwaWtfcHl0aG9uJywgJy1waHQnLCAnMi4wJywgJy1waCcsICc3LjAnLCAnLXRuJywgJzgnLCAnLW1hJywgJzIwMCcsICctaW1hZScsICc8aW5maWxlLm1hZT4nLCAnLW9tYWUnLCAnPG91dGZpbGUubWFlPic=

>  <r_lp_tautomer_probability>  (33) 
1

>  <r_epik_Ionization_Penalty>  (33) 
1.68869e-07

>  <r_epik_Ionization_Penalty_Charging>  (33) 
0

>  <r_epik_Ionization_Penalty_Neutral>  (33) 
1.68869e-07

>  <r_epik_State_Penalty>  (33) 
-0

>  <r_epik_Charging_Adjusted_Penalty>  (33) 
0

>  <i_epik_Tot_Q>  (33) 
0

>  <i_epik_Tot_abs_Q>  (33) 
0

>  <s_lp_Force_Field>  (33) 
OPLS3e

>  <r_lp_Energy>  (33) 
78.8443

>  <b_lp_Chiralities_Consistent>  (33) 
1

>  <s_lp_Variant>  (33) 
8:0-1

>  <s_i_glide_gridfile>  (33) 
pfpi4k_grid

>  <i_i_glide_lignum>  (33) 
11

>  <i_i_glide_rotatable_bonds>  (33) 
1

>  <r_i_docking_score>  (33) 
-3.25051

>  <r_i_glide_ligand_efficiency>  (33) 
-0.11609

>  <r_i_glide_ligand_efficiency_sa>  (33) 
-0.352517

>  <r_i_glide_ligand_efficiency_ln>  (33) 
-0.750313

>  <r_i_glide_gscore>  (33) 
-3.25051

>  <r_i_glide_lipo>  (33) 
-0.63537

>  <r_i_glide_hbond>  (33) 
-0.0441449

>  <r_i_glide_metal>  (33) 
-0

>  <r_i_glide_rewards>  (33) 
-0.773698

>  <r_i_glide_evdw>  (33) 
-29.1877

>  <r_i_glide_ecoul>  (33) 
-1.95049

>  <r_i_glide_erotb>  (33) 
0

>  <r_i_glide_esite>  (33) 
-0.0453394

>  <r_i_glide_emodel>  (33) 
-37.5859

>  <r_i_glide_energy>  (33) 
-31.1382

>  <r_i_glide_einternal>  (33) 
0.530623

>  <r_i_glide_intrahb_reward>  (33) 
-0

>  <i_i_glide_confnum>  (33) 
2

>  <i_i_glide_posenum>  (33) 
13

>  <r_i_glide_eff_state_penalty>  (33) 
0

>  <ligand_id>  (33) 
8

>  <original_smiles>  (33) 
CC1C=C2CCC3(C)C4OCC56C(CC(CC35)C4O)C(C)OC6C2(C)CC1=O

>  <smiles>  (33) 
[H]OC1([H])C2([H])OC([H])([H])C34C5([H])OC([H])(C([H])([H])[H])C3([H])C([H])([H])C1([H])C([H])([H])C4([H])C2(C([H])([H])[H])C([H])([H])C([H])([H])C1=C([H])C([H])(C([H])([H])[H])C(=O)C([H])([H])C15C([H])([H])[H]

$$$$
9:0:0
     RDKit          3D

 55 60  0  0  1  0  0  0  0  0999 V2000
   -2.9890    4.1360    9.5489 C   0  0  0  0  0  0  0  0  0  0  0  0
   -1.9063    3.2541    8.9633 C   0  0  0  0  0  0  0  0  0  0  0  0
   -1.6031    2.1919    9.4948 O   0  0  0  0  0  0  0  0  0  0  0  0
   -1.3775    3.7543    7.8225 O   0  0  0  0  0  0  0  0  0  0  0  0
   -0.3291    3.0812    7.1266 C   0  0  2  0  0  0  0  0  0  0  0  0
    0.7191    4.1396    6.7218 C   0  0  2  0  0  0  0  0  0  0  0  0
    1.6140    4.5128    7.8986 C   0  0  0  0  0  0  0  0  0  0  0  0
    0.2803    5.2305    5.8889 O   0  0  0  0  0  0  0  0  0  0  0  0
    1.2478    4.3444    5.3127 C   0  0  2  0  0  0  0  0  0  0  0  0
    0.8054    3.6027    4.0863 C   0  0  2  0  0  0  0  0  0  0  0  0
   -0.7114    3.3970    3.7523 C   0  0  2  0  0  0  0  0  0  0  0  0
   -1.3805    4.3235    2.9307 O   0  0  0  0  0  0  0  0  0  0  0  0
   -1.5858    2.9856    4.9283 C   0  0  0  0  0  0  0  0  0  0  0  0
   -2.7610    3.3315    5.0946 O   0  0  0  0  0  0  0  0  0  0  0  0
   -0.8687    2.1137    5.9935 C   0  0  2  0  0  0  0  0  0  0  0  0
   -1.9168    1.0736    6.5190 C   0  0  0  0  0  0  0  0  0  0  0  0
    0.2978    1.3000    5.2954 C   0  0  2  0  0  0  0  0  0  0  0  0
    1.5666    0.8291    6.0641 C   0  0  1  0  0  0  0  0  0  0  0  0
    1.3618   -0.3960    6.7486 O   0  0  0  0  0  0  0  0  0  0  0  0
    0.8522   -0.4103    8.0164 C   0  0  0  0  0  0  0  0  0  0  0  0
    0.5992    0.5603    8.6737 O   0  0  0  0  0  0  0  0  0  0  0  0
    0.6755   -1.7987    8.5365 C   0  0  0  0  0  0  0  0  0  0  0  0
    1.3383   -2.8944    7.9642 C   0  0  0  0  0  0  0  0  0  0  0  0
    1.2706   -4.1324    8.4988 N   0  0  0  0  0  0  0  0  0  0  0  0
    0.5263   -4.2628    9.6269 C   0  0  0  0  0  0  0  0  0  0  0  0
   -0.1731   -3.1730   10.1877 C   0  0  0  0  0  0  0  0  0  0  0  0
   -0.1120   -1.9424    9.6353 N   0  0  0  0  0  0  0  0  0  0  0  0
    2.5882    0.7084    4.9292 C   0  0  0  0  0  0  0  0  0  0  0  0
    3.8589   -0.0916    5.0938 C   0  0  0  0  0  0  0  0  0  0  0  0
    2.1999    1.3801    3.8343 C   0  0  0  0  0  0  0  0  0  0  0  0
    0.8696    2.0510    4.0926 C   0  0  2  0  0  0  0  0  0  0  0  0
   -0.2052    2.1210    2.9956 C   0  0  0  0  0  0  0  0  0  0  0  0
   -0.4721    1.5056    1.9753 O   0  0  0  0  0  0  0  0  0  0  0  0
   -3.2122    4.9654    8.8752 H   0  0  0  0  0  0  0  0  0  0  0  0
   -2.6658    4.5314   10.5162 H   0  0  0  0  0  0  0  0  0  0  0  0
   -3.8957    3.5528    9.7009 H   0  0  0  0  0  0  0  0  0  0  0  0
    0.2040    2.5037    7.8452 H   0  0  0  0  0  0  0  0  0  0  0  0
    2.2013    3.6515    8.2223 H   0  0  0  0  0  0  0  0  0  0  0  0
    1.0290    4.8669    8.7396 H   0  0  0  0  0  0  0  0  0  0  0  0
    2.3169    5.2970    7.6073 H   0  0  0  0  0  0  0  0  0  0  0  0
    2.2563    4.7760    5.2476 H   0  0  0  0  0  0  0  0  0  0  0  0
    1.3042    4.0251    3.1971 H   0  0  0  0  0  0  0  0  0  0  0  0
   -0.8201    4.4235    2.1216 H   0  0  0  0  0  0  0  0  0  0  0  0
   -1.5156    0.4311    7.2743 H   0  0  0  0  0  0  0  0  0  0  0  0
   -2.3054    0.4635    5.6934 H   0  0  0  0  0  0  0  0  0  0  0  0
   -2.7960    1.5841    6.9383 H   0  0  0  0  0  0  0  0  0  0  0  0
   -0.1436    0.3841    4.8987 H   0  0  0  0  0  0  0  0  0  0  0  0
    1.9436    1.6003    6.7324 H   0  0  0  0  0  0  0  0  0  0  0  0
    1.9705   -2.7779    7.0881 H   0  0  0  0  0  0  0  0  0  0  0  0
    0.4823   -5.2400   10.0773 H   0  0  0  0  0  0  0  0  0  0  0  0
   -0.7757   -3.2703   11.0840 H   0  0  0  0  0  0  0  0  0  0  0  0
    3.6203   -1.1332    5.3034 H   0  0  0  0  0  0  0  0  0  0  0  0
    4.4388    0.3030    5.9268 H   0  0  0  0  0  0  0  0  0  0  0  0
    4.4778   -0.0560    4.1971 H   0  0  0  0  0  0  0  0  0  0  0  0
    2.7296    1.4384    2.8914 H   0  0  0  0  0  0  0  0  0  0  0  0
  1  2  1  0
  1 34  1  0
  1 35  1  0
  1 36  1  0
  2  3  2  0
  2  4  1  0
  4  5  1  0
  5 15  1  0
  5  6  1  0
  5 37  1  1
  6  9  1  0
  6  7  1  1
  6  8  1  0
  7 38  1  0
  7 39  1  0
  7 40  1  0
  8  9  1  0
  9 10  1  0
  9 41  1  1
 10 31  1  0
 10 11  1  0
 10 42  1  6
 11 32  1  0
 11 12  1  6
 11 13  1  0
 12 43  1  0
 13 14  2  0
 13 15  1  0
 15 16  1  1
 15 17  1  0
 16 44  1  0
 16 45  1  0
 16 46  1  0
 17 31  1  0
 17 18  1  0
 17 47  1  6
 18 19  1  0
 18 28  1  0
 18 48  1  1
 19 20  1  0
 20 21  2  0
 20 22  1  0
 22 27  1  0
 22 23  2  0
 23 24  1  0
 23 49  1  0
 24 25  2  0
 25 26  1  0
 25 50  1  0
 26 27  2  0
 26 51  1  0
 28 29  1  0
 28 30  2  0
 29 52  1  0
 29 53  1  0
 29 54  1  0
 31 30  1  6
 30 55  1  0
 31 32  1  0
 32 33  2  0
M  END
>  <i_m_ct_stereo_status>  (34) 
1

>  <s_m_source_file>  (34) 
/var/tmp/pbs.5076255.sched01/tmpgqtxr8g4/0xtbcsf6k.sdf

>  <i_m_source_file_index>  (34) 
12

>  <i_lp_mmshare_version>  (34) 
48012

>  <i_f3d_flags>  (34) 
0

>  <s_epik_input>  (34) 
W0NAQF0xMjNbQ0BASF00W0NAQEhdNVtDQF0oTzUpKFtDSDNdKVtDQEBIXShPQyg9TylbQ0gzXSlbQ0BAXShbQ0gzXSkoQyg9TylbQ0BdNChbT0hdKUMzPU8pW0NAQEhdMVtDQEhdKEMoW0NIM10pPVtDSF0yKU9DKD1PKWM2W2NIXW5bY0hdW2NIXW42

>  <s_epik_cmdline>  (34) 
J2VwaWtfcHl0aG9uJywgJy1waHQnLCAnMi4wJywgJy1waCcsICc3LjAnLCAnLXRuJywgJzgnLCAnLW1hJywgJzIwMCcsICctaW1hZScsICc8aW5maWxlLm1hZT4nLCAnLW9tYWUnLCAnPG91dGZpbGUubWFlPic=

>  <r_lp_tautomer_probability>  (34) 
1

>  <r_epik_Ionization_Penalty>  (34) 
2.24524e-07

>  <r_epik_Ionization_Penalty_Charging>  (34) 
0

>  <r_epik_Ionization_Penalty_Neutral>  (34) 
2.24524e-07

>  <r_epik_State_Penalty>  (34) 
-0

>  <r_epik_Charging_Adjusted_Penalty>  (34) 
0

>  <i_epik_Tot_Q>  (34) 
0

>  <i_epik_Tot_abs_Q>  (34) 
0

>  <s_epik_Chemistry_Notes>  (34) 
This compound has an ester and may undergo hydrolysis at high or low pH.

>  <s_lp_Force_Field>  (34) 
OPLS3e

>  <r_lp_Energy>  (34) 
44.7751

>  <b_lp_Chiralities_Consistent>  (34) 
1

>  <s_lp_Variant>  (34) 
9:0-1

>  <s_i_glide_gridfile>  (34) 
pfpi4k_grid

>  <i_i_glide_lignum>  (34) 
12

>  <i_i_glide_rotatable_bonds>  (34) 
6

>  <r_i_docking_score>  (34) 
-2.66407

>  <r_i_glide_ligand_efficiency>  (34) 
-0.0807295

>  <r_i_glide_ligand_efficiency_sa>  (34) 
-0.258943

>  <r_i_glide_ligand_efficiency_ln>  (34) 
-0.592476

>  <r_i_glide_gscore>  (34) 
-2.66407

>  <r_i_glide_lipo>  (34) 
-0.000506654

>  <r_i_glide_hbond>  (34) 
-0.16

>  <r_i_glide_metal>  (34) 
-0

>  <r_i_glide_rewards>  (34) 
-0.310709

>  <r_i_glide_evdw>  (34) 
-24.3886

>  <r_i_glide_ecoul>  (34) 
-8.29536

>  <r_i_glide_erotb>  (34) 
0.388968

>  <r_i_glide_esite>  (34) 
-0.118095

>  <r_i_glide_emodel>  (34) 
-36.7951

>  <r_i_glide_energy>  (34) 
-32.6839

>  <r_i_glide_einternal>  (34) 
1.65287

>  <r_i_glide_intrahb_reward>  (34) 
-0

>  <i_i_glide_confnum>  (34) 
5

>  <i_i_glide_posenum>  (34) 
35

>  <r_i_glide_eff_state_penalty>  (34) 
0

>  <ligand_id>  (34) 
9

>  <original_smiles>  (34) 
CC(=O)OC1C2(C)OC2C2C3(O)C(=O)C1(C)C1C(OC(=O)c4cnccn4)C(C)=CC21C3=O

>  <smiles>  (34) 
[H]OC12C(=O)C34C([H])=C(C([H])([H])[H])C([H])(OC(=O)c5nc([H])c([H])nc5[H])C3([H])C(C([H])([H])[H])(C1=O)C([H])(OC(=O)C([H])([H])[H])C1(C([H])([H])[H])OC1([H])C24[H]

$$$$
9:0:1
     RDKit          3D

 55 60  0  0  1  0  0  0  0  0999 V2000
   -2.5808    4.5945    9.6952 C   0  0  0  0  0  0  0  0  0  0  0  0
   -1.5943    3.6272    9.0579 C   0  0  0  0  0  0  0  0  0  0  0  0
   -1.2575    2.5899    9.6272 O   0  0  0  0  0  0  0  0  0  0  0  0
   -1.1808    4.0291    7.8387 O   0  0  0  0  0  0  0  0  0  0  0  0
   -0.1911    3.2995    7.1040 C   0  0  2  0  0  0  0  0  0  0  0  0
    0.7631    4.3532    6.5130 C   0  0  2  0  0  0  0  0  0  0  0  0
    1.7244    4.8976    7.5535 C   0  0  0  0  0  0  0  0  0  0  0  0
    0.1642    5.3361    5.6526 O   0  0  0  0  0  0  0  0  0  0  0  0
    1.1281    4.4734    5.0458 C   0  0  2  0  0  0  0  0  0  0  0  0
    0.6053    3.6060    3.9197 C   0  0  2  0  0  0  0  0  0  0  0  0
   -0.9160    3.3223    3.7522 C   0  0  2  0  0  0  0  0  0  0  0  0
   -1.6637    4.1447    2.8823 O   0  0  0  0  0  0  0  0  0  0  0  0
   -1.6666    2.9951    5.0408 C   0  0  0  0  0  0  0  0  0  0  0  0
   -2.8294    3.3111    5.3096 O   0  0  0  0  0  0  0  0  0  0  0  0
   -0.8031    2.2557    6.1059 C   0  0  2  0  0  0  0  0  0  0  0  0
   -1.7081    1.2397    6.8497 C   0  0  0  0  0  0  0  0  0  0  0  0
    0.3175    1.4304    5.3689 C   0  0  2  0  0  0  0  0  0  0  0  0
    1.6696    1.0891    6.0459 C   0  0  1  0  0  0  0  0  0  0  0  0
    1.5247   -0.0438    6.8855 O   0  0  0  0  0  0  0  0  0  0  0  0
    2.1232   -0.0923    8.0986 C   0  0  0  0  0  0  0  0  0  0  0  0
    2.9669    0.7181    8.4830 O   0  0  0  0  0  0  0  0  0  0  0  0
    1.6098   -1.2235    8.9248 C   0  0  0  0  0  0  0  0  0  0  0  0
    0.5762   -2.0680    8.4525 C   0  0  0  0  0  0  0  0  0  0  0  0
    0.0455   -3.0628    9.1978 N   0  0  0  0  0  0  0  0  0  0  0  0
    0.5845   -3.2408   10.4228 C   0  0  0  0  0  0  0  0  0  0  0  0
    1.6190   -2.4122   10.9062 C   0  0  0  0  0  0  0  0  0  0  0  0
    2.1290   -1.4011   10.1664 N   0  0  0  0  0  0  0  0  0  0  0  0
    2.5786    0.8775    4.8432 C   0  0  0  0  0  0  0  0  0  0  0  0
    3.8919    0.1344    4.9671 C   0  0  0  0  0  0  0  0  0  0  0  0
    2.0676    1.4274    3.7357 C   0  0  0  0  0  0  0  0  0  0  0  0
    0.7413    2.0676    4.0551 C   0  0  2  0  0  0  0  0  0  0  0  0
   -0.4401    2.0045    3.0707 C   0  0  0  0  0  0  0  0  0  0  0  0
   -0.7683    1.3061    2.1161 O   0  0  0  0  0  0  0  0  0  0  0  0
   -2.8552    5.3912    9.0041 H   0  0  0  0  0  0  0  0  0  0  0  0
   -2.1370    5.0419   10.5849 H   0  0  0  0  0  0  0  0  0  0  0  0
   -3.4890    4.0743    9.9981 H   0  0  0  0  0  0  0  0  0  0  0  0
    0.3967    2.7307    7.8246 H   0  0  0  0  0  0  0  0  0  0  0  0
    2.3837    4.1044    7.9066 H   0  0  0  0  0  0  0  0  0  0  0  0
    1.1937    5.3262    8.4043 H   0  0  0  0  0  0  0  0  0  0  0  0
    2.3476    5.6764    7.1126 H   0  0  0  0  0  0  0  0  0  0  0  0
    2.0874    4.9446    4.8403 H   0  0  0  0  0  0  0  0  0  0  0  0
    0.9984    3.9587    2.9588 H   0  0  0  0  0  0  0  0  0  0  0  0
   -1.1713    4.1841    2.0645 H   0  0  0  0  0  0  0  0  0  0  0  0
   -1.1446    0.7100    7.6179 H   0  0  0  0  0  0  0  0  0  0  0  0
   -2.1421    0.5023    6.1699 H   0  0  0  0  0  0  0  0  0  0  0  0
   -2.5578    1.7229    7.3304 H   0  0  0  0  0  0  0  0  0  0  0  0
   -0.1195    0.4583    5.1156 H   0  0  0  0  0  0  0  0  0  0  0  0
    2.0668    1.9481    6.5859 H   0  0  0  0  0  0  0  0  0  0  0  0
    0.1257   -1.9483    7.4791 H   0  0  0  0  0  0  0  0  0  0  0  0
    0.1955   -4.0547   11.0164 H   0  0  0  0  0  0  0  0  0  0  0  0
    2.0379   -2.5635   11.8896 H   0  0  0  0  0  0  0  0  0  0  0  0
    3.7189   -0.8870    5.3005 H   0  0  0  0  0  0  0  0  0  0  0  0
    4.5237    0.6249    5.7045 H   0  0  0  0  0  0  0  0  0  0  0  0
    4.4330    0.1004    4.0207 H   0  0  0  0  0  0  0  0  0  0  0  0
    2.5099    1.4033    2.7522 H   0  0  0  0  0  0  0  0  0  0  0  0
  1  2  1  0
  1 34  1  0
  1 35  1  0
  1 36  1  0
  2  3  2  0
  2  4  1  0
  4  5  1  0
  5 15  1  0
  5  6  1  0
  5 37  1  1
  6  9  1  0
  6  7  1  1
  6  8  1  0
  7 38  1  0
  7 39  1  0
  7 40  1  0
  8  9  1  0
  9 10  1  0
  9 41  1  1
 10 31  1  0
 10 11  1  0
 10 42  1  6
 11 32  1  0
 11 12  1  6
 11 13  1  0
 12 43  1  0
 13 14  2  0
 13 15  1  0
 15 16  1  1
 15 17  1  0
 16 44  1  0
 16 45  1  0
 16 46  1  0
 17 31  1  0
 17 18  1  0
 17 47  1  6
 18 19  1  0
 18 28  1  0
 18 48  1  1
 19 20  1  0
 20 21  2  0
 20 22  1  0
 22 27  1  0
 22 23  2  0
 23 24  1  0
 23 49  1  0
 24 25  2  0
 25 26  1  0
 25 50  1  0
 26 27  2  0
 26 51  1  0
 28 29  1  0
 28 30  2  0
 29 52  1  0
 29 53  1  0
 29 54  1  0
 31 30  1  6
 30 55  1  0
 31 32  1  0
 32 33  2  0
M  END
>  <i_m_ct_stereo_status>  (35) 
1

>  <s_m_source_file>  (35) 
/var/tmp/pbs.5076255.sched01/tmpgqtxr8g4/0xtbcsf6k.sdf

>  <i_m_source_file_index>  (35) 
12

>  <i_lp_mmshare_version>  (35) 
48012

>  <i_f3d_flags>  (35) 
0

>  <s_epik_input>  (35) 
W0NAQF0xMjNbQ0BASF00W0NAQEhdNVtDQF0oTzUpKFtDSDNdKVtDQEBIXShPQyg9TylbQ0gzXSlbQ0BAXShbQ0gzXSkoQyg9TylbQ0BdNChbT0hdKUMzPU8pW0NAQEhdMVtDQEhdKEMoW0NIM10pPVtDSF0yKU9DKD1PKWM2W2NIXW5bY0hdW2NIXW42

>  <s_epik_cmdline>  (35) 
J2VwaWtfcHl0aG9uJywgJy1waHQnLCAnMi4wJywgJy1waCcsICc3LjAnLCAnLXRuJywgJzgnLCAnLW1hJywgJzIwMCcsICctaW1hZScsICc8aW5maWxlLm1hZT4nLCAnLW9tYWUnLCAnPG91dGZpbGUubWFlPic=

>  <r_lp_tautomer_probability>  (35) 
1

>  <r_epik_Ionization_Penalty>  (35) 
2.24524e-07

>  <r_epik_Ionization_Penalty_Charging>  (35) 
0

>  <r_epik_Ionization_Penalty_Neutral>  (35) 
2.24524e-07

>  <r_epik_State_Penalty>  (35) 
-0

>  <r_epik_Charging_Adjusted_Penalty>  (35) 
0

>  <i_epik_Tot_Q>  (35) 
0

>  <i_epik_Tot_abs_Q>  (35) 
0

>  <s_epik_Chemistry_Notes>  (35) 
This compound has an ester and may undergo hydrolysis at high or low pH.

>  <s_lp_Force_Field>  (35) 
OPLS3e

>  <r_lp_Energy>  (35) 
44.7751

>  <b_lp_Chiralities_Consistent>  (35) 
1

>  <s_lp_Variant>  (35) 
9:0-1

>  <s_i_glide_gridfile>  (35) 
pfpi4k_grid

>  <i_i_glide_lignum>  (35) 
12

>  <i_i_glide_rotatable_bonds>  (35) 
6

>  <r_i_docking_score>  (35) 
-2.26744

>  <r_i_glide_ligand_efficiency>  (35) 
-0.0687104

>  <r_i_glide_ligand_efficiency_sa>  (35) 
-0.220391

>  <r_i_glide_ligand_efficiency_ln>  (35) 
-0.504268

>  <r_i_glide_gscore>  (35) 
-2.26744

>  <r_i_glide_lipo>  (35) 
-0.0220409

>  <r_i_glide_hbond>  (35) 
-0.0434836

>  <r_i_glide_metal>  (35) 
-0

>  <r_i_glide_rewards>  (35) 
-0.310709

>  <r_i_glide_evdw>  (35) 
-25.2565

>  <r_i_glide_ecoul>  (35) 
-6.26499

>  <r_i_glide_erotb>  (35) 
0.388968

>  <r_i_glide_esite>  (35) 
-0.0776019

>  <r_i_glide_emodel>  (35) 
-35.2819

>  <r_i_glide_energy>  (35) 
-31.5215

>  <r_i_glide_einternal>  (35) 
2.22074

>  <r_i_glide_intrahb_reward>  (35) 
-0

>  <i_i_glide_confnum>  (35) 
5

>  <i_i_glide_posenum>  (35) 
13

>  <r_i_glide_eff_state_penalty>  (35) 
0

>  <ligand_id>  (35) 
9

>  <original_smiles>  (35) 
CC(=O)OC1C2(C)OC2C2C3(O)C(=O)C1(C)C1C(OC(=O)c4cnccn4)C(C)=CC21C3=O

>  <smiles>  (35) 
[H]OC12C(=O)C34C([H])=C(C([H])([H])[H])C([H])(OC(=O)c5nc([H])c([H])nc5[H])C3([H])C(C([H])([H])[H])(C1=O)C([H])(OC(=O)C([H])([H])[H])C1(C([H])([H])[H])OC1([H])C24[H]

$$$$
9:0:2
     RDKit          3D

 55 60  0  0  1  0  0  0  0  0999 V2000
    1.3426    3.3674   10.1138 C   0  0  0  0  0  0  0  0  0  0  0  0
    1.3676    2.3385    8.9911 C   0  0  0  0  0  0  0  0  0  0  0  0
    1.3512    1.1315    9.2319 O   0  0  0  0  0  0  0  0  0  0  0  0
    1.3801    2.8995    7.7663 O   0  0  0  0  0  0  0  0  0  0  0  0
    1.3842    2.1032    6.5735 C   0  0  2  0  0  0  0  0  0  0  0  0
    2.4363    2.7124    5.6312 C   0  0  2  0  0  0  0  0  0  0  0  0
    3.8476    2.3450    6.0427 C   0  0  0  0  0  0  0  0  0  0  0  0
    2.2455    4.0921    5.2803 O   0  0  0  0  0  0  0  0  0  0  0  0
    2.1830    3.1553    4.2045 C   0  0  2  0  0  0  0  0  0  0  0  0
    0.8589    3.0864    3.4747 C   0  0  2  0  0  0  0  0  0  0  0  0
   -0.4548    3.6436    4.1058 C   0  0  2  0  0  0  0  0  0  0  0  0
   -0.8971    4.9425    3.7583 O   0  0  0  0  0  0  0  0  0  0  0  0
   -0.6786    3.2798    5.5802 C   0  0  0  0  0  0  0  0  0  0  0  0
   -1.2598    3.9689    6.4262 O   0  0  0  0  0  0  0  0  0  0  0  0
   -0.0585    1.8989    5.9881 C   0  0  2  0  0  0  0  0  0  0  0  0
   -0.9877    1.2266    7.0337 C   0  0  0  0  0  0  0  0  0  0  0  0
   -0.0384    0.9531    4.7245 C   0  0  2  0  0  0  0  0  0  0  0  0
    0.9927   -0.1964    4.5561 C   0  0  1  0  0  0  0  0  0  0  0  0
    0.5579   -1.3581    5.2381 O   0  0  0  0  0  0  0  0  0  0  0  0
    1.4452   -2.2900    5.6573 C   0  0  0  0  0  0  0  0  0  0  0  0
    2.6610   -2.2259    5.4680 O   0  0  0  0  0  0  0  0  0  0  0  0
    0.7808   -3.4105    6.3736 C   0  0  0  0  0  0  0  0  0  0  0  0
   -0.6148   -3.3908    6.6310 C   0  0  0  0  0  0  0  0  0  0  0  0
   -1.2456   -4.3896    7.2826 N   0  0  0  0  0  0  0  0  0  0  0  0
   -0.4771   -5.4273    7.6802 C   0  0  0  0  0  0  0  0  0  0  0  0
    0.9120   -5.4617    7.4301 C   0  0  0  0  0  0  0  0  0  0  0  0
    1.5418   -4.4542    6.7818 N   0  0  0  0  0  0  0  0  0  0  0  0
    1.0415   -0.3602    3.0426 C   0  0  0  0  0  0  0  0  0  0  0  0
    1.5918   -1.6102    2.4024 C   0  0  0  0  0  0  0  0  0  0  0  0
    0.5474    0.7101    2.4132 C   0  0  0  0  0  0  0  0  0  0  0  0
    0.1069    1.7323    3.4260 C   0  0  2  0  0  0  0  0  0  0  0  0
   -1.1594    2.5846    3.2179 C   0  0  0  0  0  0  0  0  0  0  0  0
   -2.1926    2.5352    2.5516 O   0  0  0  0  0  0  0  0  0  0  0  0
    1.2460    4.3787    9.7185 H   0  0  0  0  0  0  0  0  0  0  0  0
    2.2599    3.3106   10.6979 H   0  0  0  0  0  0  0  0  0  0  0  0
    0.5052    3.1848   10.7877 H   0  0  0  0  0  0  0  0  0  0  0  0
    1.7583    1.1110    6.8336 H   0  0  0  0  0  0  0  0  0  0  0  0
    3.9967    1.2691    5.9481 H   0  0  0  0  0  0  0  0  0  0  0  0
    4.0547    2.6485    7.0699 H   0  0  0  0  0  0  0  0  0  0  0  0
    4.5631    2.8423    5.3873 H   0  0  0  0  0  0  0  0  0  0  0  0
    3.0480    3.1687    3.5520 H   0  0  0  0  0  0  0  0  0  0  0  0
    0.9817    3.5108    2.4867 H   0  0  0  0  0  0  0  0  0  0  0  0
   -0.6473    5.0584    2.8458 H   0  0  0  0  0  0  0  0  0  0  0  0
   -0.5852    0.2625    7.3530 H   0  0  0  0  0  0  0  0  0  0  0  0
   -1.9952    1.0674    6.6362 H   0  0  0  0  0  0  0  0  0  0  0  0
   -1.1165    1.8495    7.9191 H   0  0  0  0  0  0  0  0  0  0  0  0
   -1.0171    0.4627    4.6810 H   0  0  0  0  0  0  0  0  0  0  0  0
    1.9868    0.1092    4.8842 H   0  0  0  0  0  0  0  0  0  0  0  0
   -1.2522   -2.5783    6.3227 H   0  0  0  0  0  0  0  0  0  0  0  0
   -0.9731   -6.2351    8.1960 H   0  0  0  0  0  0  0  0  0  0  0  0
    1.5158   -6.2979    7.7491 H   0  0  0  0  0  0  0  0  0  0  0  0
    1.0017   -2.4713    2.7127 H   0  0  0  0  0  0  0  0  0  0  0  0
    2.6232   -1.7642    2.7158 H   0  0  0  0  0  0  0  0  0  0  0  0
    1.5636   -1.5477    1.3136 H   0  0  0  0  0  0  0  0  0  0  0  0
    0.4588    0.8280    1.3454 H   0  0  0  0  0  0  0  0  0  0  0  0
  1  2  1  0
  1 34  1  0
  1 35  1  0
  1 36  1  0
  2  3  2  0
  2  4  1  0
  4  5  1  0
  5 15  1  0
  5  6  1  0
  5 37  1  1
  6  9  1  0
  6  7  1  6
  6  8  1  0
  7 38  1  0
  7 39  1  0
  7 40  1  0
  8  9  1  0
  9 10  1  0
  9 41  1  6
 10 31  1  0
 10 11  1  0
 10 42  1  6
 11 32  1  0
 11 12  1  1
 11 13  1  0
 12 43  1  0
 13 14  2  0
 13 15  1  0
 15 16  1  1
 15 17  1  0
 16 44  1  0
 16 45  1  0
 16 46  1  0
 17 31  1  0
 17 18  1  0
 17 47  1  6
 18 19  1  0
 18 28  1  0
 18 48  1  1
 19 20  1  0
 20 21  2  0
 20 22  1  0
 22 27  1  0
 22 23  2  0
 23 24  1  0
 23 49  1  0
 24 25  2  0
 25 26  1  0
 25 50  1  0
 26 27  2  0
 26 51  1  0
 28 29  1  0
 28 30  2  0
 29 52  1  0
 29 53  1  0
 29 54  1  0
 31 30  1  6
 30 55  1  0
 31 32  1  0
 32 33  2  0
M  END
>  <i_m_ct_stereo_status>  (36) 
1

>  <s_m_source_file>  (36) 
/var/tmp/pbs.5076255.sched01/tmpgqtxr8g4/0xtbcsf6k.sdf

>  <i_m_source_file_index>  (36) 
12

>  <i_lp_mmshare_version>  (36) 
48012

>  <i_f3d_flags>  (36) 
0

>  <s_epik_input>  (36) 
W0NAQF0xMjNbQ0BASF00W0NAQEhdNVtDQF0oTzUpKFtDSDNdKVtDQEBIXShPQyg9TylbQ0gzXSlbQ0BAXShbQ0gzXSkoQyg9TylbQ0BdNChbT0hdKUMzPU8pW0NAQEhdMVtDQEhdKEMoW0NIM10pPVtDSF0yKU9DKD1PKWM2W2NIXW5bY0hdW2NIXW42

>  <s_epik_cmdline>  (36) 
J2VwaWtfcHl0aG9uJywgJy1waHQnLCAnMi4wJywgJy1waCcsICc3LjAnLCAnLXRuJywgJzgnLCAnLW1hJywgJzIwMCcsICctaW1hZScsICc8aW5maWxlLm1hZT4nLCAnLW9tYWUnLCAnPG91dGZpbGUubWFlPic=

>  <r_lp_tautomer_probability>  (36) 
1

>  <r_epik_Ionization_Penalty>  (36) 
2.24524e-07

>  <r_epik_Ionization_Penalty_Charging>  (36) 
0

>  <r_epik_Ionization_Penalty_Neutral>  (36) 
2.24524e-07

>  <r_epik_State_Penalty>  (36) 
-0

>  <r_epik_Charging_Adjusted_Penalty>  (36) 
0

>  <i_epik_Tot_Q>  (36) 
0

>  <i_epik_Tot_abs_Q>  (36) 
0

>  <s_epik_Chemistry_Notes>  (36) 
This compound has an ester and may undergo hydrolysis at high or low pH.

>  <s_lp_Force_Field>  (36) 
OPLS3e

>  <r_lp_Energy>  (36) 
44.7751

>  <b_lp_Chiralities_Consistent>  (36) 
1

>  <s_lp_Variant>  (36) 
9:0-1

>  <s_i_glide_gridfile>  (36) 
pfpi4k_grid

>  <i_i_glide_lignum>  (36) 
12

>  <i_i_glide_rotatable_bonds>  (36) 
6

>  <r_i_docking_score>  (36) 
-2.11462

>  <r_i_glide_ligand_efficiency>  (36) 
-0.0640793

>  <r_i_glide_ligand_efficiency_sa>  (36) 
-0.205537

>  <r_i_glide_ligand_efficiency_ln>  (36) 
-0.47028

>  <r_i_glide_gscore>  (36) 
-2.11462

>  <r_i_glide_lipo>  (36) 
-0.0623573

>  <r_i_glide_hbond>  (36) 
0

>  <r_i_glide_metal>  (36) 
-0

>  <r_i_glide_rewards>  (36) 
-0.310709

>  <r_i_glide_evdw>  (36) 
-25.6648

>  <r_i_glide_ecoul>  (36) 
-5.22152

>  <r_i_glide_erotb>  (36) 
0.388968

>  <r_i_glide_esite>  (36) 
-0.0640496

>  <r_i_glide_emodel>  (36) 
-34.6234

>  <r_i_glide_energy>  (36) 
-30.8863

>  <r_i_glide_einternal>  (36) 
1.52096

>  <r_i_glide_intrahb_reward>  (36) 
-0

>  <i_i_glide_confnum>  (36) 
6

>  <i_i_glide_posenum>  (36) 
38

>  <r_i_glide_eff_state_penalty>  (36) 
0

>  <ligand_id>  (36) 
9

>  <original_smiles>  (36) 
CC(=O)OC1C2(C)OC2C2C3(O)C(=O)C1(C)C1C(OC(=O)c4cnccn4)C(C)=CC21C3=O

>  <smiles>  (36) 
[H]OC12C(=O)C34C([H])=C(C([H])([H])[H])C([H])(OC(=O)c5nc([H])c([H])nc5[H])C3([H])C(C([H])([H])[H])(C1=O)C([H])(OC(=O)C([H])([H])[H])C1(C([H])([H])[H])OC1([H])C24[H]

$$$$
10:0:0
     RDKit          3D

 71 76  0  0  1  0  0  0  0  0999 V2000
   -1.8354   -8.9446    2.3701 C   0  0  0  0  0  0  0  0  0  0  0  0
   -0.9673   -7.7394    2.6729 C   0  0  0  0  0  0  0  0  0  0  0  0
   -1.3450   -7.0432    3.9663 C   0  0  0  0  0  0  0  0  0  0  0  0
    0.0472   -7.3890    1.8530 C   0  0  0  0  0  0  0  0  0  0  0  0
    1.0539   -6.2522    2.0099 C   0  0  0  0  0  0  0  0  0  0  0  0
    2.4336   -6.6017    2.6828 C   0  0  2  0  0  0  0  0  0  0  0  0
    2.2437   -7.1319    4.1494 C   0  0  0  0  0  0  0  0  0  0  0  0
    1.5118   -6.6329    5.0069 O   0  0  0  0  0  0  0  0  0  0  0  0
    3.1138   -8.1906    4.3497 O   0  0  0  0  0  0  0  0  0  0  0  0
    4.1087   -8.1027    3.3655 C   0  0  2  0  0  0  0  0  0  0  0  0
    5.0719   -7.0751    3.6417 O   0  0  0  0  0  0  0  0  0  0  0  0
    4.6003   -5.7321    3.6169 C   0  0  0  0  0  0  0  0  0  0  0  0
    3.5380   -5.4692    2.5119 C   0  0  2  0  0  0  0  0  0  0  0  0
    2.9339   -4.0668    2.7226 C   0  0  0  0  0  0  0  0  0  0  0  0
    3.9191   -2.9467    2.4025 C   0  0  0  0  0  0  0  0  0  0  0  0
    4.2883   -2.9076    0.8997 C   0  0  1  0  0  0  0  0  0  0  0  0
    5.0984   -1.6034    0.4959 C   0  0  0  0  0  0  0  0  0  0  0  0
    5.0508   -1.3055   -1.0197 C   0  0  0  0  0  0  0  0  0  0  0  0
    4.5061   -0.3433    1.1586 C   0  0  0  0  0  0  0  0  0  0  0  0
    6.5655   -1.7327    0.9688 C   0  0  0  0  0  0  0  0  0  0  0  0
    7.2450   -3.0055    0.4564 C   0  0  0  0  0  0  0  0  0  0  0  0
    6.4658   -4.2671    0.8606 C   0  0  0  0  0  0  0  0  0  0  0  0
    4.9524   -4.2779    0.4657 C   0  0  2  0  0  0  0  0  0  0  0  0
    4.8456   -4.4216   -1.0793 C   0  0  0  0  0  0  0  0  0  0  0  0
    4.1800   -5.5494    1.0580 C   0  0  1  0  0  0  0  0  0  0  0  0
    4.9861   -6.8764    0.8610 C   0  0  0  0  0  0  0  0  0  0  0  0
    4.2192   -8.1519    1.2880 C   0  0  2  0  0  0  0  0  0  0  0  0
    3.0828   -7.8779    2.2394 C   0  0  2  0  0  0  0  0  0  0  0  0
    4.7221   -9.1396    2.4127 C   0  0  1  0  0  0  0  0  0  0  0  0
    6.2092   -9.4451    2.5510 C   0  0  0  0  0  0  0  0  0  0  0  0
    4.0957  -10.4133    2.4777 O   0  0  0  0  0  0  0  0  0  0  0  0
   -1.7328   -9.6787    3.1700 H   0  0  0  0  0  0  0  0  0  0  0  0
   -1.5712   -9.4205    1.4272 H   0  0  0  0  0  0  0  0  0  0  0  0
   -2.8762   -8.6345    2.3183 H   0  0  0  0  0  0  0  0  0  0  0  0
   -2.4219   -6.8584    4.0423 H   0  0  0  0  0  0  0  0  0  0  0  0
   -0.8271   -6.0958    4.1075 H   0  0  0  0  0  0  0  0  0  0  0  0
   -1.0767   -7.7045    4.7883 H   0  0  0  0  0  0  0  0  0  0  0  0
    0.2110   -7.9741    0.9606 H   0  0  0  0  0  0  0  0  0  0  0  0
    1.2074   -5.8837    0.9984 H   0  0  0  0  0  0  0  0  0  0  0  0
    0.5874   -5.4291    2.5524 H   0  0  0  0  0  0  0  0  0  0  0  0
    4.1935   -5.5140    4.6055 H   0  0  0  0  0  0  0  0  0  0  0  0
    5.4582   -5.0845    3.5199 H   0  0  0  0  0  0  0  0  0  0  0  0
    2.0866   -3.9107    2.0599 H   0  0  0  0  0  0  0  0  0  0  0  0
    2.5594   -3.9583    3.7445 H   0  0  0  0  0  0  0  0  0  0  0  0
    3.4146   -2.0284    2.6937 H   0  0  0  0  0  0  0  0  0  0  0  0
    4.8132   -3.0248    3.0126 H   0  0  0  0  0  0  0  0  0  0  0  0
    3.3340   -2.8271    0.3746 H   0  0  0  0  0  0  0  0  0  0  0  0
    5.3965   -0.2947   -1.2407 H   0  0  0  0  0  0  0  0  0  0  0  0
    4.0339   -1.3873   -1.4036 H   0  0  0  0  0  0  0  0  0  0  0  0
    5.6839   -1.9575   -1.6070 H   0  0  0  0  0  0  0  0  0  0  0  0
    4.9796    0.5460    0.7512 H   0  0  0  0  0  0  0  0  0  0  0  0
    4.6833   -0.3111    2.2312 H   0  0  0  0  0  0  0  0  0  0  0  0
    3.4335   -0.2612    0.9718 H   0  0  0  0  0  0  0  0  0  0  0  0
    7.1390   -0.8571    0.6581 H   0  0  0  0  0  0  0  0  0  0  0  0
    6.6025   -1.7383    2.0576 H   0  0  0  0  0  0  0  0  0  0  0  0
    7.3851   -2.9627   -0.6197 H   0  0  0  0  0  0  0  0  0  0  0  0
    8.2466   -3.0652    0.8774 H   0  0  0  0  0  0  0  0  0  0  0  0
    6.9752   -5.1196    0.4108 H   0  0  0  0  0  0  0  0  0  0  0  0
    6.5785   -4.3781    1.9338 H   0  0  0  0  0  0  0  0  0  0  0  0
    4.7217   -5.4458   -1.4082 H   0  0  0  0  0  0  0  0  0  0  0  0
    5.7298   -4.0752   -1.6015 H   0  0  0  0  0  0  0  0  0  0  0  0
    3.9817   -3.8933   -1.4751 H   0  0  0  0  0  0  0  0  0  0  0  0
    3.3258   -5.6581    0.3942 H   0  0  0  0  0  0  0  0  0  0  0  0
    5.2798   -6.9727   -0.1788 H   0  0  0  0  0  0  0  0  0  0  0  0
    5.9231   -6.8158    1.4042 H   0  0  0  0  0  0  0  0  0  0  0  0
    3.8444   -8.7109    0.4384 H   0  0  0  0  0  0  0  0  0  0  0  0
    2.3661   -8.7049    2.1303 H   0  0  0  0  0  0  0  0  0  0  0  0
    6.8163   -8.5399    2.5917 H   0  0  0  0  0  0  0  0  0  0  0  0
    6.5840  -10.0675    1.7318 H   0  0  0  0  0  0  0  0  0  0  0  0
    6.3749   -9.9764    3.4886 H   0  0  0  0  0  0  0  0  0  0  0  0
    4.2224  -10.8500    1.6384 H   0  0  0  0  0  0  0  0  0  0  0  0
  1  2  1  0
  1 32  1  0
  1 33  1  0
  1 34  1  0
  2  3  1  0
  2  4  2  3
  3 35  1  0
  3 36  1  0
  3 37  1  0
  4  5  1  0
  4 38  1  0
  6  5  1  6
  5 39  1  0
  5 40  1  0
  6 13  1  0
  6 28  1  0
  6  7  1  0
  7  8  2  0
  7  9  1  0
 10  9  1  1
 10 28  1  0
 10 29  1  0
 10 11  1  0
 11 12  1  0
 13 12  1  1
 12 41  1  0
 12 42  1  0
 13 25  1  0
 13 14  1  0
 14 15  1  0
 14 43  1  0
 14 44  1  0
 15 16  1  0
 15 45  1  0
 15 46  1  0
 16 23  1  0
 16 17  1  0
 16 47  1  6
 17 18  1  0
 17 19  1  0
 17 20  1  0
 18 48  1  0
 18 49  1  0
 18 50  1  0
 19 51  1  0
 19 52  1  0
 19 53  1  0
 20 21  1  0
 20 54  1  0
 20 55  1  0
 21 22  1  0
 21 56  1  0
 21 57  1  0
 22 23  1  0
 22 58  1  0
 22 59  1  0
 23 24  1  6
 23 25  1  0
 24 60  1  0
 24 61  1  0
 24 62  1  0
 25 26  1  0
 25 63  1  6
 26 27  1  0
 26 64  1  0
 26 65  1  0
 27 28  1  0
 27 29  1  0
 27 66  1  6
 28 67  1  1
 29 30  1  0
 29 31  1  6
 30 68  1  0
 30 69  1  0
 30 70  1  0
 31 71  1  0
M  END
>  <i_m_ct_stereo_status>  (37) 
1

>  <s_m_source_file>  (37) 
/var/tmp/pbs.5076255.sched01/tmpgqtxr8g4/0xtbcsf6k.sdf

>  <i_m_source_file_index>  (37) 
13

>  <i_lp_mmshare_version>  (37) 
48012

>  <i_f3d_flags>  (37) 
0

>  <s_epik_input>  (37) 
W0NIM11DKFtDSDNdKT1bQ0hdW0NIMl1bQ0BAXShDKD1PKU8xKShbQ0BASF0yW0NAXTEzNClbQ0BAXTUoW0NIMl1PMylbQ0BIXShbQ0gyXVtDQEhdMltDQF00KFtDSDNdKVtPSF0pW0NAQF02KFtDSDNdKVtDQEBIXShbQ0gyXVtDSDJdNSlDKFtDSDNdKShbQ0gzXSlbQ0gyXVtDSDJdW0NIMl02

>  <s_epik_cmdline>  (37) 
J2VwaWtfcHl0aG9uJywgJy1waHQnLCAnMi4wJywgJy1waCcsICc3LjAnLCAnLXRuJywgJzgnLCAnLW1hJywgJzIwMCcsICctaW1hZScsICc8aW5maWxlLm1hZT4nLCAnLW9tYWUnLCAnPG91dGZpbGUubWFlPic=

>  <r_lp_tautomer_probability>  (37) 
1

>  <r_epik_Ionization_Penalty>  (37) 
4.0655e-08

>  <r_epik_Ionization_Penalty_Charging>  (37) 
0

>  <r_epik_Ionization_Penalty_Neutral>  (37) 
4.0655e-08

>  <r_epik_State_Penalty>  (37) 
-0

>  <r_epik_Charging_Adjusted_Penalty>  (37) 
0

>  <i_epik_Tot_Q>  (37) 
0

>  <i_epik_Tot_abs_Q>  (37) 
0

>  <s_epik_Chemistry_Notes>  (37) 
This compound has an ester and may undergo hydrolysis at high or low pH.

>  <s_lp_Force_Field>  (37) 
OPLS3e

>  <r_lp_Energy>  (37) 
118.568

>  <b_lp_Chiralities_Consistent>  (37) 
1

>  <s_lp_Variant>  (37) 
10:0-1

>  <s_i_glide_gridfile>  (37) 
pfpi4k_grid

>  <i_i_glide_lignum>  (37) 
13

>  <i_i_glide_rotatable_bonds>  (37) 
3

>  <r_i_docking_score>  (37) 
-2.99551

>  <r_i_glide_ligand_efficiency>  (37) 
-0.0966293

>  <r_i_glide_ligand_efficiency_sa>  (37) 
-0.303549

>  <r_i_glide_ligand_efficiency_ln>  (37) 
-0.675579

>  <r_i_glide_gscore>  (37) 
-2.99551

>  <r_i_glide_lipo>  (37) 
-0.987609

>  <r_i_glide_hbond>  (37) 
0

>  <r_i_glide_metal>  (37) 
-0

>  <r_i_glide_rewards>  (37) 
-0.48679

>  <r_i_glide_evdw>  (37) 
-24.1405

>  <r_i_glide_ecoul>  (37) 
-3.53131

>  <r_i_glide_erotb>  (37) 
0.216276

>  <r_i_glide_esite>  (37) 
-0.000665243

>  <r_i_glide_emodel>  (37) 
-31.3562

>  <r_i_glide_energy>  (37) 
-27.6718

>  <r_i_glide_einternal>  (37) 
2.05323

>  <r_i_glide_intrahb_reward>  (37) 
-0

>  <i_i_glide_confnum>  (37) 
1

>  <i_i_glide_posenum>  (37) 
3

>  <r_i_glide_eff_state_penalty>  (37) 
0

>  <ligand_id>  (37) 
10

>  <original_smiles>  (37) 
CC(C)=CCC12C(=O)OC34OCC15CCC1C(C)(C)CCCC1(C)C5CC(C32)C4(C)O

>  <smiles>  (37) 
[H]OC1(C([H])([H])[H])C23OC(=O)C4(C([H])([H])C([H])=C(C([H])([H])[H])C([H])([H])[H])C2([H])C1([H])C([H])([H])C1([H])C2(C([H])([H])[H])C([H])([H])C([H])([H])C([H])([H])C(C([H])([H])[H])(C([H])([H])[H])C2([H])C([H])([H])C([H])([H])C14C([H])([H])O3

$$$$
10:0:1
     RDKit          3D

 71 76  0  0  1  0  0  0  0  0999 V2000
   -1.2732   -7.9975    2.5753 C   0  0  0  0  0  0  0  0  0  0  0  0
   -0.1450   -7.0410    2.2354 C   0  0  0  0  0  0  0  0  0  0  0  0
   -0.1171   -6.5998    0.7839 C   0  0  0  0  0  0  0  0  0  0  0  0
    0.7304   -6.6299    3.1717 C   0  0  0  0  0  0  0  0  0  0  0  0
    1.8719   -5.6429    2.9815 C   0  0  0  0  0  0  0  0  0  0  0  0
    3.3159   -6.1913    3.2463 C   0  0  2  0  0  0  0  0  0  0  0  0
    3.4407   -6.7203    4.6932 C   0  0  0  0  0  0  0  0  0  0  0  0
    2.8717   -6.2204    5.6551 O   0  0  0  0  0  0  0  0  0  0  0  0
    4.2248   -7.8346    4.6916 O   0  0  0  0  0  0  0  0  0  0  0  0
    4.9144   -7.9229    3.4559 C   0  0  2  0  0  0  0  0  0  0  0  0
    6.0409   -7.0542    3.3692 O   0  0  0  0  0  0  0  0  0  0  0  0
    5.7823   -5.6525    3.4655 C   0  0  0  0  0  0  0  0  0  0  0  0
    4.4670   -5.2312    2.7302 C   0  0  2  0  0  0  0  0  0  0  0  0
    4.1784   -3.7527    3.0759 C   0  0  0  0  0  0  0  0  0  0  0  0
    5.1577   -2.7629    2.4342 C   0  0  0  0  0  0  0  0  0  0  0  0
    5.0472   -2.7552    0.8947 C   0  0  1  0  0  0  0  0  0  0  0  0
    5.8756   -1.5816    0.2361 C   0  0  0  0  0  0  0  0  0  0  0  0
    5.4011   -1.2430   -1.2024 C   0  0  0  0  0  0  0  0  0  0  0  0
    5.6895   -0.2637    1.0129 C   0  0  0  0  0  0  0  0  0  0  0  0
    7.3785   -1.9181    0.2393 C   0  0  0  0  0  0  0  0  0  0  0  0
    7.6875   -3.2527   -0.4266 C   0  0  0  0  0  0  0  0  0  0  0  0
    6.9046   -4.3876    0.2482 C   0  0  0  0  0  0  0  0  0  0  0  0
    5.3633   -4.1860    0.3315 C   0  0  2  0  0  0  0  0  0  0  0  0
    4.7827   -4.2640   -1.1008 C   0  0  0  0  0  0  0  0  0  0  0  0
    4.6403   -5.3584    1.1539 C   0  0  1  0  0  0  0  0  0  0  0  0
    5.1387   -6.7857    0.7430 C   0  0  0  0  0  0  0  0  0  0  0  0
    4.3872   -7.9218    1.4243 C   0  0  2  0  0  0  0  0  0  0  0  0
    3.6387   -7.5313    2.6873 C   0  0  2  0  0  0  0  0  0  0  0  0
    5.0512   -9.0176    2.3554 C   0  0  1  0  0  0  0  0  0  0  0  0
    6.4601   -9.5256    2.0465 C   0  0  0  0  0  0  0  0  0  0  0  0
    4.3040  -10.1850    2.5859 O   0  0  0  0  0  0  0  0  0  0  0  0
   -2.2449   -7.5390    2.3851 H   0  0  0  0  0  0  0  0  0  0  0  0
   -1.2557   -8.3002    3.6277 H   0  0  0  0  0  0  0  0  0  0  0  0
   -1.2024   -8.9025    1.9691 H   0  0  0  0  0  0  0  0  0  0  0  0
   -0.1810   -7.4673    0.1444 H   0  0  0  0  0  0  0  0  0  0  0  0
    0.7843   -6.0858    0.4796 H   0  0  0  0  0  0  0  0  0  0  0  0
   -0.9804   -5.9709    0.5589 H   0  0  0  0  0  0  0  0  0  0  0  0
    0.6170   -7.0196    4.1756 H   0  0  0  0  0  0  0  0  0  0  0  0
    1.8339   -5.1475    2.0173 H   0  0  0  0  0  0  0  0  0  0  0  0
    1.6792   -4.8442    3.6985 H   0  0  0  0  0  0  0  0  0  0  0  0
    5.7304   -5.3899    4.5229 H   0  0  0  0  0  0  0  0  0  0  0  0
    6.6540   -5.1324    3.0841 H   0  0  0  0  0  0  0  0  0  0  0  0
    3.1949   -3.4664    2.7018 H   0  0  0  0  0  0  0  0  0  0  0  0
    4.1487   -3.6109    4.1605 H   0  0  0  0  0  0  0  0  0  0  0  0
    4.9017   -1.7930    2.8600 H   0  0  0  0  0  0  0  0  0  0  0  0
    6.1763   -2.9849    2.7437 H   0  0  0  0  0  0  0  0  0  0  0  0
    3.9961   -2.5323    0.6918 H   0  0  0  0  0  0  0  0  0  0  0  0
    5.7894   -0.2866   -1.5570 H   0  0  0  0  0  0  0  0  0  0  0  0
    4.3111   -1.1813   -1.2678 H   0  0  0  0  0  0  0  0  0  0  0  0
    5.7302   -1.9626   -1.9471 H   0  0  0  0  0  0  0  0  0  0  0  0
    6.1612    0.5485    0.4768 H   0  0  0  0  0  0  0  0  0  0  0  0
    6.1903   -0.2833    1.9797 H   0  0  0  0  0  0  0  0  0  0  0  0
    4.6334   -0.0160    1.1594 H   0  0  0  0  0  0  0  0  0  0  0  0
    7.9711   -1.1275   -0.2094 H   0  0  0  0  0  0  0  0  0  0  0  0
    7.7086   -1.9650    1.2680 H   0  0  0  0  0  0  0  0  0  0  0  0
    7.4989   -3.2108   -1.4963 H   0  0  0  0  0  0  0  0  0  0  0  0
    8.7528   -3.4514   -0.3364 H   0  0  0  0  0  0  0  0  0  0  0  0
    7.1204   -5.2994   -0.2922 H   0  0  0  0  0  0  0  0  0  0  0  0
    7.3258   -4.5250    1.2354 H   0  0  0  0  0  0  0  0  0  0  0  0
    4.4693   -5.2647   -1.3152 H   0  0  0  0  0  0  0  0  0  0  0  0
    5.4917   -4.0517   -1.8946 H   0  0  0  0  0  0  0  0  0  0  0  0
    3.8980   -3.6415   -1.2460 H   0  0  0  0  0  0  0  0  0  0  0  0
    3.6216   -5.3339    0.7773 H   0  0  0  0  0  0  0  0  0  0  0  0
    5.0383   -6.9260   -0.3224 H   0  0  0  0  0  0  0  0  0  0  0  0
    6.2041   -6.8714    0.9544 H   0  0  0  0  0  0  0  0  0  0  0  0
    3.7084   -8.4365    0.7424 H   0  0  0  0  0  0  0  0  0  0  0  0
    2.8290   -8.2485    2.7911 H   0  0  0  0  0  0  0  0  0  0  0  0
    7.1620   -8.7163    1.8772 H   0  0  0  0  0  0  0  0  0  0  0  0
    6.4841  -10.1703    1.1644 H   0  0  0  0  0  0  0  0  0  0  0  0
    6.8470  -10.0936    2.8944 H   0  0  0  0  0  0  0  0  0  0  0  0
    4.2751  -10.7062    1.7832 H   0  0  0  0  0  0  0  0  0  0  0  0
  1  2  1  0
  1 32  1  0
  1 33  1  0
  1 34  1  0
  2  3  1  0
  2  4  2  3
  3 35  1  0
  3 36  1  0
  3 37  1  0
  4  5  1  0
  4 38  1  0
  6  5  1  6
  5 39  1  0
  5 40  1  0
  6 13  1  0
  6 28  1  0
  6  7  1  0
  7  8  2  0
  7  9  1  0
 10  9  1  1
 10 28  1  0
 10 29  1  0
 10 11  1  0
 11 12  1  0
 13 12  1  1
 12 41  1  0
 12 42  1  0
 13 25  1  0
 13 14  1  0
 14 15  1  0
 14 43  1  0
 14 44  1  0
 15 16  1  0
 15 45  1  0
 15 46  1  0
 16 23  1  0
 16 17  1  0
 16 47  1  1
 17 18  1  0
 17 19  1  0
 17 20  1  0
 18 48  1  0
 18 49  1  0
 18 50  1  0
 19 51  1  0
 19 52  1  0
 19 53  1  0
 20 21  1  0
 20 54  1  0
 20 55  1  0
 21 22  1  0
 21 56  1  0
 21 57  1  0
 22 23  1  0
 22 58  1  0
 22 59  1  0
 23 24  1  6
 23 25  1  0
 24 60  1  0
 24 61  1  0
 24 62  1  0
 25 26  1  0
 25 63  1  6
 26 27  1  0
 26 64  1  0
 26 65  1  0
 27 28  1  0
 27 29  1  0
 27 66  1  6
 28 67  1  1
 29 30  1  0
 29 31  1  1
 30 68  1  0
 30 69  1  0
 30 70  1  0
 31 71  1  0
M  END
>  <i_m_ct_stereo_status>  (38) 
1

>  <s_m_source_file>  (38) 
/var/tmp/pbs.5076255.sched01/tmpgqtxr8g4/0xtbcsf6k.sdf

>  <i_m_source_file_index>  (38) 
13

>  <i_lp_mmshare_version>  (38) 
48012

>  <i_f3d_flags>  (38) 
0

>  <s_epik_input>  (38) 
W0NIM11DKFtDSDNdKT1bQ0hdW0NIMl1bQ0BAXShDKD1PKU8xKShbQ0BASF0yW0NAXTEzNClbQ0BAXTUoW0NIMl1PMylbQ0BIXShbQ0gyXVtDQEhdMltDQF00KFtDSDNdKVtPSF0pW0NAQF02KFtDSDNdKVtDQEBIXShbQ0gyXVtDSDJdNSlDKFtDSDNdKShbQ0gzXSlbQ0gyXVtDSDJdW0NIMl02

>  <s_epik_cmdline>  (38) 
J2VwaWtfcHl0aG9uJywgJy1waHQnLCAnMi4wJywgJy1waCcsICc3LjAnLCAnLXRuJywgJzgnLCAnLW1hJywgJzIwMCcsICctaW1hZScsICc8aW5maWxlLm1hZT4nLCAnLW9tYWUnLCAnPG91dGZpbGUubWFlPic=

>  <r_lp_tautomer_probability>  (38) 
1

>  <r_epik_Ionization_Penalty>  (38) 
4.0655e-08

>  <r_epik_Ionization_Penalty_Charging>  (38) 
0

>  <r_epik_Ionization_Penalty_Neutral>  (38) 
4.0655e-08

>  <r_epik_State_Penalty>  (38) 
-0

>  <r_epik_Charging_Adjusted_Penalty>  (38) 
0

>  <i_epik_Tot_Q>  (38) 
0

>  <i_epik_Tot_abs_Q>  (38) 
0

>  <s_epik_Chemistry_Notes>  (38) 
This compound has an ester and may undergo hydrolysis at high or low pH.

>  <s_lp_Force_Field>  (38) 
OPLS3e

>  <r_lp_Energy>  (38) 
118.568

>  <b_lp_Chiralities_Consistent>  (38) 
1

>  <s_lp_Variant>  (38) 
10:0-1

>  <s_i_glide_gridfile>  (38) 
pfpi4k_grid

>  <i_i_glide_lignum>  (38) 
13

>  <i_i_glide_rotatable_bonds>  (38) 
3

>  <r_i_docking_score>  (38) 
-2.39572

>  <r_i_glide_ligand_efficiency>  (38) 
-0.0772813

>  <r_i_glide_ligand_efficiency_sa>  (38) 
-0.24277

>  <r_i_glide_ligand_efficiency_ln>  (38) 
-0.540308

>  <r_i_glide_gscore>  (38) 
-2.39572

>  <r_i_glide_lipo>  (38) 
-0.746647

>  <r_i_glide_hbond>  (38) 
0

>  <r_i_glide_metal>  (38) 
-0

>  <r_i_glide_rewards>  (38) 
-0.48679

>  <r_i_glide_evdw>  (38) 
-20.9839

>  <r_i_glide_ecoul>  (38) 
-2.19576

>  <r_i_glide_erotb>  (38) 
0.216276

>  <r_i_glide_esite>  (38) 
0

>  <r_i_glide_emodel>  (38) 
-26.6557

>  <r_i_glide_energy>  (38) 
-23.1796

>  <r_i_glide_einternal>  (38) 
0.898611

>  <r_i_glide_intrahb_reward>  (38) 
-0

>  <i_i_glide_confnum>  (38) 
1

>  <i_i_glide_posenum>  (38) 
22

>  <r_i_glide_eff_state_penalty>  (38) 
0

>  <ligand_id>  (38) 
10

>  <original_smiles>  (38) 
CC(C)=CCC12C(=O)OC34OCC15CCC1C(C)(C)CCCC1(C)C5CC(C32)C4(C)O

>  <smiles>  (38) 
[H]OC1(C([H])([H])[H])C23OC(=O)C4(C([H])([H])C([H])=C(C([H])([H])[H])C([H])([H])[H])C2([H])C1([H])C([H])([H])C1([H])C2(C([H])([H])[H])C([H])([H])C([H])([H])C([H])([H])C(C([H])([H])[H])(C([H])([H])[H])C2([H])C([H])([H])C([H])([H])C14C([H])([H])O3

$$$$
10:0:2
     RDKit          3D

 71 76  0  0  1  0  0  0  0  0999 V2000
   -1.1134   -8.7049    3.6746 C   0  0  0  0  0  0  0  0  0  0  0  0
   -0.1395   -7.6832    3.1155 C   0  0  0  0  0  0  0  0  0  0  0  0
   -0.4569   -7.2443    1.6987 C   0  0  0  0  0  0  0  0  0  0  0  0
    0.8833   -7.2221    3.8511 C   0  0  0  0  0  0  0  0  0  0  0  0
    1.9142   -6.1665    3.4527 C   0  0  0  0  0  0  0  0  0  0  0  0
    3.4196   -6.5141    3.6689 C   0  0  2  0  0  0  0  0  0  0  0  0
    3.6581   -7.0252    5.1315 C   0  0  0  0  0  0  0  0  0  0  0  0
    3.0720   -6.6104    6.1230 O   0  0  0  0  0  0  0  0  0  0  0  0
    4.5753   -8.0419    5.0941 O   0  0  0  0  0  0  0  0  0  0  0  0
    5.2063   -8.0344    3.8339 C   0  0  2  0  0  0  0  0  0  0  0  0
    6.2244   -7.0252    3.7428 O   0  0  0  0  0  0  0  0  0  0  0  0
    5.7980   -5.6704    3.8331 C   0  0  0  0  0  0  0  0  0  0  0  0
    4.4330   -5.4140    3.1245 C   0  0  2  0  0  0  0  0  0  0  0  0
    3.9521   -3.9894    3.4795 C   0  0  0  0  0  0  0  0  0  0  0  0
    4.7913   -2.8902    2.8309 C   0  0  0  0  0  0  0  0  0  0  0  0
    4.6456   -2.8942    1.2876 C   0  0  1  0  0  0  0  0  0  0  0  0
    5.2907   -1.6170    0.6099 C   0  0  0  0  0  0  0  0  0  0  0  0
    4.7516   -1.3500   -0.8190 C   0  0  0  0  0  0  0  0  0  0  0  0
    4.9684   -0.3304    1.4003 C   0  0  0  0  0  0  0  0  0  0  0  0
    6.8220   -1.7583    0.5734 C   0  0  0  0  0  0  0  0  0  0  0  0
    7.2907   -3.0551   -0.0950 C   0  0  0  0  0  0  0  0  0  0  0  0
    6.6749   -4.2912    0.5808 C   0  0  0  0  0  0  0  0  0  0  0  0
    5.1180   -4.2853    0.6997 C   0  0  2  0  0  0  0  0  0  0  0  0
    4.5037   -4.4585   -0.7200 C   0  0  0  0  0  0  0  0  0  0  0  0
    4.5773   -5.5348    1.5425 C   0  0  1  0  0  0  0  0  0  0  0  0
    5.2573   -6.8890    1.1266 C   0  0  0  0  0  0  0  0  0  0  0  0
    4.6485   -8.1210    1.8175 C   0  0  2  0  0  0  0  0  0  0  0  0
    3.8804   -7.8082    3.0873 C   0  0  2  0  0  0  0  0  0  0  0  0
    5.4646   -9.1052    2.7487 C   0  0  1  0  0  0  0  0  0  0  0  0
    6.9183   -9.4287    2.3960 C   0  0  0  0  0  0  0  0  0  0  0  0
    4.8685  -10.3732    2.9950 O   0  0  0  0  0  0  0  0  0  0  0  0
   -2.1280   -8.3077    3.6893 H   0  0  0  0  0  0  0  0  0  0  0  0
   -0.8583   -8.9989    4.6954 H   0  0  0  0  0  0  0  0  0  0  0  0
   -1.1139   -9.6094    3.0644 H   0  0  0  0  0  0  0  0  0  0  0  0
   -0.6174   -8.1223    1.0759 H   0  0  0  0  0  0  0  0  0  0  0  0
    0.3108   -6.6438    1.2187 H   0  0  0  0  0  0  0  0  0  0  0  0
   -1.3811   -6.6687    1.7118 H   0  0  0  0  0  0  0  0  0  0  0  0
    0.9828   -7.6169    4.8514 H   0  0  0  0  0  0  0  0  0  0  0  0
    1.7772   -5.8341    2.4298 H   0  0  0  0  0  0  0  0  0  0  0  0
    1.6529   -5.3101    4.0771 H   0  0  0  0  0  0  0  0  0  0  0  0
    5.7423   -5.4121    4.8915 H   0  0  0  0  0  0  0  0  0  0  0  0
    6.5943   -5.0541    3.4345 H   0  0  0  0  0  0  0  0  0  0  0  0
    2.9366   -3.8282    3.1202 H   0  0  0  0  0  0  0  0  0  0  0  0
    3.9249   -3.8550    4.5634 H   0  0  0  0  0  0  0  0  0  0  0  0
    4.4228   -1.9597    3.2554 H   0  0  0  0  0  0  0  0  0  0  0  0
    5.8316   -2.9744    3.1282 H   0  0  0  0  0  0  0  0  0  0  0  0
    3.5702   -2.8098    1.1102 H   0  0  0  0  0  0  0  0  0  0  0  0
    5.0199   -0.3538   -1.1734 H   0  0  0  0  0  0  0  0  0  0  0  0
    3.6635   -1.4219   -0.8540 H   0  0  0  0  0  0  0  0  0  0  0  0
    5.1530   -2.0294   -1.5645 H   0  0  0  0  0  0  0  0  0  0  0  0
    5.2920    0.5420    0.8417 H   0  0  0  0  0  0  0  0  0  0  0  0
    5.4969   -0.2822    2.3538 H   0  0  0  0  0  0  0  0  0  0  0  0
    3.8974   -0.2248    1.5849 H   0  0  0  0  0  0  0  0  0  0  0  0
    7.2760   -0.8987    0.0831 H   0  0  0  0  0  0  0  0  0  0  0  0
    7.1867   -1.7349    1.5962 H   0  0  0  0  0  0  0  0  0  0  0  0
    7.0758   -3.0413   -1.1623 H   0  0  0  0  0  0  0  0  0  0  0  0
    8.3762   -3.1188   -0.0255 H   0  0  0  0  0  0  0  0  0  0  0  0
    7.0046   -5.1720    0.0378 H   0  0  0  0  0  0  0  0  0  0  0  0
    7.1279   -4.3703    1.5615 H   0  0  0  0  0  0  0  0  0  0  0  0
    4.2578   -5.4872   -0.9499 H   0  0  0  0  0  0  0  0  0  0  0  0
    5.1711   -4.1516   -1.5186 H   0  0  0  0  0  0  0  0  0  0  0  0
    3.5659   -3.9161   -0.8338 H   0  0  0  0  0  0  0  0  0  0  0  0
    3.5498   -5.6362    1.2010 H   0  0  0  0  0  0  0  0  0  0  0  0
    5.2098   -7.0357    0.0543 H   0  0  0  0  0  0  0  0  0  0  0  0
    6.3238   -6.8339    1.3352 H   0  0  0  0  0  0  0  0  0  0  0  0
    4.0177   -8.6876    1.1306 H   0  0  0  0  0  0  0  0  0  0  0  0
    3.1460   -8.6118    3.2289 H   0  0  0  0  0  0  0  0  0  0  0  0
    7.5105   -8.5323    2.2083 H   0  0  0  0  0  0  0  0  0  0  0  0
    7.0021  -10.0617    1.5107 H   0  0  0  0  0  0  0  0  0  0  0  0
    7.3990   -9.9432    3.2261 H   0  0  0  0  0  0  0  0  0  0  0  0
    4.7116  -10.7845    2.1553 H   0  0  0  0  0  0  0  0  0  0  0  0
  1  2  1  0
  1 32  1  0
  1 33  1  0
  1 34  1  0
  2  3  1  0
  2  4  2  3
  3 35  1  0
  3 36  1  0
  3 37  1  0
  4  5  1  0
  4 38  1  0
  6  5  1  1
  5 39  1  0
  5 40  1  0
  6 13  1  0
  6 28  1  0
  6  7  1  0
  7  8  2  0
  7  9  1  0
 10  9  1  1
 10 28  1  0
 10 29  1  0
 10 11  1  0
 11 12  1  0
 13 12  1  1
 12 41  1  0
 12 42  1  0
 13 25  1  0
 13 14  1  0
 14 15  1  0
 14 43  1  0
 14 44  1  0
 15 16  1  0
 15 45  1  0
 15 46  1  0
 16 23  1  0
 16 17  1  0
 16 47  1  1
 17 18  1  0
 17 19  1  0
 17 20  1  0
 18 48  1  0
 18 49  1  0
 18 50  1  0
 19 51  1  0
 19 52  1  0
 19 53  1  0
 20 21  1  0
 20 54  1  0
 20 55  1  0
 21 22  1  0
 21 56  1  0
 21 57  1  0
 22 23  1  0
 22 58  1  0
 22 59  1  0
 23 24  1  6
 23 25  1  0
 24 60  1  0
 24 61  1  0
 24 62  1  0
 25 26  1  0
 25 63  1  6
 26 27  1  0
 26 64  1  0
 26 65  1  0
 27 28  1  0
 27 29  1  0
 27 66  1  6
 28 67  1  1
 29 30  1  0
 29 31  1  1
 30 68  1  0
 30 69  1  0
 30 70  1  0
 31 71  1  0
M  END
>  <i_m_ct_stereo_status>  (39) 
1

>  <s_m_source_file>  (39) 
/var/tmp/pbs.5076255.sched01/tmpgqtxr8g4/0xtbcsf6k.sdf

>  <i_m_source_file_index>  (39) 
13

>  <i_lp_mmshare_version>  (39) 
48012

>  <i_f3d_flags>  (39) 
0

>  <s_epik_input>  (39) 
W0NIM11DKFtDSDNdKT1bQ0hdW0NIMl1bQ0BAXShDKD1PKU8xKShbQ0BASF0yW0NAXTEzNClbQ0BAXTUoW0NIMl1PMylbQ0BIXShbQ0gyXVtDQEhdMltDQF00KFtDSDNdKVtPSF0pW0NAQF02KFtDSDNdKVtDQEBIXShbQ0gyXVtDSDJdNSlDKFtDSDNdKShbQ0gzXSlbQ0gyXVtDSDJdW0NIMl02

>  <s_epik_cmdline>  (39) 
J2VwaWtfcHl0aG9uJywgJy1waHQnLCAnMi4wJywgJy1waCcsICc3LjAnLCAnLXRuJywgJzgnLCAnLW1hJywgJzIwMCcsICctaW1hZScsICc8aW5maWxlLm1hZT4nLCAnLW9tYWUnLCAnPG91dGZpbGUubWFlPic=

>  <r_lp_tautomer_probability>  (39) 
1

>  <r_epik_Ionization_Penalty>  (39) 
4.0655e-08

>  <r_epik_Ionization_Penalty_Charging>  (39) 
0

>  <r_epik_Ionization_Penalty_Neutral>  (39) 
4.0655e-08

>  <r_epik_State_Penalty>  (39) 
-0

>  <r_epik_Charging_Adjusted_Penalty>  (39) 
0

>  <i_epik_Tot_Q>  (39) 
0

>  <i_epik_Tot_abs_Q>  (39) 
0

>  <s_epik_Chemistry_Notes>  (39) 
This compound has an ester and may undergo hydrolysis at high or low pH.

>  <s_lp_Force_Field>  (39) 
OPLS3e

>  <r_lp_Energy>  (39) 
118.568

>  <b_lp_Chiralities_Consistent>  (39) 
1

>  <s_lp_Variant>  (39) 
10:0-1

>  <s_i_glide_gridfile>  (39) 
pfpi4k_grid

>  <i_i_glide_lignum>  (39) 
13

>  <i_i_glide_rotatable_bonds>  (39) 
3

>  <r_i_docking_score>  (39) 
-2.28357

>  <r_i_glide_ligand_efficiency>  (39) 
-0.0736636

>  <r_i_glide_ligand_efficiency_sa>  (39) 
-0.231405

>  <r_i_glide_ligand_efficiency_ln>  (39) 
-0.515015

>  <r_i_glide_gscore>  (39) 
-2.28357

>  <r_i_glide_lipo>  (39) 
-0.783056

>  <r_i_glide_hbond>  (39) 
0

>  <r_i_glide_metal>  (39) 
-0

>  <r_i_glide_rewards>  (39) 
-0.48679

>  <r_i_glide_evdw>  (39) 
-21.1074

>  <r_i_glide_ecoul>  (39) 
-1.16421

>  <r_i_glide_erotb>  (39) 
0.216276

>  <r_i_glide_esite>  (39) 
0

>  <r_i_glide_emodel>  (39) 
-25.698

>  <r_i_glide_energy>  (39) 
-22.2716

>  <r_i_glide_einternal>  (39) 
0.762465

>  <r_i_glide_intrahb_reward>  (39) 
-0

>  <i_i_glide_confnum>  (39) 
2

>  <i_i_glide_posenum>  (39) 
20

>  <r_i_glide_eff_state_penalty>  (39) 
0

>  <ligand_id>  (39) 
10

>  <original_smiles>  (39) 
CC(C)=CCC12C(=O)OC34OCC15CCC1C(C)(C)CCCC1(C)C5CC(C32)C4(C)O

>  <smiles>  (39) 
[H]OC1(C([H])([H])[H])C23OC(=O)C4(C([H])([H])C([H])=C(C([H])([H])[H])C([H])([H])[H])C2([H])C1([H])C([H])([H])C1([H])C2(C([H])([H])[H])C([H])([H])C([H])([H])C([H])([H])C(C([H])([H])[H])(C([H])([H])[H])C2([H])C([H])([H])C([H])([H])C14C([H])([H])O3

$$$$
11:0:0
     RDKit          3D

 39 43  0  0  1  0  0  0  0  0999 V2000
    3.0518   -1.5182   -2.7380 C   0  0  0  0  0  0  0  0  0  0  0  0
    4.0568   -2.5116   -2.1569 C   0  0  0  0  0  0  0  0  0  0  0  0
    4.5180   -3.4188   -3.3228 C   0  0  0  0  0  0  0  0  0  0  0  0
    5.2650   -1.7338   -1.5765 C   0  0  0  0  0  0  0  0  0  0  0  0
    6.2786   -2.6691   -0.9081 C   0  0  1  0  0  0  0  0  0  0  0  0
    7.3193   -1.9274   -0.3327 O   0  0  0  0  0  0  0  0  0  0  0  0
    5.5840   -3.4527    0.1834 C   0  0  2  0  0  0  0  0  0  0  0  0
    5.3984   -2.7361    1.4245 O   0  0  0  0  0  0  0  0  0  0  0  0
    6.0910   -4.0006    1.4530 C   0  0  1  0  0  0  0  0  0  0  0  0
    5.2976   -5.2293    1.7855 C   0  0  2  0  0  0  0  0  0  0  0  0
    5.9642   -6.5276    1.3303 C   0  0  0  0  0  0  0  0  0  0  0  0
    4.0546   -4.9982    0.9721 C   0  0  0  0  0  0  0  0  0  0  0  0
    2.8912   -5.0899    1.6308 C   0  0  0  0  0  0  0  0  0  0  0  0
    3.2038   -5.3427    3.0599 C   0  0  2  0  0  0  0  0  0  0  0  0
    3.8678   -4.2968    3.7696 O   0  0  0  0  0  0  0  0  0  0  0  0
    4.7216   -5.2862    3.2067 C   0  0  2  0  0  0  0  0  0  0  0  0
    5.2559   -6.1787    4.1543 O   0  0  0  0  0  0  0  0  0  0  0  0
    4.3997   -4.2505   -0.3164 C   0  0  1  0  0  0  0  0  0  0  0  0
    3.3637   -3.3408   -1.0228 C   0  0  0  0  0  0  0  0  0  0  0  0
    3.4874   -0.8996   -3.5227 H   0  0  0  0  0  0  0  0  0  0  0  0
    2.6849   -0.8542   -1.9614 H   0  0  0  0  0  0  0  0  0  0  0  0
    2.1958   -2.0446   -3.1604 H   0  0  0  0  0  0  0  0  0  0  0  0
    5.2611   -4.1564   -3.0221 H   0  0  0  0  0  0  0  0  0  0  0  0
    4.9691   -2.8276   -4.1198 H   0  0  0  0  0  0  0  0  0  0  0  0
    3.6865   -3.9805   -3.7585 H   0  0  0  0  0  0  0  0  0  0  0  0
    5.7592   -1.1359   -2.3362 H   0  0  0  0  0  0  0  0  0  0  0  0
    4.8990   -1.0221   -0.8408 H   0  0  0  0  0  0  0  0  0  0  0  0
    6.7218   -3.3524   -1.6348 H   0  0  0  0  0  0  0  0  0  0  0  0
    6.9711   -1.5379    0.4611 H   0  0  0  0  0  0  0  0  0  0  0  0
    7.1337   -3.9634    1.6981 H   0  0  0  0  0  0  0  0  0  0  0  0
    6.8715   -6.7293    1.8804 H   0  0  0  0  0  0  0  0  0  0  0  0
    6.2182   -6.4382    0.2824 H   0  0  0  0  0  0  0  0  0  0  0  0
    5.2934   -7.3770    1.4308 H   0  0  0  0  0  0  0  0  0  0  0  0
    1.9356   -4.7771    1.2510 H   0  0  0  0  0  0  0  0  0  0  0  0
    2.5759   -6.0378    3.6218 H   0  0  0  0  0  0  0  0  0  0  0  0
    4.7919   -7.0066    4.1234 H   0  0  0  0  0  0  0  0  0  0  0  0
    4.7429   -5.0068   -1.0149 H   0  0  0  0  0  0  0  0  0  0  0  0
    2.9321   -2.6580   -0.2894 H   0  0  0  0  0  0  0  0  0  0  0  0
    2.5324   -3.9329   -1.4301 H   0  0  0  0  0  0  0  0  0  0  0  0
  1  2  1  0
  1 20  1  0
  1 21  1  0
  1 22  1  0
  2 19  1  0
  2  3  1  0
  2  4  1  0
  3 23  1  0
  3 24  1  0
  3 25  1  0
  4  5  1  0
  4 26  1  0
  4 27  1  0
  5  6  1  0
  5  7  1  0
  5 28  1  6
  6 29  1  0
  7  9  1  0
  7 18  1  0
  7  8  1  1
  8  9  1  0
  9 10  1  0
  9 30  1  6
 10 16  1  0
 10 11  1  6
 10 12  1  0
 11 31  1  0
 11 32  1  0
 11 33  1  0
 12 13  2  0
 12 18  1  0
 13 14  1  0
 13 34  1  0
 14 16  1  0
 14 15  1  0
 14 35  1  1
 15 16  1  0
 16 17  1  1
 17 36  1  0
 18 19  1  0
 18 37  1  6
 19 38  1  0
 19 39  1  0
M  END
>  <i_m_ct_stereo_status>  (40) 
1

>  <s_m_source_file>  (40) 
/var/tmp/pbs.5076255.sched01/tmpgqtxr8g4/0xtbcsf6k.sdf

>  <i_m_source_file_index>  (40) 
14

>  <i_lp_mmshare_version>  (40) 
48012

>  <i_f3d_flags>  (40) 
0

>  <s_epik_input>  (40) 
W09IXVtDQEBIXTFbQ0gyXUMoW0NIM10pKFtDSDNdKVtDSDJdW0NAQEhdMkMoW0NAXTMoW0NAQEhdKFtDQEBdMTI0KU80KVtDSDNdKT1bQ0hdW0NASF01W0NAQF0zKE81KVtPSF0=

>  <s_epik_cmdline>  (40) 
J2VwaWtfcHl0aG9uJywgJy1waHQnLCAnMi4wJywgJy1waCcsICc3LjAnLCAnLXRuJywgJzgnLCAnLW1hJywgJzIwMCcsICctaW1hZScsICc8aW5maWxlLm1hZT4nLCAnLW9tYWUnLCAnPG91dGZpbGUubWFlPic=

>  <r_lp_tautomer_probability>  (40) 
1

>  <r_epik_Ionization_Penalty>  (40) 
1.70896e-05

>  <r_epik_Ionization_Penalty_Charging>  (40) 
0

>  <r_epik_Ionization_Penalty_Neutral>  (40) 
1.70896e-05

>  <r_epik_State_Penalty>  (40) 
-0

>  <r_epik_Charging_Adjusted_Penalty>  (40) 
0

>  <i_epik_Tot_Q>  (40) 
0

>  <i_epik_Tot_abs_Q>  (40) 
0

>  <s_lp_Force_Field>  (40) 
OPLS3e

>  <r_lp_Energy>  (40) 
25.5055

>  <b_lp_Chiralities_Consistent>  (40) 
1

>  <s_lp_Variant>  (40) 
11:0-1

>  <s_i_glide_gridfile>  (40) 
pfpi4k_grid

>  <i_i_glide_lignum>  (40) 
14

>  <i_i_glide_rotatable_bonds>  (40) 
2

>  <r_i_docking_score>  (40) 
-3.57991

>  <r_i_glide_ligand_efficiency>  (40) 
-0.188416

>  <r_i_glide_ligand_efficiency_sa>  (40) 
-0.50277

>  <r_i_glide_ligand_efficiency_ln>  (40) 
-0.907583

>  <r_i_glide_gscore>  (40) 
-3.57991

>  <r_i_glide_lipo>  (40) 
-0.520375

>  <r_i_glide_hbond>  (40) 
0

>  <r_i_glide_metal>  (40) 
-0

>  <r_i_glide_rewards>  (40) 
-1.60779

>  <r_i_glide_evdw>  (40) 
-21.314

>  <r_i_glide_ecoul>  (40) 
-2.57359

>  <r_i_glide_erotb>  (40) 
0

>  <r_i_glide_esite>  (40) 
0

>  <r_i_glide_emodel>  (40) 
-28.7909

>  <r_i_glide_energy>  (40) 
-23.8876

>  <r_i_glide_einternal>  (40) 
0.645572

>  <r_i_glide_intrahb_reward>  (40) 
-0

>  <i_i_glide_confnum>  (40) 
2

>  <i_i_glide_posenum>  (40) 
26

>  <r_i_glide_eff_state_penalty>  (40) 
0

>  <ligand_id>  (40) 
11

>  <original_smiles>  (40) 
CC1(C)CC(O)C23OC2C2(C)C(=CC4OC42O)C3C1

>  <smiles>  (40) 
[H]OC1([H])C([H])([H])C(C([H])([H])[H])(C([H])([H])[H])C([H])([H])C2([H])C3=C([H])C4([H])OC4(O[H])C3(C([H])([H])[H])C3([H])OC132

$$$$
11:0:1
     RDKit          3D

 39 43  0  0  1  0  0  0  0  0999 V2000
    3.0639   -1.5133   -2.7409 C   0  0  0  0  0  0  0  0  0  0  0  0
    4.0605   -2.5082   -2.1490 C   0  0  0  0  0  0  0  0  0  0  0  0
    4.5156   -3.4171   -3.3133 C   0  0  0  0  0  0  0  0  0  0  0  0
    5.2738   -1.7341   -1.5731 C   0  0  0  0  0  0  0  0  0  0  0  0
    6.2824   -2.6734   -0.9077 C   0  0  1  0  0  0  0  0  0  0  0  0
    7.3241   -1.9348   -0.3361 O   0  0  0  0  0  0  0  0  0  0  0  0
    5.5810   -3.4351    0.1923 C   0  0  2  0  0  0  0  0  0  0  0  0
    5.4120   -2.7240    1.4389 O   0  0  0  0  0  0  0  0  0  0  0  0
    6.0941   -3.9958    1.4582 C   0  0  1  0  0  0  0  0  0  0  0  0
    5.2966   -5.2245    1.7943 C   0  0  2  0  0  0  0  0  0  0  0  0
    5.9607   -6.5181    1.3437 C   0  0  0  0  0  0  0  0  0  0  0  0
    4.0550   -4.9886    0.9798 C   0  0  0  0  0  0  0  0  0  0  0  0
    2.8931   -5.0683    1.6340 C   0  0  0  0  0  0  0  0  0  0  0  0
    3.1944   -5.3067    3.0653 C   0  0  2  0  0  0  0  0  0  0  0  0
    3.8875   -4.2620    3.7727 O   0  0  0  0  0  0  0  0  0  0  0  0
    4.7074   -5.2837    3.2047 C   0  0  2  0  0  0  0  0  0  0  0  0
    5.2873   -6.1422    4.1695 O   0  0  0  0  0  0  0  0  0  0  0  0
    4.3997   -4.2334   -0.3040 C   0  0  1  0  0  0  0  0  0  0  0  0
    3.3610   -3.3261   -1.0159 C   0  0  0  0  0  0  0  0  0  0  0  0
    3.5031   -0.8995   -3.5269 H   0  0  0  0  0  0  0  0  0  0  0  0
    2.6988   -0.8453   -1.9659 H   0  0  0  0  0  0  0  0  0  0  0  0
    2.2067   -2.0396   -3.1615 H   0  0  0  0  0  0  0  0  0  0  0  0
    5.2556   -4.1560   -3.0130 H   0  0  0  0  0  0  0  0  0  0  0  0
    4.9706   -2.8275   -4.1130 H   0  0  0  0  0  0  0  0  0  0  0  0
    3.6810   -3.9769   -3.7466 H   0  0  0  0  0  0  0  0  0  0  0  0
    5.7723   -1.1402   -2.3313 H   0  0  0  0  0  0  0  0  0  0  0  0
    4.9112   -1.0218   -0.8372 H   0  0  0  0  0  0  0  0  0  0  0  0
    6.7160   -3.3674   -1.6288 H   0  0  0  0  0  0  0  0  0  0  0  0
    6.9736   -1.5438    0.4537 H   0  0  0  0  0  0  0  0  0  0  0  0
    7.1396   -3.9625    1.6946 H   0  0  0  0  0  0  0  0  0  0  0  0
    6.8692   -6.7288    1.8919 H   0  0  0  0  0  0  0  0  0  0  0  0
    6.2137   -6.4394    0.2926 H   0  0  0  0  0  0  0  0  0  0  0  0
    5.2846   -7.3637    1.4532 H   0  0  0  0  0  0  0  0  0  0  0  0
    1.9475   -4.7455    1.2430 H   0  0  0  0  0  0  0  0  0  0  0  0
    2.5876   -6.0152    3.6208 H   0  0  0  0  0  0  0  0  0  0  0  0
    6.1770   -5.8578    4.3243 H   0  0  0  0  0  0  0  0  0  0  0  0
    4.7446   -4.9941   -0.9995 H   0  0  0  0  0  0  0  0  0  0  0  0
    2.9357   -2.6448   -0.2817 H   0  0  0  0  0  0  0  0  0  0  0  0
    2.5326   -3.9246   -1.4166 H   0  0  0  0  0  0  0  0  0  0  0  0
  1  2  1  0
  1 20  1  0
  1 21  1  0
  1 22  1  0
  2 19  1  0
  2  3  1  0
  2  4  1  0
  3 23  1  0
  3 24  1  0
  3 25  1  0
  4  5  1  0
  4 26  1  0
  4 27  1  0
  5  6  1  0
  5  7  1  0
  5 28  1  6
  6 29  1  0
  7  9  1  0
  7 18  1  0
  7  8  1  1
  8  9  1  0
  9 10  1  0
  9 30  1  6
 10 16  1  0
 10 11  1  6
 10 12  1  0
 11 31  1  0
 11 32  1  0
 11 33  1  0
 12 13  2  0
 12 18  1  0
 13 14  1  0
 13 34  1  0
 14 16  1  0
 14 15  1  0
 14 35  1  1
 15 16  1  0
 16 17  1  1
 17 36  1  0
 18 19  1  0
 18 37  1  6
 19 38  1  0
 19 39  1  0
M  END
>  <i_m_ct_stereo_status>  (41) 
1

>  <s_m_source_file>  (41) 
/var/tmp/pbs.5076255.sched01/tmpgqtxr8g4/0xtbcsf6k.sdf

>  <i_m_source_file_index>  (41) 
14

>  <i_lp_mmshare_version>  (41) 
48012

>  <i_f3d_flags>  (41) 
0

>  <s_epik_input>  (41) 
W09IXVtDQEBIXTFbQ0gyXUMoW0NIM10pKFtDSDNdKVtDSDJdW0NAQEhdMkMoW0NAXTMoW0NAQEhdKFtDQEBdMTI0KU80KVtDSDNdKT1bQ0hdW0NASF01W0NAQF0zKE81KVtPSF0=

>  <s_epik_cmdline>  (41) 
J2VwaWtfcHl0aG9uJywgJy1waHQnLCAnMi4wJywgJy1waCcsICc3LjAnLCAnLXRuJywgJzgnLCAnLW1hJywgJzIwMCcsICctaW1hZScsICc8aW5maWxlLm1hZT4nLCAnLW9tYWUnLCAnPG91dGZpbGUubWFlPic=

>  <r_lp_tautomer_probability>  (41) 
1

>  <r_epik_Ionization_Penalty>  (41) 
1.70896e-05

>  <r_epik_Ionization_Penalty_Charging>  (41) 
0

>  <r_epik_Ionization_Penalty_Neutral>  (41) 
1.70896e-05

>  <r_epik_State_Penalty>  (41) 
-0

>  <r_epik_Charging_Adjusted_Penalty>  (41) 
0

>  <i_epik_Tot_Q>  (41) 
0

>  <i_epik_Tot_abs_Q>  (41) 
0

>  <s_lp_Force_Field>  (41) 
OPLS3e

>  <r_lp_Energy>  (41) 
25.5055

>  <b_lp_Chiralities_Consistent>  (41) 
1

>  <s_lp_Variant>  (41) 
11:0-1

>  <s_i_glide_gridfile>  (41) 
pfpi4k_grid

>  <i_i_glide_lignum>  (41) 
14

>  <i_i_glide_rotatable_bonds>  (41) 
2

>  <r_i_docking_score>  (41) 
-3.547

>  <r_i_glide_ligand_efficiency>  (41) 
-0.186684

>  <r_i_glide_ligand_efficiency_sa>  (41) 
-0.498148

>  <r_i_glide_ligand_efficiency_ln>  (41) 
-0.899239

>  <r_i_glide_gscore>  (41) 
-3.547

>  <r_i_glide_lipo>  (41) 
-0.514199

>  <r_i_glide_hbond>  (41) 
0

>  <r_i_glide_metal>  (41) 
-0

>  <r_i_glide_rewards>  (41) 
-1.60781

>  <r_i_glide_evdw>  (41) 
-21.3599

>  <r_i_glide_ecoul>  (41) 
-2.37997

>  <r_i_glide_erotb>  (41) 
0

>  <r_i_glide_esite>  (41) 
0

>  <r_i_glide_emodel>  (41) 
-28.826

>  <r_i_glide_energy>  (41) 
-23.7399

>  <r_i_glide_einternal>  (41) 
0.137029

>  <r_i_glide_intrahb_reward>  (41) 
-0

>  <i_i_glide_confnum>  (41) 
2

>  <i_i_glide_posenum>  (41) 
30

>  <r_i_glide_eff_state_penalty>  (41) 
0

>  <ligand_id>  (41) 
11

>  <original_smiles>  (41) 
CC1(C)CC(O)C23OC2C2(C)C(=CC4OC42O)C3C1

>  <smiles>  (41) 
[H]OC1([H])C([H])([H])C(C([H])([H])[H])(C([H])([H])[H])C([H])([H])C2([H])C3=C([H])C4([H])OC4(O[H])C3(C([H])([H])[H])C3([H])OC132

$$$$
11:0:2
     RDKit          3D

 39 43  0  0  1  0  0  0  0  0999 V2000
    5.0820   -3.1405   -2.8683 C   0  0  0  0  0  0  0  0  0  0  0  0
    5.0981   -2.9792   -1.3460 C   0  0  0  0  0  0  0  0  0  0  0  0
    6.5488   -2.6878   -0.9103 C   0  0  0  0  0  0  0  0  0  0  0  0
    4.1873   -1.7812   -0.9576 C   0  0  0  0  0  0  0  0  0  0  0  0
    4.0527   -1.6245    0.5658 C   0  0  1  0  0  0  0  0  0  0  0  0
    3.1162   -0.6094    0.8674 O   0  0  0  0  0  0  0  0  0  0  0  0
    3.6088   -2.9434    1.1655 C   0  0  2  0  0  0  0  0  0  0  0  0
    2.2036   -3.1700    1.0140 O   0  0  0  0  0  0  0  0  0  0  0  0
    2.7434   -3.2186    2.3513 C   0  0  1  0  0  0  0  0  0  0  0  0
    3.0773   -4.5761    2.8991 C   0  0  2  0  0  0  0  0  0  0  0  0
    4.1268   -4.5158    4.0225 C   0  0  0  0  0  0  0  0  0  0  0  0
    3.7098   -5.1948    1.6706 C   0  0  0  0  0  0  0  0  0  0  0  0
    3.2082   -6.3694    1.3233 C   0  0  0  0  0  0  0  0  0  0  0  0
    2.0878   -6.7186    2.2409 C   0  0  2  0  0  0  0  0  0  0  0  0
    0.9287   -5.8791    2.1660 O   0  0  0  0  0  0  0  0  0  0  0  0
    1.8888   -5.5206    3.1704 C   0  0  2  0  0  0  0  0  0  0  0  0
    1.5157   -5.8348    4.4913 O   0  0  0  0  0  0  0  0  0  0  0  0
    4.4600   -4.1428    0.8412 C   0  0  1  0  0  0  0  0  0  0  0  0
    4.5833   -4.3036   -0.6909 C   0  0  0  0  0  0  0  0  0  0  0  0
    5.4061   -2.2289   -3.3636 H   0  0  0  0  0  0  0  0  0  0  0  0
    4.0782   -3.3718   -3.2225 H   0  0  0  0  0  0  0  0  0  0  0  0
    5.7501   -3.9426   -3.1782 H   0  0  0  0  0  0  0  0  0  0  0  0
    6.6350   -2.5270    0.1659 H   0  0  0  0  0  0  0  0  0  0  0  0
    6.9092   -1.7842   -1.3952 H   0  0  0  0  0  0  0  0  0  0  0  0
    7.2313   -3.4980   -1.1677 H   0  0  0  0  0  0  0  0  0  0  0  0
    4.5400   -0.8471   -1.3990 H   0  0  0  0  0  0  0  0  0  0  0  0
    3.1937   -1.9565   -1.3690 H   0  0  0  0  0  0  0  0  0  0  0  0
    5.0076   -1.3446    1.0179 H   0  0  0  0  0  0  0  0  0  0  0  0
    2.3218   -0.7744    0.3589 H   0  0  0  0  0  0  0  0  0  0  0  0
    2.4109   -2.4344    3.0074 H   0  0  0  0  0  0  0  0  0  0  0  0
    3.7209   -4.0548    4.9128 H   0  0  0  0  0  0  0  0  0  0  0  0
    4.9909   -3.9377    3.7083 H   0  0  0  0  0  0  0  0  0  0  0  0
    4.4820   -5.5128    4.2646 H   0  0  0  0  0  0  0  0  0  0  0  0
    3.4377   -6.8826    0.3936 H   0  0  0  0  0  0  0  0  0  0  0  0
    2.0098   -7.7454    2.5932 H   0  0  0  0  0  0  0  0  0  0  0  0
    2.0308   -6.5756    4.7794 H   0  0  0  0  0  0  0  0  0  0  0  0
    5.4343   -4.0177    1.2985 H   0  0  0  0  0  0  0  0  0  0  0  0
    3.6044   -4.5438   -1.1108 H   0  0  0  0  0  0  0  0  0  0  0  0
    5.2436   -5.1443   -0.9284 H   0  0  0  0  0  0  0  0  0  0  0  0
  1  2  1  0
  1 20  1  0
  1 21  1  0
  1 22  1  0
  2 19  1  0
  2  3  1  0
  2  4  1  0
  3 23  1  0
  3 24  1  0
  3 25  1  0
  4  5  1  0
  4 26  1  0
  4 27  1  0
  5  6  1  0
  5  7  1  0
  5 28  1  1
  6 29  1  0
  7  9  1  0
  7 18  1  0
  7  8  1  6
  8  9  1  0
  9 10  1  0
  9 30  1  1
 10 16  1  0
 10 11  1  1
 10 12  1  0
 11 31  1  0
 11 32  1  0
 11 33  1  0
 12 13  2  0
 12 18  1  0
 13 14  1  0
 13 34  1  0
 14 16  1  0
 14 15  1  0
 14 35  1  1
 15 16  1  0
 16 17  1  1
 17 36  1  0
 18 19  1  0
 18 37  1  1
 19 38  1  0
 19 39  1  0
M  END
>  <i_m_ct_stereo_status>  (42) 
1

>  <s_m_source_file>  (42) 
/var/tmp/pbs.5076255.sched01/tmpgqtxr8g4/0xtbcsf6k.sdf

>  <i_m_source_file_index>  (42) 
14

>  <i_lp_mmshare_version>  (42) 
48012

>  <i_f3d_flags>  (42) 
0

>  <s_epik_input>  (42) 
W09IXVtDQEBIXTFbQ0gyXUMoW0NIM10pKFtDSDNdKVtDSDJdW0NAQEhdMkMoW0NAXTMoW0NAQEhdKFtDQEBdMTI0KU80KVtDSDNdKT1bQ0hdW0NASF01W0NAQF0zKE81KVtPSF0=

>  <s_epik_cmdline>  (42) 
J2VwaWtfcHl0aG9uJywgJy1waHQnLCAnMi4wJywgJy1waCcsICc3LjAnLCAnLXRuJywgJzgnLCAnLW1hJywgJzIwMCcsICctaW1hZScsICc8aW5maWxlLm1hZT4nLCAnLW9tYWUnLCAnPG91dGZpbGUubWFlPic=

>  <r_lp_tautomer_probability>  (42) 
1

>  <r_epik_Ionization_Penalty>  (42) 
1.70896e-05

>  <r_epik_Ionization_Penalty_Charging>  (42) 
0

>  <r_epik_Ionization_Penalty_Neutral>  (42) 
1.70896e-05

>  <r_epik_State_Penalty>  (42) 
-0

>  <r_epik_Charging_Adjusted_Penalty>  (42) 
0

>  <i_epik_Tot_Q>  (42) 
0

>  <i_epik_Tot_abs_Q>  (42) 
0

>  <s_lp_Force_Field>  (42) 
OPLS3e

>  <r_lp_Energy>  (42) 
25.5055

>  <b_lp_Chiralities_Consistent>  (42) 
1

>  <s_lp_Variant>  (42) 
11:0-1

>  <s_i_glide_gridfile>  (42) 
pfpi4k_grid

>  <i_i_glide_lignum>  (42) 
14

>  <i_i_glide_rotatable_bonds>  (42) 
2

>  <r_i_docking_score>  (42) 
-3.3756

>  <r_i_glide_ligand_efficiency>  (42) 
-0.177663

>  <r_i_glide_ligand_efficiency_sa>  (42) 
-0.474077

>  <r_i_glide_ligand_efficiency_ln>  (42) 
-0.855788

>  <r_i_glide_gscore>  (42) 
-3.3756

>  <r_i_glide_lipo>  (42) 
-0.317324

>  <r_i_glide_hbond>  (42) 
-0.079614

>  <r_i_glide_metal>  (42) 
-0

>  <r_i_glide_rewards>  (42) 
-1.60693

>  <r_i_glide_evdw>  (42) 
-18.7763

>  <r_i_glide_ecoul>  (42) 
-2.8192

>  <r_i_glide_erotb>  (42) 
0

>  <r_i_glide_esite>  (42) 
-0.0100379

>  <r_i_glide_emodel>  (42) 
-26.3612

>  <r_i_glide_energy>  (42) 
-21.5955

>  <r_i_glide_einternal>  (42) 
0.682185

>  <r_i_glide_intrahb_reward>  (42) 
-0

>  <i_i_glide_confnum>  (42) 
2

>  <i_i_glide_posenum>  (42) 
29

>  <r_i_glide_eff_state_penalty>  (42) 
0

>  <ligand_id>  (42) 
11

>  <original_smiles>  (42) 
CC1(C)CC(O)C23OC2C2(C)C(=CC4OC42O)C3C1

>  <smiles>  (42) 
[H]OC1([H])C([H])([H])C(C([H])([H])[H])(C([H])([H])[H])C([H])([H])C2([H])C3=C([H])C4([H])OC4(O[H])C3(C([H])([H])[H])C3([H])OC132

$$$$
12:0:0
     RDKit          3D

 57 59  0  0  1  0  0  0  0  0999 V2000
   -1.9249    4.8340    3.0960 C   0  0  0  0  0  0  0  0  0  0  0  0
   -2.0715    3.3586    3.4900 C   0  0  0  0  0  0  0  0  0  0  0  0
   -3.2142    2.9447    3.6909 O   0  0  0  0  0  0  0  0  0  0  0  0
   -0.9771    2.6187    3.6541 N   0  0  0  0  0  0  0  0  0  0  0  0
   -1.0406    1.2421    4.1880 C   0  0  0  0  0  0  0  0  0  0  0  0
   -0.2981    0.2923    3.2634 C   0  0  0  0  0  0  0  0  0  0  0  0
    1.1540    0.7357    2.9695 C   0  0  0  0  0  0  0  0  0  0  0  0
    1.8676   -0.1843    2.0484 N   0  0  1  0  0  0  0  0  0  0  0  0
    3.3084    0.1530    1.8734 C   0  0  0  0  0  0  0  0  0  0  0  0
    4.0182   -0.7937    0.8862 C   0  0  1  0  0  0  0  0  0  0  0  0
    5.5130   -0.4391    0.8370 C   0  0  0  0  0  0  0  0  0  0  0  0
    3.8704   -2.2058    1.2809 N   0  0  0  0  0  0  0  0  0  0  0  0
    4.4202   -3.1296    0.2772 C   0  0  0  0  0  0  0  0  0  0  0  0
    4.0458   -2.8313   -1.1818 C   0  0  0  0  0  0  0  0  0  0  0  0
    4.8227   -2.1391   -2.0194 N   0  0  0  0  0  0  0  0  0  0  0  0
    4.1889   -1.9436   -3.2164 C   0  0  0  0  0  0  0  0  0  0  0  0
    2.9795   -2.5893   -3.0962 C   0  0  0  0  0  0  0  0  0  0  0  0
    2.9412   -3.1501   -1.8447 N   0  0  0  0  0  0  0  0  0  0  0  0
    1.8187   -3.9836   -1.3761 C   0  0  0  0  0  0  0  0  0  0  0  0
    2.4541   -2.4600    1.4188 C   0  0  0  0  0  0  0  0  0  0  0  0
    1.7507   -1.6187    2.4398 C   0  0  1  0  0  0  0  0  0  0  0  0
    2.2392   -1.9216    3.8734 C   0  0  0  0  0  0  0  0  0  0  0  0
    1.1332    2.1714    2.4439 C   0  0  0  0  0  0  0  0  0  0  0  0
    0.3992    3.0903    3.4155 C   0  0  0  0  0  0  0  0  0  0  0  0
   -1.5544    4.9280    2.0800 H   0  0  0  0  0  0  0  0  0  0  0  0
   -1.2374    5.3366    3.7804 H   0  0  0  0  0  0  0  0  0  0  0  0
   -2.8965    5.3117    3.1114 H   0  0  0  0  0  0  0  0  0  0  0  0
   -0.5833    1.2034    5.1755 H   0  0  0  0  0  0  0  0  0  0  0  0
   -2.0588    0.8548    4.2990 H   0  0  0  0  0  0  0  0  0  0  0  0
   -0.3469   -0.6612    3.7814 H   0  0  0  0  0  0  0  0  0  0  0  0
   -0.8387    0.1883    2.3243 H   0  0  0  0  0  0  0  0  0  0  0  0
    1.7111    0.7480    3.9021 H   0  0  0  0  0  0  0  0  0  0  0  0
    3.4517    1.1643    1.4975 H   0  0  0  0  0  0  0  0  0  0  0  0
    3.8187    0.1337    2.8334 H   0  0  0  0  0  0  0  0  0  0  0  0
    3.5448   -0.6273   -0.0870 H   0  0  0  0  0  0  0  0  0  0  0  0
    5.6343    0.5540    0.4395 H   0  0  0  0  0  0  0  0  0  0  0  0
    6.1131   -1.0969    0.2094 H   0  0  0  0  0  0  0  0  0  0  0  0
    5.9406   -0.4515    1.8419 H   0  0  0  0  0  0  0  0  0  0  0  0
    5.5062   -3.1243    0.3424 H   0  0  0  0  0  0  0  0  0  0  0  0
    4.1510   -4.1686    0.4661 H   0  0  0  0  0  0  0  0  0  0  0  0
    4.6057   -1.3901   -4.0533 H   0  0  0  0  0  0  0  0  0  0  0  0
    2.1823   -2.6999   -3.8046 H   0  0  0  0  0  0  0  0  0  0  0  0
    0.9817   -3.8763   -2.0675 H   0  0  0  0  0  0  0  0  0  0  0  0
    1.5235   -3.6570   -0.4066 H   0  0  0  0  0  0  0  0  0  0  0  0
    2.1526   -4.9876   -1.1488 H   0  0  0  0  0  0  0  0  0  0  0  0
    1.9797   -2.1166    0.5147 H   0  0  0  0  0  0  0  0  0  0  0  0
    2.2422   -3.5081    1.6135 H   0  0  0  0  0  0  0  0  0  0  0  0
    0.7134   -1.9383    2.3258 H   0  0  0  0  0  0  0  0  0  0  0  0
    2.2053   -3.0022    4.0596 H   0  0  0  0  0  0  0  0  0  0  0  0
    1.6404   -1.4006    4.6362 H   0  0  0  0  0  0  0  0  0  0  0  0
    3.2846   -1.6192    3.9970 H   0  0  0  0  0  0  0  0  0  0  0  0
    2.1308    2.5918    2.3423 H   0  0  0  0  0  0  0  0  0  0  0  0
    0.6749    2.1791    1.4527 H   0  0  0  0  0  0  0  0  0  0  0  0
    0.4594    4.0777    2.9655 H   0  0  0  0  0  0  0  0  0  0  0  0
    0.9298    3.1701    4.3645 H   0  0  0  0  0  0  0  0  0  0  0  0
    1.4327   -0.0983    1.1323 H   0  0  0  0  0  0  0  0  0  0  0  0
    5.7446   -1.7409   -1.7975 H   0  0  0  0  0  0  0  0  0  0  0  0
  1  2  1  0
  1 25  1  0
  1 26  1  0
  1 27  1  0
  2  3  2  0
  2  4  1  0
  4 24  1  0
  4  5  1  0
  5  6  1  0
  5 28  1  0
  5 29  1  0
  6  7  1  0
  6 30  1  0
  6 31  1  0
  7  8  1  0
  7 23  1  0
  7 32  1  0
  8 21  1  0
  8  9  1  0
  8 56  1  6
  9 10  1  0
  9 33  1  0
  9 34  1  0
 10 11  1  0
 10 12  1  0
 10 35  1  6
 11 36  1  0
 11 37  1  0
 11 38  1  0
 12 13  1  0
 12 20  1  0
 13 14  1  0
 13 39  1  0
 13 40  1  0
 14 18  1  0
 14 15  2  0
 15 16  1  0
 15 57  1  0
 16 17  2  0
 16 41  1  0
 17 18  1  0
 17 42  1  0
 18 19  1  0
 19 43  1  0
 19 44  1  0
 19 45  1  0
 20 21  1  0
 20 46  1  0
 20 47  1  0
 21 22  1  0
 21 48  1  1
 22 49  1  0
 22 50  1  0
 22 51  1  0
 23 24  1  0
 23 52  1  0
 23 53  1  0
 24 54  1  0
 24 55  1  0
M  CHG  2   8   1  15   1
M  END
>  <i_m_ct_stereo_status>  (43) 
1

>  <s_m_source_file>  (43) 
/var/tmp/pbs.5076255.sched01/tmpgqtxr8g4/0xtbcsf6k.sdf

>  <i_m_source_file_index>  (43) 
15

>  <i_lp_mmshare_version>  (43) 
48012

>  <i_f3d_flags>  (43) 
0

>  <s_epik_input>  (43) 
W0NIM11DKD1PKU4xW0NIMl1bQ0gyXVtDSF0oW0NIMl1bQ0gyXTEpTjJbQ0gyXVtDQEBIXShbQ0gzXSlOKFtDSDJdW0NASF0yW0NIM10pW0NIMl1jM25bY0hdW2NIXW4zW0NIM10=

>  <s_epik_cmdline>  (43) 
J2VwaWtfcHl0aG9uJywgJy1waHQnLCAnMi4wJywgJy1waCcsICc3LjAnLCAnLXRuJywgJzgnLCAnLW1hJywgJzIwMCcsICctaW1hZScsICc8aW5maWxlLm1hZT4nLCAnLW9tYWUnLCAnPG91dGZpbGUubWFlPic=

>  <r_lp_tautomer_probability>  (43) 
1

>  <r_epik_Ionization_Penalty>  (43) 
0.0466794

>  <r_epik_Ionization_Penalty_Charging>  (43) 
0.0072094

>  <r_epik_Ionization_Penalty_Neutral>  (43) 
0.03947

>  <r_epik_State_Penalty>  (43) 
0.0338436

>  <r_epik_Charging_Adjusted_Penalty>  (43) 
0.041053

>  <i_epik_Tot_Q>  (43) 
2

>  <i_epik_Tot_abs_Q>  (43) 
2

>  <s_lp_Force_Field>  (43) 
OPLS3e

>  <r_lp_Energy>  (43) 
58.5058

>  <b_lp_Chiralities_Consistent>  (43) 
1

>  <s_lp_Variant>  (43) 
12:0-1

>  <s_i_glide_gridfile>  (43) 
pfpi4k_grid

>  <i_i_glide_lignum>  (43) 
15

>  <i_i_glide_rotatable_bonds>  (43) 
4

>  <r_i_docking_score>  (43) 
-3.60328

>  <r_i_glide_ligand_efficiency>  (43) 
-0.150137

>  <r_i_glide_ligand_efficiency_sa>  (43) 
-0.433069

>  <r_i_glide_ligand_efficiency_ln>  (43) 
-0.86243

>  <r_i_glide_gscore>  (43) 
-3.60328

>  <r_i_glide_lipo>  (43) 
-0.389087

>  <r_i_glide_hbond>  (43) 
-0.110059

>  <r_i_glide_metal>  (43) 
-0

>  <r_i_glide_rewards>  (43) 
-1.15921

>  <r_i_glide_evdw>  (43) 
-24.716

>  <r_i_glide_ecoul>  (43) 
-6.88936

>  <r_i_glide_erotb>  (43) 
0.503078

>  <r_i_glide_esite>  (43) 
-0.178801

>  <r_i_glide_emodel>  (43) 
-34.6412

>  <r_i_glide_energy>  (43) 
-31.6053

>  <r_i_glide_einternal>  (43) 
6.67141

>  <r_i_glide_intrahb_reward>  (43) 
-0

>  <i_i_glide_confnum>  (43) 
3

>  <i_i_glide_posenum>  (43) 
5

>  <r_i_glide_eff_state_penalty>  (43) 
0

>  <ligand_id>  (43) 
12

>  <original_smiles>  (43) 
CC(=O)N1CCC(N2CC(C)N(Cc3nccn3C)CC2C)CC1

>  <smiles>  (43) 
[H]c1c([H])[n+]([H])c(C([H])([H])N2C([H])([H])C([H])(C([H])([H])[H])[N+]([H])(C3([H])C([H])([H])C([H])([H])N(C(=O)C([H])([H])[H])C([H])([H])C3([H])[H])C([H])([H])C2([H])C([H])([H])[H])n1C([H])([H])[H]

$$$$
12:0:1
     RDKit          3D

 57 59  0  0  1  0  0  0  0  0999 V2000
    5.4792   -3.5566   -1.6995 C   0  0  0  0  0  0  0  0  0  0  0  0
    6.0195   -2.5670   -0.6616 C   0  0  0  0  0  0  0  0  0  0  0  0
    7.1618   -2.1387   -0.7979 O   0  0  0  0  0  0  0  0  0  0  0  0
    5.2302   -2.2367    0.3927 N   0  0  0  0  0  0  0  0  0  0  0  0
    5.7240   -1.4162    1.5110 C   0  0  0  0  0  0  0  0  0  0  0  0
    4.8007   -0.2167    1.7701 C   0  0  0  0  0  0  0  0  0  0  0  0
    3.3190   -0.6339    1.9440 C   0  0  0  0  0  0  0  0  0  0  0  0
    2.4183    0.5469    2.1638 N   0  0  1  0  0  0  0  0  0  0  0  0
    0.9655    0.2111    2.1860 C   0  0  0  0  0  0  0  0  0  0  0  0
    0.0614    1.4555    2.3488 C   0  0  1  0  0  0  0  0  0  0  0  0
   -1.3875    0.9507    2.3906 C   0  0  0  0  0  0  0  0  0  0  0  0
    0.4163    2.1758    3.5745 N   0  0  0  0  0  0  0  0  0  0  0  0
   -0.4052    3.3810    3.7483 C   0  0  0  0  0  0  0  0  0  0  0  0
   -0.2104    4.0600    5.0671 C   0  0  0  0  0  0  0  0  0  0  0  0
    0.7545    4.9443    5.3520 N   0  0  0  0  0  0  0  0  0  0  0  0
    0.6565    5.3439    6.6593 C   0  0  0  0  0  0  0  0  0  0  0  0
   -0.4284    4.6935    7.1908 C   0  0  0  0  0  0  0  0  0  0  0  0
   -0.9508    3.9083    6.1895 N   0  0  0  0  0  0  0  0  0  0  0  0
   -2.1261    3.0301    6.2993 C   0  0  0  0  0  0  0  0  0  0  0  0
    1.8339    2.5550    3.4773 C   0  0  0  0  0  0  0  0  0  0  0  0
    2.7506    1.3299    3.3836 C   0  0  1  0  0  0  0  0  0  0  0  0
    2.7064    0.4865    4.6849 C   0  0  0  0  0  0  0  0  0  0  0  0
    2.9103   -1.4969    0.7397 C   0  0  0  0  0  0  0  0  0  0  0  0
    3.8425   -2.6930    0.5519 C   0  0  0  0  0  0  0  0  0  0  0  0
    4.6719   -3.1008   -2.2697 H   0  0  0  0  0  0  0  0  0  0  0  0
    5.1056   -4.4670   -1.2234 H   0  0  0  0  0  0  0  0  0  0  0  0
    6.2673   -3.8451   -2.3940 H   0  0  0  0  0  0  0  0  0  0  0  0
    5.7637   -2.0462    2.3971 H   0  0  0  0  0  0  0  0  0  0  0  0
    6.7368   -1.0417    1.3636 H   0  0  0  0  0  0  0  0  0  0  0  0
    5.1798    0.2555    2.6800 H   0  0  0  0  0  0  0  0  0  0  0  0
    4.9009    0.5087    0.9511 H   0  0  0  0  0  0  0  0  0  0  0  0
    3.2470   -1.3055    2.8072 H   0  0  0  0  0  0  0  0  0  0  0  0
    0.6564   -0.2672    1.2779 H   0  0  0  0  0  0  0  0  0  0  0  0
    0.7672   -0.5461    2.9511 H   0  0  0  0  0  0  0  0  0  0  0  0
    0.1898    2.1083    1.4877 H   0  0  0  0  0  0  0  0  0  0  0  0
   -1.6581    0.5030    1.4349 H   0  0  0  0  0  0  0  0  0  0  0  0
   -2.1519    1.7078    2.5709 H   0  0  0  0  0  0  0  0  0  0  0  0
   -1.5053    0.1767    3.1518 H   0  0  0  0  0  0  0  0  0  0  0  0
   -0.1873    4.1152    2.9676 H   0  0  0  0  0  0  0  0  0  0  0  0
   -1.4655    3.1526    3.7174 H   0  0  0  0  0  0  0  0  0  0  0  0
    1.3550    6.0351    7.1111 H   0  0  0  0  0  0  0  0  0  0  0  0
   -0.8559    4.7151    8.1901 H   0  0  0  0  0  0  0  0  0  0  0  0
   -2.4161    2.9796    7.3526 H   0  0  0  0  0  0  0  0  0  0  0  0
   -1.8736    2.0301    5.9416 H   0  0  0  0  0  0  0  0  0  0  0  0
   -2.9485    3.4508    5.7174 H   0  0  0  0  0  0  0  0  0  0  0  0
    2.0006    3.2296    2.6337 H   0  0  0  0  0  0  0  0  0  0  0  0
    2.1516    3.0966    4.3688 H   0  0  0  0  0  0  0  0  0  0  0  0
    3.7509    1.7404    3.2816 H   0  0  0  0  0  0  0  0  0  0  0  0
    2.8559    1.1042    5.5713 H   0  0  0  0  0  0  0  0  0  0  0  0
    3.4837   -0.2745    4.7103 H   0  0  0  0  0  0  0  0  0  0  0  0
    1.7525   -0.0238    4.8195 H   0  0  0  0  0  0  0  0  0  0  0  0
    1.9176   -1.9238    0.8906 H   0  0  0  0  0  0  0  0  0  0  0  0
    2.8965   -0.8867   -0.1680 H   0  0  0  0  0  0  0  0  0  0  0  0
    3.4411   -3.2348   -0.3023 H   0  0  0  0  0  0  0  0  0  0  0  0
    3.7820   -3.3666    1.4079 H   0  0  0  0  0  0  0  0  0  0  0  0
    2.5459    1.1590    1.3705 H   0  0  0  0  0  0  0  0  0  0  0  0
    1.4600    5.2474    4.6916 H   0  0  0  0  0  0  0  0  0  0  0  0
  1  2  1  0
  1 25  1  0
  1 26  1  0
  1 27  1  0
  2  3  2  0
  2  4  1  0
  4 24  1  0
  4  5  1  0
  5  6  1  0
  5 28  1  0
  5 29  1  0
  6  7  1  0
  6 30  1  0
  6 31  1  0
  7  8  1  0
  7 23  1  0
  7 32  1  0
  8 21  1  0
  8  9  1  0
  8 56  1  6
  9 10  1  0
  9 33  1  0
  9 34  1  0
 10 11  1  0
 10 12  1  0
 10 35  1  6
 11 36  1  0
 11 37  1  0
 11 38  1  0
 12 13  1  0
 12 20  1  0
 13 14  1  0
 13 39  1  0
 13 40  1  0
 14 18  1  0
 14 15  2  0
 15 16  1  0
 15 57  1  0
 16 17  2  0
 16 41  1  0
 17 18  1  0
 17 42  1  0
 18 19  1  0
 19 43  1  0
 19 44  1  0
 19 45  1  0
 20 21  1  0
 20 46  1  0
 20 47  1  0
 21 22  1  0
 21 48  1  6
 22 49  1  0
 22 50  1  0
 22 51  1  0
 23 24  1  0
 23 52  1  0
 23 53  1  0
 24 54  1  0
 24 55  1  0
M  CHG  2   8   1  15   1
M  END
>  <i_m_ct_stereo_status>  (44) 
1

>  <s_m_source_file>  (44) 
/var/tmp/pbs.5076255.sched01/tmpgqtxr8g4/0xtbcsf6k.sdf

>  <i_m_source_file_index>  (44) 
15

>  <i_lp_mmshare_version>  (44) 
48012

>  <i_f3d_flags>  (44) 
0

>  <s_epik_input>  (44) 
W0NIM11DKD1PKU4xW0NIMl1bQ0gyXVtDSF0oW0NIMl1bQ0gyXTEpTjJbQ0gyXVtDQEBIXShbQ0gzXSlOKFtDSDJdW0NASF0yW0NIM10pW0NIMl1jM25bY0hdW2NIXW4zW0NIM10=

>  <s_epik_cmdline>  (44) 
J2VwaWtfcHl0aG9uJywgJy1waHQnLCAnMi4wJywgJy1waCcsICc3LjAnLCAnLXRuJywgJzgnLCAnLW1hJywgJzIwMCcsICctaW1hZScsICc8aW5maWxlLm1hZT4nLCAnLW9tYWUnLCAnPG91dGZpbGUubWFlPic=

>  <r_lp_tautomer_probability>  (44) 
1

>  <r_epik_Ionization_Penalty>  (44) 
0.0466794

>  <r_epik_Ionization_Penalty_Charging>  (44) 
0.0072094

>  <r_epik_Ionization_Penalty_Neutral>  (44) 
0.03947

>  <r_epik_State_Penalty>  (44) 
0.0338436

>  <r_epik_Charging_Adjusted_Penalty>  (44) 
0.041053

>  <i_epik_Tot_Q>  (44) 
2

>  <i_epik_Tot_abs_Q>  (44) 
2

>  <s_lp_Force_Field>  (44) 
OPLS3e

>  <r_lp_Energy>  (44) 
58.5058

>  <b_lp_Chiralities_Consistent>  (44) 
1

>  <s_lp_Variant>  (44) 
12:0-1

>  <s_i_glide_gridfile>  (44) 
pfpi4k_grid

>  <i_i_glide_lignum>  (44) 
15

>  <i_i_glide_rotatable_bonds>  (44) 
4

>  <r_i_docking_score>  (44) 
-3.5628

>  <r_i_glide_ligand_efficiency>  (44) 
-0.14845

>  <r_i_glide_ligand_efficiency_sa>  (44) 
-0.428204

>  <r_i_glide_ligand_efficiency_ln>  (44) 
-0.852742

>  <r_i_glide_gscore>  (44) 
-3.5628

>  <r_i_glide_lipo>  (44) 
-0.459319

>  <r_i_glide_hbond>  (44) 
-0.16

>  <r_i_glide_metal>  (44) 
-0

>  <r_i_glide_rewards>  (44) 
-1.16614

>  <r_i_glide_evdw>  (44) 
-21.7688

>  <r_i_glide_ecoul>  (44) 
-7.52013

>  <r_i_glide_erotb>  (44) 
0.503078

>  <r_i_glide_esite>  (44) 
-0.0639638

>  <r_i_glide_emodel>  (44) 
-37.2645

>  <r_i_glide_energy>  (44) 
-29.2889

>  <r_i_glide_einternal>  (44) 
0.102553

>  <r_i_glide_intrahb_reward>  (44) 
-0

>  <i_i_glide_confnum>  (44) 
2

>  <i_i_glide_posenum>  (44) 
4

>  <r_i_glide_eff_state_penalty>  (44) 
0

>  <ligand_id>  (44) 
12

>  <original_smiles>  (44) 
CC(=O)N1CCC(N2CC(C)N(Cc3nccn3C)CC2C)CC1

>  <smiles>  (44) 
[H]c1c([H])[n+]([H])c(C([H])([H])N2C([H])([H])C([H])(C([H])([H])[H])[N+]([H])(C3([H])C([H])([H])C([H])([H])N(C(=O)C([H])([H])[H])C([H])([H])C3([H])[H])C([H])([H])C2([H])C([H])([H])[H])n1C([H])([H])[H]

$$$$
12:0:2
     RDKit          3D

 57 59  0  0  1  0  0  0  0  0999 V2000
   -0.9015    4.4098    8.2297 C   0  0  0  0  0  0  0  0  0  0  0  0
   -1.3975    3.1161    7.5884 C   0  0  0  0  0  0  0  0  0  0  0  0
   -1.9081    2.2630    8.2833 O   0  0  0  0  0  0  0  0  0  0  0  0
   -1.1910    2.9497    6.2350 N   0  0  0  0  0  0  0  0  0  0  0  0
   -0.6903    3.9823    5.3221 C   0  0  0  0  0  0  0  0  0  0  0  0
    0.5820    3.5095    4.5844 C   0  0  0  0  0  0  0  0  0  0  0  0
    0.3535    2.1386    3.9202 C   0  0  0  0  0  0  0  0  0  0  0  0
    1.6043    1.6414    3.2606 N   0  0  1  0  0  0  0  0  0  0  0  0
    2.4755    0.8210    4.1443 C   0  0  0  0  0  0  0  0  0  0  0  0
    3.7776    0.3338    3.4720 C   0  0  1  0  0  0  0  0  0  0  0  0
    4.4774   -0.5771    4.5085 C   0  0  0  0  0  0  0  0  0  0  0  0
    3.4563   -0.3909    2.2270 N   0  0  0  0  0  0  0  0  0  0  0  0
    4.6609   -0.8690    1.5183 C   0  0  0  0  0  0  0  0  0  0  0  0
    4.4111   -1.8811    0.4399 C   0  0  0  0  0  0  0  0  0  0  0  0
    3.4337   -1.8219   -0.5008 N   0  0  0  0  0  0  0  0  0  0  0  0
    3.5037   -2.9554   -1.2979 C   0  0  0  0  0  0  0  0  0  0  0  0
    4.5225   -3.7119   -0.8423 C   0  0  0  0  0  0  0  0  0  0  0  0
    5.0890   -3.0548    0.2316 N   0  0  0  0  0  0  0  0  0  0  0  0
    6.2026   -3.5185    1.0484 C   0  0  0  0  0  0  0  0  0  0  0  0
    2.6734    0.4932    1.3523 C   0  0  0  0  0  0  0  0  0  0  0  0
    1.3483    0.9382    1.9819 C   0  0  1  0  0  0  0  0  0  0  0  0
    0.3933   -0.2591    2.1467 C   0  0  0  0  0  0  0  0  0  0  0  0
   -0.2291    1.1300    4.9563 C   0  0  0  0  0  0  0  0  0  0  0  0
   -1.4978    1.6657    5.5985 C   0  0  0  0  0  0  0  0  0  0  0  0
   -1.4922    5.2530    7.8770 H   0  0  0  0  0  0  0  0  0  0  0  0
    0.1508    4.5882    8.0006 H   0  0  0  0  0  0  0  0  0  0  0  0
   -1.0044    4.3514    9.3187 H   0  0  0  0  0  0  0  0  0  0  0  0
   -1.4843    4.1924    4.6013 H   0  0  0  0  0  0  0  0  0  0  0  0
   -0.4568    4.9378    5.7963 H   0  0  0  0  0  0  0  0  0  0  0  0
    0.8565    4.2554    3.8325 H   0  0  0  0  0  0  0  0  0  0  0  0
    1.4114    3.4488    5.2904 H   0  0  0  0  0  0  0  0  0  0  0  0
   -0.3856    2.3326    3.1355 H   0  0  0  0  0  0  0  0  0  0  0  0
    2.7141    1.3968    5.0428 H   0  0  0  0  0  0  0  0  0  0  0  0
    1.9338   -0.0743    4.4609 H   0  0  0  0  0  0  0  0  0  0  0  0
    4.4045    1.1996    3.2743 H   0  0  0  0  0  0  0  0  0  0  0  0
    4.7276    0.0058    5.3970 H   0  0  0  0  0  0  0  0  0  0  0  0
    5.3832   -1.0645    4.1634 H   0  0  0  0  0  0  0  0  0  0  0  0
    3.7985   -1.3590    4.8497 H   0  0  0  0  0  0  0  0  0  0  0  0
    5.1883   -0.0241    1.0601 H   0  0  0  0  0  0  0  0  0  0  0  0
    5.3375   -1.3542    2.2163 H   0  0  0  0  0  0  0  0  0  0  0  0
    2.7885   -3.1035   -2.0994 H   0  0  0  0  0  0  0  0  0  0  0  0
    4.8993   -4.6896   -1.1740 H   0  0  0  0  0  0  0  0  0  0  0  0
    6.4414   -4.5541    0.7619 H   0  0  0  0  0  0  0  0  0  0  0  0
    5.9429   -3.5113    2.1151 H   0  0  0  0  0  0  0  0  0  0  0  0
    7.0832   -2.8891    0.8698 H   0  0  0  0  0  0  0  0  0  0  0  0
    3.3034    1.3485    1.0775 H   0  0  0  0  0  0  0  0  0  0  0  0
    2.3787    0.0232    0.4281 H   0  0  0  0  0  0  0  0  0  0  0  0
    0.8784    1.6474    1.2936 H   0  0  0  0  0  0  0  0  0  0  0  0
    0.3429   -0.8713    1.2765 H   0  0  0  0  0  0  0  0  0  0  0  0
   -0.6225    0.0811    2.3564 H   0  0  0  0  0  0  0  0  0  0  0  0
    0.7185   -0.9586    2.9151 H   0  0  0  0  0  0  0  0  0  0  0  0
   -0.4712    0.1624    4.5124 H   0  0  0  0  0  0  0  0  0  0  0  0
    0.4859    0.9676    5.7731 H   0  0  0  0  0  0  0  0  0  0  0  0
   -1.8063    0.8961    6.3020 H   0  0  0  0  0  0  0  0  0  0  0  0
   -2.3052    1.7701    4.8703 H   0  0  0  0  0  0  0  0  0  0  0  0
    2.1247    2.4643    2.9860 H   0  0  0  0  0  0  0  0  0  0  0  0
    2.7190   -1.1377   -0.5526 H   0  0  0  0  0  0  0  0  0  0  0  0
  1  2  1  0
  1 25  1  0
  1 26  1  0
  1 27  1  0
  2  3  2  0
  2  4  1  0
  4 24  1  0
  4  5  1  0
  5  6  1  0
  5 28  1  0
  5 29  1  0
  6  7  1  0
  6 30  1  0
  6 31  1  0
  7  8  1  0
  7 23  1  0
  7 32  1  0
  8 21  1  0
  8  9  1  0
  8 56  1  6
  9 10  1  0
  9 33  1  0
  9 34  1  0
 10 11  1  0
 10 12  1  0
 10 35  1  6
 11 36  1  0
 11 37  1  0
 11 38  1  0
 12 13  1  0
 12 20  1  0
 13 14  1  0
 13 39  1  0
 13 40  1  0
 14 18  1  0
 14 15  2  0
 15 16  1  0
 15 57  1  0
 16 17  2  0
 16 41  1  0
 17 18  1  0
 17 42  1  0
 18 19  1  0
 19 43  1  0
 19 44  1  0
 19 45  1  0
 20 21  1  0
 20 46  1  0
 20 47  1  0
 21 22  1  0
 21 48  1  6
 22 49  1  0
 22 50  1  0
 22 51  1  0
 23 24  1  0
 23 52  1  0
 23 53  1  0
 24 54  1  0
 24 55  1  0
M  CHG  2   8   1  15   1
M  END
>  <i_m_ct_stereo_status>  (45) 
1

>  <s_m_source_file>  (45) 
/var/tmp/pbs.5076255.sched01/tmpgqtxr8g4/0xtbcsf6k.sdf

>  <i_m_source_file_index>  (45) 
15

>  <i_lp_mmshare_version>  (45) 
48012

>  <i_f3d_flags>  (45) 
0

>  <s_epik_input>  (45) 
W0NIM11DKD1PKU4xW0NIMl1bQ0gyXVtDSF0oW0NIMl1bQ0gyXTEpTjJbQ0gyXVtDQEBIXShbQ0gzXSlOKFtDSDJdW0NASF0yW0NIM10pW0NIMl1jM25bY0hdW2NIXW4zW0NIM10=

>  <s_epik_cmdline>  (45) 
J2VwaWtfcHl0aG9uJywgJy1waHQnLCAnMi4wJywgJy1waCcsICc3LjAnLCAnLXRuJywgJzgnLCAnLW1hJywgJzIwMCcsICctaW1hZScsICc8aW5maWxlLm1hZT4nLCAnLW9tYWUnLCAnPG91dGZpbGUubWFlPic=

>  <r_lp_tautomer_probability>  (45) 
1

>  <r_epik_Ionization_Penalty>  (45) 
0.0466794

>  <r_epik_Ionization_Penalty_Charging>  (45) 
0.0072094

>  <r_epik_Ionization_Penalty_Neutral>  (45) 
0.03947

>  <r_epik_State_Penalty>  (45) 
0.0338436

>  <r_epik_Charging_Adjusted_Penalty>  (45) 
0.041053

>  <i_epik_Tot_Q>  (45) 
2

>  <i_epik_Tot_abs_Q>  (45) 
2

>  <s_lp_Force_Field>  (45) 
OPLS3e

>  <r_lp_Energy>  (45) 
58.5058

>  <b_lp_Chiralities_Consistent>  (45) 
1

>  <s_lp_Variant>  (45) 
12:0-1

>  <s_i_glide_gridfile>  (45) 
pfpi4k_grid

>  <i_i_glide_lignum>  (45) 
15

>  <i_i_glide_rotatable_bonds>  (45) 
4

>  <r_i_docking_score>  (45) 
-3.25868

>  <r_i_glide_ligand_efficiency>  (45) 
-0.135778

>  <r_i_glide_ligand_efficiency_sa>  (45) 
-0.391652

>  <r_i_glide_ligand_efficiency_ln>  (45) 
-0.779952

>  <r_i_glide_gscore>  (45) 
-3.25868

>  <r_i_glide_lipo>  (45) 
-0.205251

>  <r_i_glide_hbond>  (45) 
-0.162425

>  <r_i_glide_metal>  (45) 
-0

>  <r_i_glide_rewards>  (45) 
-1.20375

>  <r_i_glide_evdw>  (45) 
-19.7192

>  <r_i_glide_ecoul>  (45) 
-7.26337

>  <r_i_glide_erotb>  (45) 
0.503078

>  <r_i_glide_esite>  (45) 
-0.114865

>  <r_i_glide_emodel>  (45) 
-30.128

>  <r_i_glide_energy>  (45) 
-26.9826

>  <r_i_glide_einternal>  (45) 
6.61498

>  <r_i_glide_intrahb_reward>  (45) 
-0

>  <i_i_glide_confnum>  (45) 
2

>  <i_i_glide_posenum>  (45) 
31

>  <r_i_glide_eff_state_penalty>  (45) 
0

>  <ligand_id>  (45) 
12

>  <original_smiles>  (45) 
CC(=O)N1CCC(N2CC(C)N(Cc3nccn3C)CC2C)CC1

>  <smiles>  (45) 
[H]c1c([H])[n+]([H])c(C([H])([H])N2C([H])([H])C([H])(C([H])([H])[H])[N+]([H])(C3([H])C([H])([H])C([H])([H])N(C(=O)C([H])([H])[H])C([H])([H])C3([H])[H])C([H])([H])C2([H])C([H])([H])[H])n1C([H])([H])[H]

$$$$
12:1:0
     RDKit          3D

 56 58  0  0  1  0  0  0  0  0999 V2000
   -3.2670    3.2555    2.9229 C   0  0  0  0  0  0  0  0  0  0  0  0
   -1.8499    3.7298    3.2653 C   0  0  0  0  0  0  0  0  0  0  0  0
   -1.6441    4.9447    3.2753 O   0  0  0  0  0  0  0  0  0  0  0  0
   -0.8853    2.8101    3.4723 N   0  0  0  0  0  0  0  0  0  0  0  0
   -1.1469    1.4091    3.8268 C   0  0  0  0  0  0  0  0  0  0  0  0
   -0.3695    0.4631    2.9151 C   0  0  0  0  0  0  0  0  0  0  0  0
    1.1461    0.7793    2.8932 C   0  0  0  0  0  0  0  0  0  0  0  0
    1.8959   -0.1498    1.9873 N   0  0  1  0  0  0  0  0  0  0  0  0
    3.3468    0.1677    1.8561 C   0  0  0  0  0  0  0  0  0  0  0  0
    4.0827   -0.8034    0.8960 C   0  0  1  0  0  0  0  0  0  0  0  0
    5.5730   -0.4128    0.9172 C   0  0  0  0  0  0  0  0  0  0  0  0
    3.8862   -2.2122    1.2903 N   0  0  0  0  0  0  0  0  0  0  0  0
    4.5312   -3.1347    0.3435 C   0  0  0  0  0  0  0  0  0  0  0  0
    4.4279   -4.5942    0.6946 C   0  0  0  0  0  0  0  0  0  0  0  0
    3.2806   -5.2755    0.7351 N   0  0  0  0  0  0  0  0  0  0  0  0
    3.6285   -6.5436    1.1800 C   0  0  0  0  0  0  0  0  0  0  0  0
    4.9897   -6.6106    1.3299 C   0  0  0  0  0  0  0  0  0  0  0  0
    5.4926   -5.3620    1.0008 N   0  0  0  0  0  0  0  0  0  0  0  0
    6.9071   -5.0016    1.0190 C   0  0  0  0  0  0  0  0  0  0  0  0
    2.4409   -2.4686    1.3338 C   0  0  0  0  0  0  0  0  0  0  0  0
    1.7277   -1.5857    2.3528 C   0  0  1  0  0  0  0  0  0  0  0  0
    2.1623   -1.9278    3.7993 C   0  0  0  0  0  0  0  0  0  0  0  0
    1.3511    2.2666    2.5486 C   0  0  0  0  0  0  0  0  0  0  0  0
    0.5457    3.1710    3.4931 C   0  0  0  0  0  0  0  0  0  0  0  0
   -3.2533    2.7307    1.9697 H   0  0  0  0  0  0  0  0  0  0  0  0
   -3.9291    4.1148    2.8200 H   0  0  0  0  0  0  0  0  0  0  0  0
   -3.6772    2.5909    3.6849 H   0  0  0  0  0  0  0  0  0  0  0  0
   -0.8342    1.2660    4.8639 H   0  0  0  0  0  0  0  0  0  0  0  0
   -2.1868    1.1086    3.7723 H   0  0  0  0  0  0  0  0  0  0  0  0
   -0.5559   -0.5359    3.3079 H   0  0  0  0  0  0  0  0  0  0  0  0
   -0.7799    0.5108    1.9023 H   0  0  0  0  0  0  0  0  0  0  0  0
    1.5349    0.6601    3.9094 H   0  0  0  0  0  0  0  0  0  0  0  0
    3.4810    1.1841    1.4709 H   0  0  0  0  0  0  0  0  0  0  0  0
    3.8001    0.1423    2.8520 H   0  0  0  0  0  0  0  0  0  0  0  0
    3.6773   -0.6630   -0.1018 H   0  0  0  0  0  0  0  0  0  0  0  0
    5.6905    0.5921    0.5326 H   0  0  0  0  0  0  0  0  0  0  0  0
    6.2299   -1.0346    0.3210 H   0  0  0  0  0  0  0  0  0  0  0  0
    5.9534   -0.3917    1.9388 H   0  0  0  0  0  0  0  0  0  0  0  0
    4.1103   -2.9949   -0.6547 H   0  0  0  0  0  0  0  0  0  0  0  0
    5.5819   -2.8870    0.2802 H   0  0  0  0  0  0  0  0  0  0  0  0
    2.8720   -7.2850    1.3713 H   0  0  0  0  0  0  0  0  0  0  0  0
    5.6246   -7.4280    1.6532 H   0  0  0  0  0  0  0  0  0  0  0  0
    7.5263   -5.9000    1.0716 H   0  0  0  0  0  0  0  0  0  0  0  0
    7.1455   -4.3746    1.8777 H   0  0  0  0  0  0  0  0  0  0  0  0
    7.1879   -4.4706    0.1112 H   0  0  0  0  0  0  0  0  0  0  0  0
    2.0111   -2.3554    0.3399 H   0  0  0  0  0  0  0  0  0  0  0  0
    2.2223   -3.4760    1.6676 H   0  0  0  0  0  0  0  0  0  0  0  0
    0.6749   -1.8421    2.2394 H   0  0  0  0  0  0  0  0  0  0  0  0
    2.1001   -2.9966    3.9875 H   0  0  0  0  0  0  0  0  0  0  0  0
    1.5353   -1.4527    4.5472 H   0  0  0  0  0  0  0  0  0  0  0  0
    3.1904   -1.6370    3.9973 H   0  0  0  0  0  0  0  0  0  0  0  0
    2.4022    2.5529    2.6621 H   0  0  0  0  0  0  0  0  0  0  0  0
    1.0717    2.4486    1.5088 H   0  0  0  0  0  0  0  0  0  0  0  0
    0.7245    4.1967    3.1797 H   0  0  0  0  0  0  0  0  0  0  0  0
    0.9285    3.0850    4.5072 H   0  0  0  0  0  0  0  0  0  0  0  0
    1.4915   -0.0579    1.0562 H   0  0  0  0  0  0  0  0  0  0  0  0
  1  2  1  0
  1 25  1  0
  1 26  1  0
  1 27  1  0
  2  3  2  0
  2  4  1  0
  4 24  1  0
  4  5  1  0
  5  6  1  0
  5 28  1  0
  5 29  1  0
  6  7  1  0
  6 30  1  0
  6 31  1  0
  7  8  1  0
  7 23  1  0
  7 32  1  0
  8 21  1  0
  8  9  1  0
  8 56  1  6
  9 10  1  0
  9 33  1  0
  9 34  1  0
 10 11  1  0
 10 12  1  0
 10 35  1  6
 11 36  1  0
 11 37  1  0
 11 38  1  0
 12 13  1  0
 12 20  1  0
 13 14  1  0
 13 39  1  0
 13 40  1  0
 14 18  1  0
 14 15  2  0
 15 16  1  0
 16 17  2  0
 16 41  1  0
 17 18  1  0
 17 42  1  0
 18 19  1  0
 19 43  1  0
 19 44  1  0
 19 45  1  0
 20 21  1  0
 20 46  1  0
 20 47  1  0
 21 22  1  0
 21 48  1  1
 22 49  1  0
 22 50  1  0
 22 51  1  0
 23 24  1  0
 23 52  1  0
 23 53  1  0
 24 54  1  0
 24 55  1  0
M  CHG  1   8   1
M  END
>  <i_m_ct_stereo_status>  (46) 
1

>  <s_m_source_file>  (46) 
/var/tmp/pbs.5076255.sched01/tmpgqtxr8g4/0xtbcsf6k.sdf

>  <i_m_source_file_index>  (46) 
16

>  <i_lp_mmshare_version>  (46) 
48012

>  <i_f3d_flags>  (46) 
0

>  <s_epik_input>  (46) 
W0NIM11DKD1PKU4xW0NIMl1bQ0gyXVtDSF0oW0NIMl1bQ0gyXTEpTjJbQ0gyXVtDQEBIXShbQ0gzXSlOKFtDSDJdW0NASF0yW0NIM10pW0NIMl1jM25bY0hdW2NIXW4zW0NIM10=

>  <s_epik_cmdline>  (46) 
J2VwaWtfcHl0aG9uJywgJy1waHQnLCAnMi4wJywgJy1waCcsICc3LjAnLCAnLXRuJywgJzgnLCAnLW1hJywgJzIwMCcsICctaW1hZScsICc8aW5maWxlLm1hZT4nLCAnLW9tYWUnLCAnPG91dGZpbGUubWFlPic=

>  <r_epik_Ionization_Penalty>  (46) 
1.63123

>  <r_epik_Ionization_Penalty_Charging>  (46) 
1.63093

>  <r_epik_Ionization_Penalty_Neutral>  (46) 
0.000293697

>  <r_epik_State_Penalty>  (46) 
1.8424

>  <r_epik_Charging_Adjusted_Penalty>  (46) 
3.47333

>  <i_epik_Tot_Q>  (46) 
1

>  <i_epik_Tot_abs_Q>  (46) 
1

>  <s_lp_Force_Field>  (46) 
OPLS3e

>  <r_lp_Energy>  (46) 
47.362

>  <b_lp_Chiralities_Consistent>  (46) 
1

>  <s_lp_Variant>  (46) 
12:0-2

>  <s_i_glide_gridfile>  (46) 
pfpi4k_grid

>  <i_i_glide_lignum>  (46) 
16

>  <i_i_glide_rotatable_bonds>  (46) 
4

>  <r_i_docking_score>  (46) 
-4.25559

>  <r_i_glide_ligand_efficiency>  (46) 
-0.177316

>  <r_i_glide_ligand_efficiency_sa>  (46) 
-0.511469

>  <r_i_glide_ligand_efficiency_ln>  (46) 
-1.01856

>  <r_i_glide_gscore>  (46) 
-4.25559

>  <r_i_glide_lipo>  (46) 
-0.473333

>  <r_i_glide_hbond>  (46) 
-0.283877

>  <r_i_glide_metal>  (46) 
-0

>  <r_i_glide_rewards>  (46) 
-1.28819

>  <r_i_glide_evdw>  (46) 
-24.1159

>  <r_i_glide_ecoul>  (46) 
-8.71045

>  <r_i_glide_erotb>  (46) 
0.505765

>  <r_i_glide_esite>  (46) 
-0.203592

>  <r_i_glide_emodel>  (46) 
-40.2619

>  <r_i_glide_energy>  (46) 
-32.8264

>  <r_i_glide_einternal>  (46) 
3.24878

>  <r_i_glide_intrahb_reward>  (46) 
-0

>  <i_i_glide_confnum>  (46) 
4

>  <i_i_glide_posenum>  (46) 
11

>  <r_i_glide_eff_state_penalty>  (46) 
0

>  <ligand_id>  (46) 
12

>  <original_smiles>  (46) 
CC(=O)N1CCC(N2CC(C)N(Cc3nccn3C)CC2C)CC1

>  <smiles>  (46) 
[H]c1nc(C([H])([H])N2C([H])([H])C([H])(C([H])([H])[H])[N+]([H])(C3([H])C([H])([H])C([H])([H])N(C(=O)C([H])([H])[H])C([H])([H])C3([H])[H])C([H])([H])C2([H])C([H])([H])[H])n(C([H])([H])[H])c1[H]

$$$$
12:1:1
     RDKit          3D

 56 58  0  0  1  0  0  0  0  0999 V2000
    5.1902   -3.3568   -1.8125 C   0  0  0  0  0  0  0  0  0  0  0  0
    5.8719   -2.5604   -0.6928 C   0  0  0  0  0  0  0  0  0  0  0  0
    7.0371   -2.1752   -0.8870 O   0  0  0  0  0  0  0  0  0  0  0  0
    5.1615   -2.2348    0.4025 N   0  0  0  0  0  0  0  0  0  0  0  0
    5.6998   -1.3757    1.4764 C   0  0  0  0  0  0  0  0  0  0  0  0
    4.7769   -0.1688    1.7259 C   0  0  0  0  0  0  0  0  0  0  0  0
    3.3100   -0.6140    2.0023 C   0  0  0  0  0  0  0  0  0  0  0  0
    2.3962    0.5516    2.2091 N   0  0  1  0  0  0  0  0  0  0  0  0
    0.9474    0.2110    2.2156 C   0  0  0  0  0  0  0  0  0  0  0  0
    0.0480    1.4586    2.4069 C   0  0  1  0  0  0  0  0  0  0  0  0
   -1.3988    0.9643    2.4889 C   0  0  0  0  0  0  0  0  0  0  0  0
    0.4132    2.2135    3.6129 N   0  0  0  0  0  0  0  0  0  0  0  0
   -0.3806    3.4415    3.7573 C   0  0  0  0  0  0  0  0  0  0  0  0
   -0.1109    4.1991    5.0257 C   0  0  0  0  0  0  0  0  0  0  0  0
   -0.7423    3.9236    6.1587 N   0  0  0  0  0  0  0  0  0  0  0  0
   -0.2211    4.8209    7.0775 C   0  0  0  0  0  0  0  0  0  0  0  0
    0.7119    5.6188    6.4467 C   0  0  0  0  0  0  0  0  0  0  0  0
    0.7695    5.2272    5.1186 N   0  0  0  0  0  0  0  0  0  0  0  0
    1.6020    5.8348    4.0799 C   0  0  0  0  0  0  0  0  0  0  0  0
    1.8260    2.5684    3.4922 C   0  0  0  0  0  0  0  0  0  0  0  0
    2.7461    1.3540    3.4128 C   0  0  1  0  0  0  0  0  0  0  0  0
    2.7460    0.5602    4.7431 C   0  0  0  0  0  0  0  0  0  0  0  0
    2.8404   -1.5336    0.8606 C   0  0  0  0  0  0  0  0  0  0  0  0
    3.7908   -2.7170    0.6790 C   0  0  0  0  0  0  0  0  0  0  0  0
    4.9749   -4.3646   -1.4596 H   0  0  0  0  0  0  0  0  0  0  0  0
    5.8434   -3.4326   -2.6804 H   0  0  0  0  0  0  0  0  0  0  0  0
    4.2517   -2.8863   -2.1279 H   0  0  0  0  0  0  0  0  0  0  0  0
    5.7972   -1.9803    2.3773 H   0  0  0  0  0  0  0  0  0  0  0  0
    6.7055   -1.0037    1.2645 H   0  0  0  0  0  0  0  0  0  0  0  0
    5.1868    0.3442    2.5972 H   0  0  0  0  0  0  0  0  0  0  0  0
    4.8332    0.5158    0.8662 H   0  0  0  0  0  0  0  0  0  0  0  0
    3.2982   -1.2404    2.9052 H   0  0  0  0  0  0  0  0  0  0  0  0
    0.6582   -0.2483    1.2815 H   0  0  0  0  0  0  0  0  0  0  0  0
    0.7672   -0.5095    3.0226 H   0  0  0  0  0  0  0  0  0  0  0  0
    0.1458    2.1166    1.5496 H   0  0  0  0  0  0  0  0  0  0  0  0
   -1.6838    0.5010    1.5508 H   0  0  0  0  0  0  0  0  0  0  0  0
   -2.1517    1.7263    2.6981 H   0  0  0  0  0  0  0  0  0  0  0  0
   -1.4972    0.1971    3.2508 H   0  0  0  0  0  0  0  0  0  0  0  0
   -0.2250    4.0977    2.9018 H   0  0  0  0  0  0  0  0  0  0  0  0
   -1.4346    3.1644    3.7785 H   0  0  0  0  0  0  0  0  0  0  0  0
   -0.5421    4.8022    8.0982 H   0  0  0  0  0  0  0  0  0  0  0  0
    1.3245    6.4139    6.8433 H   0  0  0  0  0  0  0  0  0  0  0  0
    2.3281    6.4975    4.5661 H   0  0  0  0  0  0  0  0  0  0  0  0
    0.9779    6.4403    3.4079 H   0  0  0  0  0  0  0  0  0  0  0  0
    2.1322    5.0695    3.4989 H   0  0  0  0  0  0  0  0  0  0  0  0
    1.9774    3.1935    2.6122 H   0  0  0  0  0  0  0  0  0  0  0  0
    2.1545    3.1401    4.3580 H   0  0  0  0  0  0  0  0  0  0  0  0
    3.7453    1.7757    3.2799 H   0  0  0  0  0  0  0  0  0  0  0  0
    2.9143    1.2182    5.5995 H   0  0  0  0  0  0  0  0  0  0  0  0
    3.5309   -0.1923    4.7814 H   0  0  0  0  0  0  0  0  0  0  0  0
    1.7944    0.0597    4.9103 H   0  0  0  0  0  0  0  0  0  0  0  0
    1.8544   -1.9469    1.0894 H   0  0  0  0  0  0  0  0  0  0  0  0
    2.7788   -0.9658   -0.0740 H   0  0  0  0  0  0  0  0  0  0  0  0
    3.3669   -3.3389   -0.1102 H   0  0  0  0  0  0  0  0  0  0  0  0
    3.8085   -3.3287    1.5835 H   0  0  0  0  0  0  0  0  0  0  0  0
    2.5130    1.1752    1.4228 H   0  0  0  0  0  0  0  0  0  0  0  0
  1  2  1  0
  1 25  1  0
  1 26  1  0
  1 27  1  0
  2  3  2  0
  2  4  1  0
  4 24  1  0
  4  5  1  0
  5  6  1  0
  5 28  1  0
  5 29  1  0
  6  7  1  0
  6 30  1  0
  6 31  1  0
  7  8  1  0
  7 23  1  0
  7 32  1  0
  8 21  1  0
  8  9  1  0
  8 56  1  6
  9 10  1  0
  9 33  1  0
  9 34  1  0
 10 11  1  0
 10 12  1  0
 10 35  1  6
 11 36  1  0
 11 37  1  0
 11 38  1  0
 12 13  1  0
 12 20  1  0
 13 14  1  0
 13 39  1  0
 13 40  1  0
 14 18  1  0
 14 15  2  0
 15 16  1  0
 16 17  2  0
 16 41  1  0
 17 18  1  0
 17 42  1  0
 18 19  1  0
 19 43  1  0
 19 44  1  0
 19 45  1  0
 20 21  1  0
 20 46  1  0
 20 47  1  0
 21 22  1  0
 21 48  1  6
 22 49  1  0
 22 50  1  0
 22 51  1  0
 23 24  1  0
 23 52  1  0
 23 53  1  0
 24 54  1  0
 24 55  1  0
M  CHG  1   8   1
M  END
>  <i_m_ct_stereo_status>  (47) 
1

>  <s_m_source_file>  (47) 
/var/tmp/pbs.5076255.sched01/tmpgqtxr8g4/0xtbcsf6k.sdf

>  <i_m_source_file_index>  (47) 
16

>  <i_lp_mmshare_version>  (47) 
48012

>  <i_f3d_flags>  (47) 
0

>  <s_epik_input>  (47) 
W0NIM11DKD1PKU4xW0NIMl1bQ0gyXVtDSF0oW0NIMl1bQ0gyXTEpTjJbQ0gyXVtDQEBIXShbQ0gzXSlOKFtDSDJdW0NASF0yW0NIM10pW0NIMl1jM25bY0hdW2NIXW4zW0NIM10=

>  <s_epik_cmdline>  (47) 
J2VwaWtfcHl0aG9uJywgJy1waHQnLCAnMi4wJywgJy1waCcsICc3LjAnLCAnLXRuJywgJzgnLCAnLW1hJywgJzIwMCcsICctaW1hZScsICc8aW5maWxlLm1hZT4nLCAnLW9tYWUnLCAnPG91dGZpbGUubWFlPic=

>  <r_epik_Ionization_Penalty>  (47) 
1.63123

>  <r_epik_Ionization_Penalty_Charging>  (47) 
1.63093

>  <r_epik_Ionization_Penalty_Neutral>  (47) 
0.000293697

>  <r_epik_State_Penalty>  (47) 
1.8424

>  <r_epik_Charging_Adjusted_Penalty>  (47) 
3.47333

>  <i_epik_Tot_Q>  (47) 
1

>  <i_epik_Tot_abs_Q>  (47) 
1

>  <s_lp_Force_Field>  (47) 
OPLS3e

>  <r_lp_Energy>  (47) 
47.362

>  <b_lp_Chiralities_Consistent>  (47) 
1

>  <s_lp_Variant>  (47) 
12:0-2

>  <s_i_glide_gridfile>  (47) 
pfpi4k_grid

>  <i_i_glide_lignum>  (47) 
16

>  <i_i_glide_rotatable_bonds>  (47) 
4

>  <r_i_docking_score>  (47) 
-3.64481

>  <r_i_glide_ligand_efficiency>  (47) 
-0.151867

>  <r_i_glide_ligand_efficiency_sa>  (47) 
-0.43806

>  <r_i_glide_ligand_efficiency_ln>  (47) 
-0.872369

>  <r_i_glide_gscore>  (47) 
-3.64481

>  <r_i_glide_lipo>  (47) 
-0.398302

>  <r_i_glide_hbond>  (47) 
-0.16

>  <r_i_glide_metal>  (47) 
-0

>  <r_i_glide_rewards>  (47) 
-1.16979

>  <r_i_glide_evdw>  (47) 
-22.037

>  <r_i_glide_ecoul>  (47) 
-8.34825

>  <r_i_glide_erotb>  (47) 
0.505765

>  <r_i_glide_esite>  (47) 
-0.0683892

>  <r_i_glide_emodel>  (47) 
-37.8671

>  <r_i_glide_energy>  (47) 
-30.3852

>  <r_i_glide_einternal>  (47) 
0.637782

>  <r_i_glide_intrahb_reward>  (47) 
-0

>  <i_i_glide_confnum>  (47) 
3

>  <i_i_glide_posenum>  (47) 
17

>  <r_i_glide_eff_state_penalty>  (47) 
0

>  <ligand_id>  (47) 
12

>  <original_smiles>  (47) 
CC(=O)N1CCC(N2CC(C)N(Cc3nccn3C)CC2C)CC1

>  <smiles>  (47) 
[H]c1nc(C([H])([H])N2C([H])([H])C([H])(C([H])([H])[H])[N+]([H])(C3([H])C([H])([H])C([H])([H])N(C(=O)C([H])([H])[H])C([H])([H])C3([H])[H])C([H])([H])C2([H])C([H])([H])[H])n(C([H])([H])[H])c1[H]

$$$$
12:1:2
     RDKit          3D

 56 58  0  0  1  0  0  0  0  0999 V2000
    5.4535   -3.2599   -1.7757 C   0  0  0  0  0  0  0  0  0  0  0  0
    6.0720   -2.5224   -0.5813 C   0  0  0  0  0  0  0  0  0  0  0  0
    7.2523   -2.1835   -0.6628 O   0  0  0  0  0  0  0  0  0  0  0  0
    5.2870   -2.2330    0.4787 N   0  0  0  0  0  0  0  0  0  0  0  0
    5.7626   -1.4168    1.6113 C   0  0  0  0  0  0  0  0  0  0  0  0
    4.8385   -0.2115    1.8392 C   0  0  0  0  0  0  0  0  0  0  0  0
    3.3512   -0.6286    1.9901 C   0  0  0  0  0  0  0  0  0  0  0  0
    2.4386    0.5533    2.1833 N   0  0  1  0  0  0  0  0  0  0  0  0
    0.9890    0.2194    2.1869 C   0  0  0  0  0  0  0  0  0  0  0  0
    0.0700    1.4563    2.2969 C   0  0  1  0  0  0  0  0  0  0  0  0
   -1.3828    0.9412    2.3234 C   0  0  0  0  0  0  0  0  0  0  0  0
    0.3918    2.1989    3.5255 N   0  0  0  0  0  0  0  0  0  0  0  0
   -0.4223    3.4105    3.6603 C   0  0  0  0  0  0  0  0  0  0  0  0
   -0.3635    4.0142    5.0298 C   0  0  0  0  0  0  0  0  0  0  0  0
    0.5856    4.8545    5.4270 N   0  0  0  0  0  0  0  0  0  0  0  0
    0.2686    5.1440    6.7507 C   0  0  0  0  0  0  0  0  0  0  0  0
   -0.8824    4.4764    7.0959 C   0  0  0  0  0  0  0  0  0  0  0  0
   -1.2816    3.7546    5.9799 N   0  0  0  0  0  0  0  0  0  0  0  0
   -2.4758    2.9180    5.9037 C   0  0  0  0  0  0  0  0  0  0  0  0
    1.8149    2.5831    3.4669 C   0  0  0  0  0  0  0  0  0  0  0  0
    2.7415    1.3572    3.4065 C   0  0  1  0  0  0  0  0  0  0  0  0
    2.6851    0.5331    4.7195 C   0  0  0  0  0  0  0  0  0  0  0  0
    2.9602   -1.5079    0.7900 C   0  0  0  0  0  0  0  0  0  0  0  0
    3.9010   -2.7005    0.6410 C   0  0  0  0  0  0  0  0  0  0  0  0
    5.1844   -4.2785   -1.4948 H   0  0  0  0  0  0  0  0  0  0  0  0
    6.1633   -3.3097   -2.6008 H   0  0  0  0  0  0  0  0  0  0  0  0
    4.5584   -2.7436   -2.1324 H   0  0  0  0  0  0  0  0  0  0  0  0
    5.7908   -2.0407    2.5019 H   0  0  0  0  0  0  0  0  0  0  0  0
    6.7800   -1.0448    1.4790 H   0  0  0  0  0  0  0  0  0  0  0  0
    5.1973    0.2763    2.7472 H   0  0  0  0  0  0  0  0  0  0  0  0
    4.9501    0.4944    1.0094 H   0  0  0  0  0  0  0  0  0  0  0  0
    3.2640   -1.2834    2.8612 H   0  0  0  0  0  0  0  0  0  0  0  0
    0.7046   -0.2851    1.2808 H   0  0  0  0  0  0  0  0  0  0  0  0
    0.7807   -0.5201    2.9539 H   0  0  0  0  0  0  0  0  0  0  0  0
    0.2180    2.1065    1.4353 H   0  0  0  0  0  0  0  0  0  0  0  0
   -1.6211    0.4791    1.3669 H   0  0  0  0  0  0  0  0  0  0  0  0
   -2.1505    1.6816    2.4978 H   0  0  0  0  0  0  0  0  0  0  0  0
   -1.4849    0.1647    3.0829 H   0  0  0  0  0  0  0  0  0  0  0  0
   -0.0815    4.1554    2.9353 H   0  0  0  0  0  0  0  0  0  0  0  0
   -1.4591    3.2145    3.4377 H   0  0  0  0  0  0  0  0  0  0  0  0
    0.8965    5.7961    7.3441 H   0  0  0  0  0  0  0  0  0  0  0  0
   -1.4406    4.4608    8.0272 H   0  0  0  0  0  0  0  0  0  0  0  0
   -3.1245    3.1201    6.7584 H   0  0  0  0  0  0  0  0  0  0  0  0
   -2.2001    1.8648    5.9206 H   0  0  0  0  0  0  0  0  0  0  0  0
   -3.0528    3.1204    5.0011 H   0  0  0  0  0  0  0  0  0  0  0  0
    2.0003    3.2426    2.6162 H   0  0  0  0  0  0  0  0  0  0  0  0
    2.0999    3.1453    4.3503 H   0  0  0  0  0  0  0  0  0  0  0  0
    3.7491    1.7724    3.3118 H   0  0  0  0  0  0  0  0  0  0  0  0
    2.8252    1.1638    5.5915 H   0  0  0  0  0  0  0  0  0  0  0  0
    3.4580   -0.2287    4.7610 H   0  0  0  0  0  0  0  0  0  0  0  0
    1.7286    0.0320    4.8429 H   0  0  0  0  0  0  0  0  0  0  0  0
    1.9653   -1.9323    0.9324 H   0  0  0  0  0  0  0  0  0  0  0  0
    2.9606   -0.9156   -0.1298 H   0  0  0  0  0  0  0  0  0  0  0  0
    3.5198   -3.2908   -0.1913 H   0  0  0  0  0  0  0  0  0  0  0  0
    3.8392   -3.3493    1.5159 H   0  0  0  0  0  0  0  0  0  0  0  0
    2.5817    1.1684    1.3907 H   0  0  0  0  0  0  0  0  0  0  0  0
  1  2  1  0
  1 25  1  0
  1 26  1  0
  1 27  1  0
  2  3  2  0
  2  4  1  0
  4 24  1  0
  4  5  1  0
  5  6  1  0
  5 28  1  0
  5 29  1  0
  6  7  1  0
  6 30  1  0
  6 31  1  0
  7  8  1  0
  7 23  1  0
  7 32  1  0
  8 21  1  0
  8  9  1  0
  8 56  1  6
  9 10  1  0
  9 33  1  0
  9 34  1  0
 10 11  1  0
 10 12  1  0
 10 35  1  6
 11 36  1  0
 11 37  1  0
 11 38  1  0
 12 13  1  0
 12 20  1  0
 13 14  1  0
 13 39  1  0
 13 40  1  0
 14 18  1  0
 14 15  2  0
 15 16  1  0
 16 17  2  0
 16 41  1  0
 17 18  1  0
 17 42  1  0
 18 19  1  0
 19 43  1  0
 19 44  1  0
 19 45  1  0
 20 21  1  0
 20 46  1  0
 20 47  1  0
 21 22  1  0
 21 48  1  6
 22 49  1  0
 22 50  1  0
 22 51  1  0
 23 24  1  0
 23 52  1  0
 23 53  1  0
 24 54  1  0
 24 55  1  0
M  CHG  1   8   1
M  END
>  <i_m_ct_stereo_status>  (48) 
1

>  <s_m_source_file>  (48) 
/var/tmp/pbs.5076255.sched01/tmpgqtxr8g4/0xtbcsf6k.sdf

>  <i_m_source_file_index>  (48) 
16

>  <i_lp_mmshare_version>  (48) 
48012

>  <i_f3d_flags>  (48) 
0

>  <s_epik_input>  (48) 
W0NIM11DKD1PKU4xW0NIMl1bQ0gyXVtDSF0oW0NIMl1bQ0gyXTEpTjJbQ0gyXVtDQEBIXShbQ0gzXSlOKFtDSDJdW0NASF0yW0NIM10pW0NIMl1jM25bY0hdW2NIXW4zW0NIM10=

>  <s_epik_cmdline>  (48) 
J2VwaWtfcHl0aG9uJywgJy1waHQnLCAnMi4wJywgJy1waCcsICc3LjAnLCAnLXRuJywgJzgnLCAnLW1hJywgJzIwMCcsICctaW1hZScsICc8aW5maWxlLm1hZT4nLCAnLW9tYWUnLCAnPG91dGZpbGUubWFlPic=

>  <r_epik_Ionization_Penalty>  (48) 
1.63123

>  <r_epik_Ionization_Penalty_Charging>  (48) 
1.63093

>  <r_epik_Ionization_Penalty_Neutral>  (48) 
0.000293697

>  <r_epik_State_Penalty>  (48) 
1.8424

>  <r_epik_Charging_Adjusted_Penalty>  (48) 
3.47333

>  <i_epik_Tot_Q>  (48) 
1

>  <i_epik_Tot_abs_Q>  (48) 
1

>  <s_lp_Force_Field>  (48) 
OPLS3e

>  <r_lp_Energy>  (48) 
47.362

>  <b_lp_Chiralities_Consistent>  (48) 
1

>  <s_lp_Variant>  (48) 
12:0-2

>  <s_i_glide_gridfile>  (48) 
pfpi4k_grid

>  <i_i_glide_lignum>  (48) 
16

>  <i_i_glide_rotatable_bonds>  (48) 
4

>  <r_i_docking_score>  (48) 
-3.50225

>  <r_i_glide_ligand_efficiency>  (48) 
-0.145927

>  <r_i_glide_ligand_efficiency_sa>  (48) 
-0.420926

>  <r_i_glide_ligand_efficiency_ln>  (48) 
-0.838248

>  <r_i_glide_gscore>  (48) 
-3.50225

>  <r_i_glide_lipo>  (48) 
-0.472134

>  <r_i_glide_hbond>  (48) 
-0.16

>  <r_i_glide_metal>  (48) 
-0

>  <r_i_glide_rewards>  (48) 
-1.17941

>  <r_i_glide_evdw>  (48) 
-23.3294

>  <r_i_glide_ecoul>  (48) 
-6.52259

>  <r_i_glide_erotb>  (48) 
0.505765

>  <r_i_glide_esite>  (48) 
-0.0516086

>  <r_i_glide_emodel>  (48) 
-37.3459

>  <r_i_glide_energy>  (48) 
-29.852

>  <r_i_glide_einternal>  (48) 
0.645443

>  <r_i_glide_intrahb_reward>  (48) 
-0

>  <i_i_glide_confnum>  (48) 
2

>  <i_i_glide_posenum>  (48) 
2

>  <r_i_glide_eff_state_penalty>  (48) 
0

>  <ligand_id>  (48) 
12

>  <original_smiles>  (48) 
CC(=O)N1CCC(N2CC(C)N(Cc3nccn3C)CC2C)CC1

>  <smiles>  (48) 
[H]c1nc(C([H])([H])N2C([H])([H])C([H])(C([H])([H])[H])[N+]([H])(C3([H])C([H])([H])C([H])([H])N(C(=O)C([H])([H])[H])C([H])([H])C3([H])[H])C([H])([H])C2([H])C([H])([H])[H])n(C([H])([H])[H])c1[H]

$$$$
12:2:0
     RDKit          3D

 56 58  0  0  1  0  0  0  0  0999 V2000
    2.2243   -2.8249   -3.3336 C   0  0  0  0  0  0  0  0  0  0  0  0
    3.7159   -2.8082   -3.0095 C   0  0  0  0  0  0  0  0  0  0  0  0
    4.5068   -2.5766   -3.9152 O   0  0  0  0  0  0  0  0  0  0  0  0
    4.1131   -3.0578   -1.7405 N   0  0  0  0  0  0  0  0  0  0  0  0
    3.2166   -3.0036   -0.5683 C   0  0  0  0  0  0  0  0  0  0  0  0
    3.2979   -4.2981    0.2417 C   0  0  0  0  0  0  0  0  0  0  0  0
    4.7555   -4.6008    0.6466 C   0  0  0  0  0  0  0  0  0  0  0  0
    4.9128   -5.7296    1.5886 N   0  0  0  0  0  0  0  0  0  0  0  0
    4.2774   -6.9704    1.1009 C   0  0  0  0  0  0  0  0  0  0  0  0
    4.4995   -8.1625    2.0551 C   0  0  1  0  0  0  0  0  0  0  0  0
    5.9908   -8.5725    2.0361 C   0  0  0  0  0  0  0  0  0  0  0  0
    3.9622   -7.8577    3.3921 N   0  0  0  0  0  0  0  0  0  0  0  0
    4.0339   -8.9785    4.3441 C   0  0  0  0  0  0  0  0  0  0  0  0
    2.8693   -9.9236    4.2737 C   0  0  0  0  0  0  0  0  0  0  0  0
    2.5879  -10.7691    3.2777 N   0  0  0  0  0  0  0  0  0  0  0  0
    1.4556  -11.4844    3.5633 C   0  0  0  0  0  0  0  0  0  0  0  0
    1.0409  -11.0707    4.8042 C   0  0  0  0  0  0  0  0  0  0  0  0
    1.9299  -10.1160    5.2215 N   0  0  0  0  0  0  0  0  0  0  0  0
    1.8912   -9.4057    6.5019 C   0  0  0  0  0  0  0  0  0  0  0  0
    4.5849   -6.6331    3.9010 C   0  0  0  0  0  0  0  0  0  0  0  0
    4.4167   -5.4219    2.9471 C   0  0  1  0  0  0  0  0  0  0  0  0
    5.1207   -4.2102    3.5892 C   0  0  0  0  0  0  0  0  0  0  0  0
    5.6415   -4.6545   -0.6067 C   0  0  0  0  0  0  0  0  0  0  0  0
    5.5240   -3.3336   -1.4035 C   0  0  0  0  0  0  0  0  0  0  0  0
    1.8433   -3.8389   -3.2384 H   0  0  0  0  0  0  0  0  0  0  0  0
    2.0496   -2.4794   -4.3458 H   0  0  0  0  0  0  0  0  0  0  0  0
    1.6532   -2.1751   -2.6798 H   0  0  0  0  0  0  0  0  0  0  0  0
    3.5022   -2.1460    0.0495 H   0  0  0  0  0  0  0  0  0  0  0  0
    2.1612   -2.8758   -0.8075 H   0  0  0  0  0  0  0  0  0  0  0  0
    2.6723   -4.1785    1.1223 H   0  0  0  0  0  0  0  0  0  0  0  0
    2.8696   -5.1102   -0.3457 H   0  0  0  0  0  0  0  0  0  0  0  0
    5.1331   -3.6998    1.1326 H   0  0  0  0  0  0  0  0  0  0  0  0
    3.2000   -6.8313    0.9760 H   0  0  0  0  0  0  0  0  0  0  0  0
    4.6574   -7.2320    0.1098 H   0  0  0  0  0  0  0  0  0  0  0  0
    3.9216   -8.9920    1.6435 H   0  0  0  0  0  0  0  0  0  0  0  0
    6.3393   -8.7267    1.0165 H   0  0  0  0  0  0  0  0  0  0  0  0
    6.1880   -9.4879    2.5923 H   0  0  0  0  0  0  0  0  0  0  0  0
    6.6224   -7.7917    2.4614 H   0  0  0  0  0  0  0  0  0  0  0  0
    4.9200   -9.5908    4.1767 H   0  0  0  0  0  0  0  0  0  0  0  0
    4.0893   -8.6124    5.3736 H   0  0  0  0  0  0  0  0  0  0  0  0
    1.0394  -12.2239    2.8952 H   0  0  0  0  0  0  0  0  0  0  0  0
    0.2200  -11.3929    5.4160 H   0  0  0  0  0  0  0  0  0  0  0  0
    1.1050   -9.8441    7.1253 H   0  0  0  0  0  0  0  0  0  0  0  0
    1.6718   -8.3537    6.3077 H   0  0  0  0  0  0  0  0  0  0  0  0
    2.8523   -9.5103    7.0136 H   0  0  0  0  0  0  0  0  0  0  0  0
    4.1367   -6.3742    4.8635 H   0  0  0  0  0  0  0  0  0  0  0  0
    5.6414   -6.8143    4.1010 H   0  0  0  0  0  0  0  0  0  0  0  0
    3.3477   -5.2013    2.8941 H   0  0  0  0  0  0  0  0  0  0  0  0
    4.7770   -4.0431    4.6054 H   0  0  0  0  0  0  0  0  0  0  0  0
    4.9763   -3.2751    3.0532 H   0  0  0  0  0  0  0  0  0  0  0  0
    6.2011   -4.3993    3.6355 H   0  0  0  0  0  0  0  0  0  0  0  0
    6.6781   -4.7864   -0.2947 H   0  0  0  0  0  0  0  0  0  0  0  0
    5.3736   -5.4969   -1.2366 H   0  0  0  0  0  0  0  0  0  0  0  0
    6.1596   -3.4080   -2.2869 H   0  0  0  0  0  0  0  0  0  0  0  0
    5.9165   -2.4959   -0.8224 H   0  0  0  0  0  0  0  0  0  0  0  0
    3.1403  -10.8805    2.4307 H   0  0  0  0  0  0  0  0  0  0  0  0
  1  2  1  0
  1 25  1  0
  1 26  1  0
  1 27  1  0
  2  3  2  0
  2  4  1  0
  4 24  1  0
  4  5  1  0
  5  6  1  0
  5 28  1  0
  5 29  1  0
  6  7  1  0
  6 30  1  0
  6 31  1  0
  7  8  1  0
  7 23  1  0
  7 32  1  0
  8 21  1  0
  8  9  1  0
  9 10  1  0
  9 33  1  0
  9 34  1  0
 10 11  1  0
 10 12  1  0
 10 35  1  6
 11 36  1  0
 11 37  1  0
 11 38  1  0
 12 13  1  0
 12 20  1  0
 13 14  1  0
 13 39  1  0
 13 40  1  0
 14 18  1  0
 14 15  2  0
 15 16  1  0
 15 56  1  0
 16 17  2  0
 16 41  1  0
 17 18  1  0
 17 42  1  0
 18 19  1  0
 19 43  1  0
 19 44  1  0
 19 45  1  0
 20 21  1  0
 20 46  1  0
 20 47  1  0
 21 22  1  0
 21 48  1  6
 22 49  1  0
 22 50  1  0
 22 51  1  0
 23 24  1  0
 23 52  1  0
 23 53  1  0
 24 54  1  0
 24 55  1  0
M  CHG  1  15   1
M  END
>  <i_m_ct_stereo_status>  (49) 
1

>  <s_m_source_file>  (49) 
/var/tmp/pbs.5076255.sched01/tmpgqtxr8g4/0xtbcsf6k.sdf

>  <i_m_source_file_index>  (49) 
17

>  <i_lp_mmshare_version>  (49) 
48012

>  <i_f3d_flags>  (49) 
0

>  <s_epik_input>  (49) 
W0NIM11DKD1PKU4xW0NIMl1bQ0gyXVtDSF0oW0NIMl1bQ0gyXTEpTjJbQ0gyXVtDQEBIXShbQ0gzXSlOKFtDSDJdW0NASF0yW0NIM10pW0NIMl1jM25bY0hdW2NIXW4zW0NIM10=

>  <s_epik_cmdline>  (49) 
J2VwaWtfcHl0aG9uJywgJy1waHQnLCAnMi4wJywgJy1waCcsICc3LjAnLCAnLXRuJywgJzgnLCAnLW1hJywgJzIwMCcsICctaW1hZScsICc8aW5maWxlLm1hZT4nLCAnLW9tYWUnLCAnPG91dGZpbGUubWFlPic=

>  <r_epik_Ionization_Penalty>  (49) 
2.6998

>  <r_epik_Ionization_Penalty_Charging>  (49) 
0

>  <r_epik_Ionization_Penalty_Neutral>  (49) 
2.6998

>  <r_epik_State_Penalty>  (49) 
2.70134

>  <r_epik_Charging_Adjusted_Penalty>  (49) 
2.70134

>  <i_epik_Tot_Q>  (49) 
1

>  <i_epik_Tot_abs_Q>  (49) 
1

>  <s_lp_Force_Field>  (49) 
OPLS3e

>  <r_lp_Energy>  (49) 
51.557

>  <b_lp_Chiralities_Consistent>  (49) 
1

>  <s_lp_Variant>  (49) 
12:0-3

>  <s_i_glide_gridfile>  (49) 
pfpi4k_grid

>  <i_i_glide_lignum>  (49) 
17

>  <i_i_glide_rotatable_bonds>  (49) 
4

>  <r_i_docking_score>  (49) 
-3.87465

>  <r_i_glide_ligand_efficiency>  (49) 
-0.161444

>  <r_i_glide_ligand_efficiency_sa>  (49) 
-0.465684

>  <r_i_glide_ligand_efficiency_ln>  (49) 
-0.927381

>  <r_i_glide_gscore>  (49) 
-3.87465

>  <r_i_glide_lipo>  (49) 
-0.675584

>  <r_i_glide_hbond>  (49) 
-0.133028

>  <r_i_glide_metal>  (49) 
-0

>  <r_i_glide_rewards>  (49) 
-1.20489

>  <r_i_glide_evdw>  (49) 
-23.1344

>  <r_i_glide_ecoul>  (49) 
-7.51545

>  <r_i_glide_erotb>  (49) 
0.505765

>  <r_i_glide_esite>  (49) 
-0.0828746

>  <r_i_glide_emodel>  (49) 
-37.2072

>  <r_i_glide_energy>  (49) 
-30.6498

>  <r_i_glide_einternal>  (49) 
6.7684

>  <r_i_glide_intrahb_reward>  (49) 
-0

>  <i_i_glide_confnum>  (49) 
1

>  <i_i_glide_posenum>  (49) 
1

>  <r_i_glide_eff_state_penalty>  (49) 
0

>  <ligand_id>  (49) 
12

>  <original_smiles>  (49) 
CC(=O)N1CCC(N2CC(C)N(Cc3nccn3C)CC2C)CC1

>  <smiles>  (49) 
[H]c1c([H])[n+]([H])c(C([H])([H])N2C([H])([H])C([H])(C([H])([H])[H])N(C3([H])C([H])([H])C([H])([H])N(C(=O)C([H])([H])[H])C([H])([H])C3([H])[H])C([H])([H])C2([H])C([H])([H])[H])n1C([H])([H])[H]

$$$$
12:2:1
     RDKit          3D

 56 58  0  0  1  0  0  0  0  0999 V2000
    4.1236   -1.7068   -2.2312 C   0  0  0  0  0  0  0  0  0  0  0  0
    5.0024   -1.7243   -0.9775 C   0  0  0  0  0  0  0  0  0  0  0  0
    6.2143   -1.4727   -1.1245 O   0  0  0  0  0  0  0  0  0  0  0  0
    4.4622   -1.9557    0.2214 N   0  0  0  0  0  0  0  0  0  0  0  0
    3.0363   -2.3007    0.4226 C   0  0  0  0  0  0  0  0  0  0  0  0
    2.9127   -3.5706    1.2542 C   0  0  0  0  0  0  0  0  0  0  0  0
    3.6662   -3.4454    2.6001 C   0  0  0  0  0  0  0  0  0  0  0  0
    3.4249   -4.5528    3.5557 N   0  0  0  0  0  0  0  0  0  0  0  0
    3.8633   -5.8620    3.0305 C   0  0  0  0  0  0  0  0  0  0  0  0
    3.6912   -6.9968    4.0624 C   0  0  1  0  0  0  0  0  0  0  0  0
    4.7051   -6.8056    5.2272 C   0  0  0  0  0  0  0  0  0  0  0  0
    2.2776   -7.1113    4.4654 N   0  0  0  0  0  0  0  0  0  0  0  0
    1.9738   -8.2464    5.3516 C   0  0  0  0  0  0  0  0  0  0  0  0
    1.9761   -9.5856    4.6565 C   0  0  0  0  0  0  0  0  0  0  0  0
    2.9565  -10.4825    4.6728 N   0  0  0  0  0  0  0  0  0  0  0  0
    2.6159  -11.5989    3.9553 C   0  0  0  0  0  0  0  0  0  0  0  0
    1.3299  -11.3691    3.4798 C   0  0  0  0  0  0  0  0  0  0  0  0
    0.9732  -10.1140    3.9337 N   0  0  0  0  0  0  0  0  0  0  0  0
   -0.2904   -9.4351    3.6793 C   0  0  0  0  0  0  0  0  0  0  0  0
    1.8136   -5.8290    4.9979 C   0  0  0  0  0  0  0  0  0  0  0  0
    2.0205   -4.6488    4.0137 C   0  0  1  0  0  0  0  0  0  0  0  0
    1.5017   -3.3596    4.6976 C   0  0  0  0  0  0  0  0  0  0  0  0
    5.1458   -3.0989    2.3311 C   0  0  0  0  0  0  0  0  0  0  0  0
    5.2278   -1.8160    1.4838 C   0  0  0  0  0  0  0  0  0  0  0  0
    3.7546   -2.7097   -2.4383 H   0  0  0  0  0  0  0  0  0  0  0  0
    4.6853   -1.3655   -3.0929 H   0  0  0  0  0  0  0  0  0  0  0  0
    3.2739   -1.0354   -2.0956 H   0  0  0  0  0  0  0  0  0  0  0  0
    2.5466   -1.4575    0.9062 H   0  0  0  0  0  0  0  0  0  0  0  0
    2.4837   -2.5083   -0.4932 H   0  0  0  0  0  0  0  0  0  0  0  0
    1.8546   -3.7238    1.4253 H   0  0  0  0  0  0  0  0  0  0  0  0
    3.2779   -4.4224    0.6766 H   0  0  0  0  0  0  0  0  0  0  0  0
    3.3233   -2.5210    3.0733 H   0  0  0  0  0  0  0  0  0  0  0  0
    3.3135   -6.1258    2.1226 H   0  0  0  0  0  0  0  0  0  0  0  0
    4.9152   -5.8221    2.7373 H   0  0  0  0  0  0  0  0  0  0  0  0
    3.9577   -7.9123    3.5354 H   0  0  0  0  0  0  0  0  0  0  0  0
    5.7212   -6.6580    4.8471 H   0  0  0  0  0  0  0  0  0  0  0  0
    4.7333   -7.6524    5.9176 H   0  0  0  0  0  0  0  0  0  0  0  0
    4.4759   -5.9138    5.8194 H   0  0  0  0  0  0  0  0  0  0  0  0
    2.6957   -8.3318    6.1614 H   0  0  0  0  0  0  0  0  0  0  0  0
    0.9789   -8.1611    5.7985 H   0  0  0  0  0  0  0  0  0  0  0  0
    3.2564  -12.4409    3.8259 H   0  0  0  0  0  0  0  0  0  0  0  0
    0.6975  -11.9853    2.8792 H   0  0  0  0  0  0  0  0  0  0  0  0
   -0.9593  -10.1338    3.1854 H   0  0  0  0  0  0  0  0  0  0  0  0
   -0.0956   -8.5751    3.0391 H   0  0  0  0  0  0  0  0  0  0  0  0
   -0.7225   -9.1167    4.6288 H   0  0  0  0  0  0  0  0  0  0  0  0
    0.7448   -5.9057    5.2188 H   0  0  0  0  0  0  0  0  0  0  0  0
    2.2995   -5.6249    5.9550 H   0  0  0  0  0  0  0  0  0  0  0  0
    1.3795   -4.8664    3.1627 H   0  0  0  0  0  0  0  0  0  0  0  0
    0.4774   -3.4875    5.0604 H   0  0  0  0  0  0  0  0  0  0  0  0
    1.4797   -2.4857    4.0431 H   0  0  0  0  0  0  0  0  0  0  0  0
    2.1297   -3.1095    5.5579 H   0  0  0  0  0  0  0  0  0  0  0  0
    5.6298   -2.9223    3.2912 H   0  0  0  0  0  0  0  0  0  0  0  0
    5.6778   -3.9166    1.8415 H   0  0  0  0  0  0  0  0  0  0  0  0
    6.2797   -1.5885    1.3210 H   0  0  0  0  0  0  0  0  0  0  0  0
    4.8254   -0.9637    2.0308 H   0  0  0  0  0  0  0  0  0  0  0  0
    3.8468  -10.3647    5.1558 H   0  0  0  0  0  0  0  0  0  0  0  0
  1  2  1  0
  1 25  1  0
  1 26  1  0
  1 27  1  0
  2  3  2  0
  2  4  1  0
  4 24  1  0
  4  5  1  0
  5  6  1  0
  5 28  1  0
  5 29  1  0
  6  7  1  0
  6 30  1  0
  6 31  1  0
  7  8  1  0
  7 23  1  0
  7 32  1  0
  8 21  1  0
  8  9  1  0
  9 10  1  0
  9 33  1  0
  9 34  1  0
 10 11  1  0
 10 12  1  0
 10 35  1  6
 11 36  1  0
 11 37  1  0
 11 38  1  0
 12 13  1  0
 12 20  1  0
 13 14  1  0
 13 39  1  0
 13 40  1  0
 14 18  1  0
 14 15  2  0
 15 16  1  0
 15 56  1  0
 16 17  2  0
 16 41  1  0
 17 18  1  0
 17 42  1  0
 18 19  1  0
 19 43  1  0
 19 44  1  0
 19 45  1  0
 20 21  1  0
 20 46  1  0
 20 47  1  0
 21 22  1  0
 21 48  1  6
 22 49  1  0
 22 50  1  0
 22 51  1  0
 23 24  1  0
 23 52  1  0
 23 53  1  0
 24 54  1  0
 24 55  1  0
M  CHG  1  15   1
M  END
>  <i_m_ct_stereo_status>  (50) 
1

>  <s_m_source_file>  (50) 
/var/tmp/pbs.5076255.sched01/tmpgqtxr8g4/0xtbcsf6k.sdf

>  <i_m_source_file_index>  (50) 
17

>  <i_lp_mmshare_version>  (50) 
48012

>  <i_f3d_flags>  (50) 
0

>  <s_epik_input>  (50) 
W0NIM11DKD1PKU4xW0NIMl1bQ0gyXVtDSF0oW0NIMl1bQ0gyXTEpTjJbQ0gyXVtDQEBIXShbQ0gzXSlOKFtDSDJdW0NASF0yW0NIM10pW0NIMl1jM25bY0hdW2NIXW4zW0NIM10=

>  <s_epik_cmdline>  (50) 
J2VwaWtfcHl0aG9uJywgJy1waHQnLCAnMi4wJywgJy1waCcsICc3LjAnLCAnLXRuJywgJzgnLCAnLW1hJywgJzIwMCcsICctaW1hZScsICc8aW5maWxlLm1hZT4nLCAnLW9tYWUnLCAnPG91dGZpbGUubWFlPic=

>  <r_epik_Ionization_Penalty>  (50) 
2.6998

>  <r_epik_Ionization_Penalty_Charging>  (50) 
0

>  <r_epik_Ionization_Penalty_Neutral>  (50) 
2.6998

>  <r_epik_State_Penalty>  (50) 
2.70134

>  <r_epik_Charging_Adjusted_Penalty>  (50) 
2.70134

>  <i_epik_Tot_Q>  (50) 
1

>  <i_epik_Tot_abs_Q>  (50) 
1

>  <s_lp_Force_Field>  (50) 
OPLS3e

>  <r_lp_Energy>  (50) 
51.557

>  <b_lp_Chiralities_Consistent>  (50) 
1

>  <s_lp_Variant>  (50) 
12:0-3

>  <s_i_glide_gridfile>  (50) 
pfpi4k_grid

>  <i_i_glide_lignum>  (50) 
17

>  <i_i_glide_rotatable_bonds>  (50) 
4

>  <r_i_docking_score>  (50) 
-3.17125

>  <r_i_glide_ligand_efficiency>  (50) 
-0.132136

>  <r_i_glide_ligand_efficiency_sa>  (50) 
-0.381145

>  <r_i_glide_ligand_efficiency_ln>  (50) 
-0.759026

>  <r_i_glide_gscore>  (50) 
-3.17125

>  <r_i_glide_lipo>  (50) 
-0.367526

>  <r_i_glide_hbond>  (50) 
-0.118706

>  <r_i_glide_metal>  (50) 
-0

>  <r_i_glide_rewards>  (50) 
-1.12855

>  <r_i_glide_evdw>  (50) 
-19.2271

>  <r_i_glide_ecoul>  (50) 
-6.69297

>  <r_i_glide_erotb>  (50) 
0.505765

>  <r_i_glide_esite>  (50) 
-0.0969366

>  <r_i_glide_emodel>  (50) 
-33.038

>  <r_i_glide_energy>  (50) 
-25.9201

>  <r_i_glide_einternal>  (50) 
2.25061

>  <r_i_glide_intrahb_reward>  (50) 
-0

>  <i_i_glide_confnum>  (50) 
1

>  <i_i_glide_posenum>  (50) 
28

>  <r_i_glide_eff_state_penalty>  (50) 
0

>  <ligand_id>  (50) 
12

>  <original_smiles>  (50) 
CC(=O)N1CCC(N2CC(C)N(Cc3nccn3C)CC2C)CC1

>  <smiles>  (50) 
[H]c1c([H])[n+]([H])c(C([H])([H])N2C([H])([H])C([H])(C([H])([H])[H])N(C3([H])C([H])([H])C([H])([H])N(C(=O)C([H])([H])[H])C([H])([H])C3([H])[H])C([H])([H])C2([H])C([H])([H])[H])n1C([H])([H])[H]

$$$$
12:2:2
     RDKit          3D

 56 58  0  0  1  0  0  0  0  0999 V2000
    7.5879   -1.8571    0.2871 C   0  0  0  0  0  0  0  0  0  0  0  0
    6.1101   -1.6707   -0.0674 C   0  0  0  0  0  0  0  0  0  0  0  0
    5.8147   -1.5164   -1.2501 O   0  0  0  0  0  0  0  0  0  0  0  0
    5.1849   -1.7367    0.9258 N   0  0  0  0  0  0  0  0  0  0  0  0
    3.7460   -1.8637    0.6391 C   0  0  0  0  0  0  0  0  0  0  0  0
    3.1790   -3.0820    1.3770 C   0  0  0  0  0  0  0  0  0  0  0  0
    3.4799   -3.0156    2.8982 C   0  0  0  0  0  0  0  0  0  0  0  0
    2.8222   -4.0581    3.7160 N   0  0  0  0  0  0  0  0  0  0  0  0
    3.2514   -5.4231    3.3563 C   0  0  0  0  0  0  0  0  0  0  0  0
    2.6154   -6.4969    4.2676 C   0  0  1  0  0  0  0  0  0  0  0  0
    3.1915   -6.3791    5.7006 C   0  0  0  0  0  0  0  0  0  0  0  0
    1.1452   -6.4359    4.1881 N   0  0  0  0  0  0  0  0  0  0  0  0
    0.4584   -7.5005    4.9333 C   0  0  0  0  0  0  0  0  0  0  0  0
    0.5391   -8.8505    4.2815 C   0  0  0  0  0  0  0  0  0  0  0  0
    1.2030   -9.9271    4.7415 N   0  0  0  0  0  0  0  0  0  0  0  0
    1.0316  -10.9944    3.8956 C   0  0  0  0  0  0  0  0  0  0  0  0
    0.2302  -10.5537    2.8729 C   0  0  0  0  0  0  0  0  0  0  0  0
   -0.0696   -9.2369    3.1352 N   0  0  0  0  0  0  0  0  0  0  0  0
   -0.9141   -8.3660    2.3243 C   0  0  0  0  0  0  0  0  0  0  0  0
    0.6958   -5.0925    4.5558 C   0  0  0  0  0  0  0  0  0  0  0  0
    1.3482   -3.9803    3.6921 C   0  0  1  0  0  0  0  0  0  0  0  0
    0.8030   -2.6172    4.1678 C   0  0  0  0  0  0  0  0  0  0  0  0
    5.0007   -2.8632    3.1207 C   0  0  0  0  0  0  0  0  0  0  0  0
    5.5109   -1.6272    2.3584 C   0  0  0  0  0  0  0  0  0  0  0  0
    7.9583   -1.0056    0.8522 H   0  0  0  0  0  0  0  0  0  0  0  0
    8.1864   -1.9532   -0.6169 H   0  0  0  0  0  0  0  0  0  0  0  0
    7.7230   -2.7638    0.8752 H   0  0  0  0  0  0  0  0  0  0  0  0
    3.2278   -0.9548    0.9451 H   0  0  0  0  0  0  0  0  0  0  0  0
    3.5284   -1.9906   -0.4240 H   0  0  0  0  0  0  0  0  0  0  0  0
    2.1091   -3.0935    1.1936 H   0  0  0  0  0  0  0  0  0  0  0  0
    3.5924   -3.9914    0.9357 H   0  0  0  0  0  0  0  0  0  0  0  0
    3.1067   -2.0497    3.2471 H   0  0  0  0  0  0  0  0  0  0  0  0
    3.0040   -5.6459    2.3150 H   0  0  0  0  0  0  0  0  0  0  0  0
    4.3380   -5.5124    3.4282 H   0  0  0  0  0  0  0  0  0  0  0  0
    2.9339   -7.4575    3.8629 H   0  0  0  0  0  0  0  0  0  0  0  0
    4.2836   -6.3689    5.6884 H   0  0  0  0  0  0  0  0  0  0  0  0
    2.8685   -7.1973    6.3458 H   0  0  0  0  0  0  0  0  0  0  0  0
    2.8870   -5.4473    6.1813 H   0  0  0  0  0  0  0  0  0  0  0  0
    0.8843   -7.6110    5.9307 H   0  0  0  0  0  0  0  0  0  0  0  0
   -0.6103   -7.2872    5.0366 H   0  0  0  0  0  0  0  0  0  0  0  0
    1.4791  -11.9562    4.0777 H   0  0  0  0  0  0  0  0  0  0  0  0
   -0.1515  -11.0527    1.9944 H   0  0  0  0  0  0  0  0  0  0  0  0
   -1.3890   -8.9655    1.5431 H   0  0  0  0  0  0  0  0  0  0  0  0
   -0.2837   -7.5974    1.8722 H   0  0  0  0  0  0  0  0  0  0  0  0
   -1.6839   -7.9143    2.9547 H   0  0  0  0  0  0  0  0  0  0  0  0
   -0.3883   -5.0377    4.4301 H   0  0  0  0  0  0  0  0  0  0  0  0
    0.8832   -4.9139    5.6177 H   0  0  0  0  0  0  0  0  0  0  0  0
    1.0094   -4.1473    2.6731 H   0  0  0  0  0  0  0  0  0  0  0  0
   -0.2881   -2.6051    4.1655 H   0  0  0  0  0  0  0  0  0  0  0  0
    1.1253   -1.7831    3.5441 H   0  0  0  0  0  0  0  0  0  0  0  0
    1.1307   -2.4080    5.1872 H   0  0  0  0  0  0  0  0  0  0  0  0
    5.1913   -2.7287    4.1845 H   0  0  0  0  0  0  0  0  0  0  0  0
    5.5517   -3.7501    2.8028 H   0  0  0  0  0  0  0  0  0  0  0  0
    6.5733   -1.5141    2.5536 H   0  0  0  0  0  0  0  0  0  0  0  0
    5.0547   -0.7153    2.7504 H   0  0  0  0  0  0  0  0  0  0  0  0
    1.7433   -9.9523    5.5918 H   0  0  0  0  0  0  0  0  0  0  0  0
  1  2  1  0
  1 25  1  0
  1 26  1  0
  1 27  1  0
  2  3  2  0
  2  4  1  0
  4 24  1  0
  4  5  1  0
  5  6  1  0
  5 28  1  0
  5 29  1  0
  6  7  1  0
  6 30  1  0
  6 31  1  0
  7  8  1  0
  7 23  1  0
  7 32  1  0
  8 21  1  0
  8  9  1  0
  9 10  1  0
  9 33  1  0
  9 34  1  0
 10 11  1  0
 10 12  1  0
 10 35  1  6
 11 36  1  0
 11 37  1  0
 11 38  1  0
 12 13  1  0
 12 20  1  0
 13 14  1  0
 13 39  1  0
 13 40  1  0
 14 18  1  0
 14 15  2  0
 15 16  1  0
 15 56  1  0
 16 17  2  0
 16 41  1  0
 17 18  1  0
 17 42  1  0
 18 19  1  0
 19 43  1  0
 19 44  1  0
 19 45  1  0
 20 21  1  0
 20 46  1  0
 20 47  1  0
 21 22  1  0
 21 48  1  6
 22 49  1  0
 22 50  1  0
 22 51  1  0
 23 24  1  0
 23 52  1  0
 23 53  1  0
 24 54  1  0
 24 55  1  0
M  CHG  1  15   1
M  END
>  <i_m_ct_stereo_status>  (51) 
1

>  <s_m_source_file>  (51) 
/var/tmp/pbs.5076255.sched01/tmpgqtxr8g4/0xtbcsf6k.sdf

>  <i_m_source_file_index>  (51) 
17

>  <i_lp_mmshare_version>  (51) 
48012

>  <i_f3d_flags>  (51) 
0

>  <s_epik_input>  (51) 
W0NIM11DKD1PKU4xW0NIMl1bQ0gyXVtDSF0oW0NIMl1bQ0gyXTEpTjJbQ0gyXVtDQEBIXShbQ0gzXSlOKFtDSDJdW0NASF0yW0NIM10pW0NIMl1jM25bY0hdW2NIXW4zW0NIM10=

>  <s_epik_cmdline>  (51) 
J2VwaWtfcHl0aG9uJywgJy1waHQnLCAnMi4wJywgJy1waCcsICc3LjAnLCAnLXRuJywgJzgnLCAnLW1hJywgJzIwMCcsICctaW1hZScsICc8aW5maWxlLm1hZT4nLCAnLW9tYWUnLCAnPG91dGZpbGUubWFlPic=

>  <r_epik_Ionization_Penalty>  (51) 
2.6998

>  <r_epik_Ionization_Penalty_Charging>  (51) 
0

>  <r_epik_Ionization_Penalty_Neutral>  (51) 
2.6998

>  <r_epik_State_Penalty>  (51) 
2.70134

>  <r_epik_Charging_Adjusted_Penalty>  (51) 
2.70134

>  <i_epik_Tot_Q>  (51) 
1

>  <i_epik_Tot_abs_Q>  (51) 
1

>  <s_lp_Force_Field>  (51) 
OPLS3e

>  <r_lp_Energy>  (51) 
51.557

>  <b_lp_Chiralities_Consistent>  (51) 
1

>  <s_lp_Variant>  (51) 
12:0-3

>  <s_i_glide_gridfile>  (51) 
pfpi4k_grid

>  <i_i_glide_lignum>  (51) 
17

>  <i_i_glide_rotatable_bonds>  (51) 
4

>  <r_i_docking_score>  (51) 
-3.14399

>  <r_i_glide_ligand_efficiency>  (51) 
-0.131

>  <r_i_glide_ligand_efficiency_sa>  (51) 
-0.377868

>  <r_i_glide_ligand_efficiency_ln>  (51) 
-0.752501

>  <r_i_glide_gscore>  (51) 
-3.14399

>  <r_i_glide_lipo>  (51) 
-0.366446

>  <r_i_glide_hbond>  (51) 
-0.0661213

>  <r_i_glide_metal>  (51) 
-0

>  <r_i_glide_rewards>  (51) 
-1.21904

>  <r_i_glide_evdw>  (51) 
-22.8017

>  <r_i_glide_ecoul>  (51) 
-4.93693

>  <r_i_glide_erotb>  (51) 
0.505765

>  <r_i_glide_esite>  (51) 
-0.117521

>  <r_i_glide_emodel>  (51) 
-34.2655

>  <r_i_glide_energy>  (51) 
-27.7386

>  <r_i_glide_einternal>  (51) 
3.23716

>  <r_i_glide_intrahb_reward>  (51) 
-0

>  <i_i_glide_confnum>  (51) 
1

>  <i_i_glide_posenum>  (51) 
38

>  <r_i_glide_eff_state_penalty>  (51) 
0

>  <ligand_id>  (51) 
12

>  <original_smiles>  (51) 
CC(=O)N1CCC(N2CC(C)N(Cc3nccn3C)CC2C)CC1

>  <smiles>  (51) 
[H]c1c([H])[n+]([H])c(C([H])([H])N2C([H])([H])C([H])(C([H])([H])[H])N(C3([H])C([H])([H])C([H])([H])N(C(=O)C([H])([H])[H])C([H])([H])C3([H])[H])C([H])([H])C2([H])C([H])([H])[H])n1C([H])([H])[H]

$$$$
13:0:0
     RDKit          3D

 48 52  0  0  1  0  0  0  0  0999 V2000
   -1.9876   -8.3261    3.0802 C   0  0  0  0  0  0  0  0  0  0  0  0
   -0.6028   -8.1737    2.4958 C   0  0  0  0  0  0  0  0  0  0  0  0
    0.3049   -7.2813    2.9153 C   0  0  0  0  0  0  0  0  0  0  0  0
    1.7030   -7.1401    2.3443 C   0  0  2  0  0  0  0  0  0  0  0  0
    2.7524   -6.7650    3.4729 C   0  0  0  0  0  0  0  0  0  0  0  0
    4.1062   -6.3469    2.8438 C   0  0  2  0  0  0  0  0  0  0  0  0
    5.4170   -6.0206    3.6022 C   0  0  2  0  0  0  0  0  0  0  0  0
    5.3978   -4.6298    4.3009 C   0  0  0  0  0  0  0  0  0  0  0  0
    4.9713   -3.4472    3.4262 C   0  0  0  0  0  0  0  0  0  0  0  0
    5.1509   -2.0624    3.5981 C   0  0  0  0  0  0  0  0  0  0  0  0
    4.5321   -1.1566    2.6930 C   0  0  0  0  0  0  0  0  0  0  0  0
    3.6495   -1.6073    1.6686 C   0  0  0  0  0  0  0  0  0  0  0  0
    3.0132   -0.7011    0.8704 O   0  0  0  0  0  0  0  0  0  0  0  0
    3.4267   -2.9889    1.5060 C   0  0  0  0  0  0  0  0  0  0  0  0
    4.1723   -3.8138    2.3419 C   0  0  0  0  0  0  0  0  0  0  0  0
    3.9295   -5.1993    1.8608 C   0  0  1  0  0  0  0  0  0  0  0  0
    4.9504   -5.4996    0.7383 C   0  0  0  0  0  0  0  0  0  0  0  0
    6.3838   -5.3861    1.3266 C   0  0  0  0  0  0  0  0  0  0  0  0
    6.5691   -6.1031    2.6322 N   0  0  2  0  0  0  0  0  0  0  0  0
    7.0741   -7.4814    2.4239 C   0  0  0  0  0  0  0  0  0  0  0  0
    2.4955   -4.9019    1.4935 C   0  0  1  0  0  0  0  0  0  0  0  0
    2.5311   -3.6959    0.7228 O   0  0  0  0  0  0  0  0  0  0  0  0
    1.6758   -6.1266    1.1730 C   0  0  0  0  0  0  0  0  0  0  0  0
    0.9908   -6.2544    0.1603 O   0  0  0  0  0  0  0  0  0  0  0  0
   -2.1218   -9.3357    3.4693 H   0  0  0  0  0  0  0  0  0  0  0  0
   -2.7218   -8.1621    2.2970 H   0  0  0  0  0  0  0  0  0  0  0  0
   -2.1734   -7.6196    3.8893 H   0  0  0  0  0  0  0  0  0  0  0  0
   -0.3618   -8.8460    1.6875 H   0  0  0  0  0  0  0  0  0  0  0  0
    0.0412   -6.6087    3.7184 H   0  0  0  0  0  0  0  0  0  0  0  0
    1.9804   -8.0968    1.8987 H   0  0  0  0  0  0  0  0  0  0  0  0
    2.3760   -5.9594    4.1084 H   0  0  0  0  0  0  0  0  0  0  0  0
    2.8943   -7.6261    4.1261 H   0  0  0  0  0  0  0  0  0  0  0  0
    4.3176   -7.2621    2.2880 H   0  0  0  0  0  0  0  0  0  0  0  0
    5.5782   -6.7674    4.3802 H   0  0  0  0  0  0  0  0  0  0  0  0
    4.6936   -4.6791    5.1303 H   0  0  0  0  0  0  0  0  0  0  0  0
    6.3621   -4.4210    4.7613 H   0  0  0  0  0  0  0  0  0  0  0  0
    5.7631   -1.6935    4.4119 H   0  0  0  0  0  0  0  0  0  0  0  0
    4.7077   -0.1015    2.8138 H   0  0  0  0  0  0  0  0  0  0  0  0
    2.3306   -1.0438    0.2989 H   0  0  0  0  0  0  0  0  0  0  0  0
    4.7901   -6.4977    0.3208 H   0  0  0  0  0  0  0  0  0  0  0  0
    4.8384   -4.8103   -0.1021 H   0  0  0  0  0  0  0  0  0  0  0  0
    7.1094   -5.7350    0.5889 H   0  0  0  0  0  0  0  0  0  0  0  0
    6.6265   -4.3314    1.4715 H   0  0  0  0  0  0  0  0  0  0  0  0
    6.3626   -8.0748    1.8457 H   0  0  0  0  0  0  0  0  0  0  0  0
    7.2591   -7.9848    3.3753 H   0  0  0  0  0  0  0  0  0  0  0  0
    8.0172   -7.4637    1.8701 H   0  0  0  0  0  0  0  0  0  0  0  0
    1.9721   -4.5835    2.3995 H   0  0  0  0  0  0  0  0  0  0  0  0
    7.3358   -5.6294    3.0855 H   0  0  0  0  0  0  0  0  0  0  0  0
  1  2  1  0
  1 25  1  0
  1 26  1  0
  1 27  1  0
  2  3  2  3
  2 28  1  0
  3  4  1  0
  3 29  1  0
  4 23  1  0
  4  5  1  0
  4 30  1  6
  5  6  1  0
  5 31  1  0
  5 32  1  0
  6 16  1  0
  6  7  1  0
  6 33  1  6
  7 19  1  0
  7  8  1  0
  7 34  1  1
  8  9  1  0
  8 35  1  0
  8 36  1  0
  9 15  2  0
  9 10  1  0
 10 11  2  0
 10 37  1  0
 11 12  1  0
 11 38  1  0
 12 13  1  0
 12 14  2  0
 13 39  1  0
 14 22  1  0
 14 15  1  0
 15 16  1  0
 16 17  1  6
 16 21  1  0
 17 18  1  0
 17 40  1  0
 17 41  1  0
 18 19  1  0
 18 42  1  0
 18 43  1  0
 19 20  1  0
 19 48  1  1
 20 44  1  0
 20 45  1  0
 20 46  1  0
 21 22  1  0
 21 23  1  0
 21 47  1  1
 23 24  2  0
M  CHG  1  19   1
M  END
>  <i_m_ct_stereo_status>  (52) 
1

>  <s_m_source_file>  (52) 
/var/tmp/pbs.5076255.sched01/tmpgqtxr8g4/0xtbcsf6k.sdf

>  <i_m_source_file_index>  (52) 
18

>  <i_lp_mmshare_version>  (52) 
48012

>  <i_f3d_flags>  (52) 
0

>  <s_epik_input>  (52) 
W0NIM10vW0NIXT1bQ0hdL1tDQEhdKFtDSDJdMSlDKD1PKVtDQEBIXTJPYyhjKFtPSF0pW2NIXVtjSF0zKWM0YzNbQ0gyXVtDQEBIXShbQ0BASF0xW0NAQF0yNDUpTihbQ0gzXSlbQ0gyXVtDSDJdNQ==

>  <s_epik_cmdline>  (52) 
J2VwaWtfcHl0aG9uJywgJy1waHQnLCAnMi4wJywgJy1waCcsICc3LjAnLCAnLXRuJywgJzgnLCAnLW1hJywgJzIwMCcsICctaW1hZScsICc8aW5maWxlLm1hZT4nLCAnLW9tYWUnLCAnPG91dGZpbGUubWFlPic=

>  <r_lp_tautomer_probability>  (52) 
1

>  <r_epik_Ionization_Penalty>  (52) 
0.0736805

>  <r_epik_Ionization_Penalty_Charging>  (52) 
0.0450128

>  <r_epik_Ionization_Penalty_Neutral>  (52) 
0.0286676

>  <r_epik_State_Penalty>  (52) 
0.0602808

>  <r_epik_Charging_Adjusted_Penalty>  (52) 
0.105294

>  <i_epik_Tot_Q>  (52) 
1

>  <i_epik_Tot_abs_Q>  (52) 
1

>  <s_lp_Force_Field>  (52) 
OPLS3e

>  <r_lp_Energy>  (52) 
86.2781

>  <b_lp_Chiralities_Consistent>  (52) 
1

>  <s_lp_Variant>  (52) 
13:0-1

>  <s_i_glide_gridfile>  (52) 
pfpi4k_grid

>  <i_i_glide_lignum>  (52) 
18

>  <i_i_glide_rotatable_bonds>  (52) 
2

>  <r_i_docking_score>  (52) 
-3.68333

>  <r_i_glide_ligand_efficiency>  (52) 
-0.153472

>  <r_i_glide_ligand_efficiency_sa>  (52) 
-0.44269

>  <r_i_glide_ligand_efficiency_ln>  (52) 
-0.88159

>  <r_i_glide_gscore>  (52) 
-3.68333

>  <r_i_glide_lipo>  (52) 
-0.369709

>  <r_i_glide_hbond>  (52) 
-0.371612

>  <r_i_glide_metal>  (52) 
-0

>  <r_i_glide_rewards>  (52) 
-1.18357

>  <r_i_glide_evdw>  (52) 
-17.3664

>  <r_i_glide_ecoul>  (52) 
-6.69954

>  <r_i_glide_erotb>  (52) 
0.176026

>  <r_i_glide_esite>  (52) 
-0.0612135

>  <r_i_glide_emodel>  (52) 
-33.0887

>  <r_i_glide_energy>  (52) 
-24.066

>  <r_i_glide_einternal>  (52) 
0.290916

>  <r_i_glide_intrahb_reward>  (52) 
-0

>  <i_i_glide_confnum>  (52) 
4

>  <i_i_glide_posenum>  (52) 
5

>  <r_i_glide_eff_state_penalty>  (52) 
0

>  <ligand_id>  (52) 
13

>  <original_smiles>  (52) 
CC=CC1CC2C3Cc4ccc(O)c5c4C2(CCN3C)C(O5)C1=O

>  <smiles>  (52) 
[H]Oc1c([H])c([H])c2c3c1OC1([H])C(=O)C([H])(C([H])=C([H])C([H])([H])[H])C([H])([H])C4([H])C31C([H])([H])C([H])([H])[N+]([H])(C([H])([H])[H])C4([H])C2([H])[H]

$$$$
13:0:1
     RDKit          3D

 48 52  0  0  1  0  0  0  0  0999 V2000
   -1.3290   -4.0899    6.9328 C   0  0  0  0  0  0  0  0  0  0  0  0
   -0.9851   -5.3831    6.2252 C   0  0  0  0  0  0  0  0  0  0  0  0
    0.2642   -5.8260    6.0022 C   0  0  0  0  0  0  0  0  0  0  0  0
    0.6068   -7.1371    5.3158 C   0  0  2  0  0  0  0  0  0  0  0  0
    1.9817   -7.7232    5.8561 C   0  0  0  0  0  0  0  0  0  0  0  0
    2.4645   -8.8987    4.9686 C   0  0  2  0  0  0  0  0  0  0  0  0
    3.6980   -9.8014    5.2213 C   0  0  2  0  0  0  0  0  0  0  0  0
    5.0539   -9.1138    4.8988 C   0  0  0  0  0  0  0  0  0  0  0  0
    5.1514   -8.4383    3.5301 C   0  0  0  0  0  0  0  0  0  0  0  0
    6.2763   -8.0358    2.7878 C   0  0  0  0  0  0  0  0  0  0  0  0
    6.0871   -7.2854    1.5943 C   0  0  0  0  0  0  0  0  0  0  0  0
    4.7956   -6.8580    1.1753 C   0  0  0  0  0  0  0  0  0  0  0  0
    4.6416   -6.0680    0.0785 O   0  0  0  0  0  0  0  0  0  0  0  0
    3.6599   -7.2265    1.9220 C   0  0  0  0  0  0  0  0  0  0  0  0
    3.9136   -8.0643    3.0014 C   0  0  0  0  0  0  0  0  0  0  0  0
    2.5801   -8.4769    3.5095 C   0  0  1  0  0  0  0  0  0  0  0  0
    2.1371   -9.7333    2.7193 C   0  0  0  0  0  0  0  0  0  0  0  0
    3.1740  -10.8655    2.9538 C   0  0  0  0  0  0  0  0  0  0  0  0
    3.5504  -11.0561    4.3969 N   0  0  2  0  0  0  0  0  0  0  0  0
    2.7099  -12.0860    5.0494 C   0  0  0  0  0  0  0  0  0  0  0  0
    1.9576   -7.1322    3.1905 C   0  0  1  0  0  0  0  0  0  0  0  0
    2.3345   -6.8307    1.8444 O   0  0  0  0  0  0  0  0  0  0  0  0
    0.5822   -6.9510    3.7737 C   0  0  0  0  0  0  0  0  0  0  0  0
   -0.4220   -6.6672    3.1166 O   0  0  0  0  0  0  0  0  0  0  0  0
   -1.9251   -4.2971    7.8229 H   0  0  0  0  0  0  0  0  0  0  0  0
   -1.9105   -3.4414    6.2795 H   0  0  0  0  0  0  0  0  0  0  0  0
   -0.4304   -3.5486    7.2290 H   0  0  0  0  0  0  0  0  0  0  0  0
   -1.8250   -5.9649    5.8800 H   0  0  0  0  0  0  0  0  0  0  0  0
    1.0980   -5.2224    6.3286 H   0  0  0  0  0  0  0  0  0  0  0  0
   -0.1876   -7.8526    5.5364 H   0  0  0  0  0  0  0  0  0  0  0  0
    2.7525   -6.9494    5.8922 H   0  0  0  0  0  0  0  0  0  0  0  0
    1.8501   -8.0648    6.8841 H   0  0  0  0  0  0  0  0  0  0  0  0
    1.6028   -9.5576    5.0869 H   0  0  0  0  0  0  0  0  0  0  0  0
    3.7256  -10.0932    6.2701 H   0  0  0  0  0  0  0  0  0  0  0  0
    5.2258   -8.3423    5.6483 H   0  0  0  0  0  0  0  0  0  0  0  0
    5.8776   -9.8198    5.0047 H   0  0  0  0  0  0  0  0  0  0  0  0
    7.2749   -8.2863    3.1292 H   0  0  0  0  0  0  0  0  0  0  0  0
    6.9557   -7.0065    1.0237 H   0  0  0  0  0  0  0  0  0  0  0  0
    5.4352   -5.9537   -0.4205 H   0  0  0  0  0  0  0  0  0  0  0  0
    1.1442  -10.0658    3.0347 H   0  0  0  0  0  0  0  0  0  0  0  0
    2.0538   -9.5293    1.6500 H   0  0  0  0  0  0  0  0  0  0  0  0
    2.8106  -11.8000    2.5257 H   0  0  0  0  0  0  0  0  0  0  0  0
    4.0793  -10.6442    2.3871 H   0  0  0  0  0  0  0  0  0  0  0  0
    1.6565  -11.8049    5.0416 H   0  0  0  0  0  0  0  0  0  0  0  0
    3.0256  -12.2556    6.0794 H   0  0  0  0  0  0  0  0  0  0  0  0
    2.8165  -13.0321    4.5223 H   0  0  0  0  0  0  0  0  0  0  0  0
    2.4926   -6.3671    3.7580 H   0  0  0  0  0  0  0  0  0  0  0  0
    4.4664  -11.4788    4.3728 H   0  0  0  0  0  0  0  0  0  0  0  0
  1  2  1  0
  1 25  1  0
  1 26  1  0
  1 27  1  0
  2  3  2  3
  2 28  1  0
  3  4  1  0
  3 29  1  0
  4 23  1  0
  4  5  1  0
  4 30  1  6
  5  6  1  0
  5 31  1  0
  5 32  1  0
  6 16  1  0
  6  7  1  0
  6 33  1  6
  7 19  1  0
  7  8  1  0
  7 34  1  1
  8  9  1  0
  8 35  1  0
  8 36  1  0
  9 15  2  0
  9 10  1  0
 10 11  2  0
 10 37  1  0
 11 12  1  0
 11 38  1  0
 12 13  1  0
 12 14  2  0
 13 39  1  0
 14 22  1  0
 14 15  1  0
 15 16  1  0
 16 17  1  6
 16 21  1  0
 17 18  1  0
 17 40  1  0
 17 41  1  0
 18 19  1  0
 18 42  1  0
 18 43  1  0
 19 20  1  0
 19 48  1  6
 20 44  1  0
 20 45  1  0
 20 46  1  0
 21 22  1  0
 21 23  1  0
 21 47  1  1
 23 24  2  0
M  CHG  1  19   1
M  END
>  <i_m_ct_stereo_status>  (53) 
1

>  <s_m_source_file>  (53) 
/var/tmp/pbs.5076255.sched01/tmpgqtxr8g4/0xtbcsf6k.sdf

>  <i_m_source_file_index>  (53) 
18

>  <i_lp_mmshare_version>  (53) 
48012

>  <i_f3d_flags>  (53) 
0

>  <s_epik_input>  (53) 
W0NIM10vW0NIXT1bQ0hdL1tDQEhdKFtDSDJdMSlDKD1PKVtDQEBIXTJPYyhjKFtPSF0pW2NIXVtjSF0zKWM0YzNbQ0gyXVtDQEBIXShbQ0BASF0xW0NAQF0yNDUpTihbQ0gzXSlbQ0gyXVtDSDJdNQ==

>  <s_epik_cmdline>  (53) 
J2VwaWtfcHl0aG9uJywgJy1waHQnLCAnMi4wJywgJy1waCcsICc3LjAnLCAnLXRuJywgJzgnLCAnLW1hJywgJzIwMCcsICctaW1hZScsICc8aW5maWxlLm1hZT4nLCAnLW9tYWUnLCAnPG91dGZpbGUubWFlPic=

>  <r_lp_tautomer_probability>  (53) 
1

>  <r_epik_Ionization_Penalty>  (53) 
0.0736805

>  <r_epik_Ionization_Penalty_Charging>  (53) 
0.0450128

>  <r_epik_Ionization_Penalty_Neutral>  (53) 
0.0286676

>  <r_epik_State_Penalty>  (53) 
0.0602808

>  <r_epik_Charging_Adjusted_Penalty>  (53) 
0.105294

>  <i_epik_Tot_Q>  (53) 
1

>  <i_epik_Tot_abs_Q>  (53) 
1

>  <s_lp_Force_Field>  (53) 
OPLS3e

>  <r_lp_Energy>  (53) 
86.2781

>  <b_lp_Chiralities_Consistent>  (53) 
1

>  <s_lp_Variant>  (53) 
13:0-1

>  <s_i_glide_gridfile>  (53) 
pfpi4k_grid

>  <i_i_glide_lignum>  (53) 
18

>  <i_i_glide_rotatable_bonds>  (53) 
2

>  <r_i_docking_score>  (53) 
-3.25759

>  <r_i_glide_ligand_efficiency>  (53) 
-0.135733

>  <r_i_glide_ligand_efficiency_sa>  (53) 
-0.391521

>  <r_i_glide_ligand_efficiency_ln>  (53) 
-0.77969

>  <r_i_glide_gscore>  (53) 
-3.25759

>  <r_i_glide_lipo>  (53) 
-0.365346

>  <r_i_glide_hbond>  (53) 
-0.16

>  <r_i_glide_metal>  (53) 
-0

>  <r_i_glide_rewards>  (53) 
-1.18357

>  <r_i_glide_evdw>  (53) 
-16.8821

>  <r_i_glide_ecoul>  (53) 
-5.58339

>  <r_i_glide_erotb>  (53) 
0.176026

>  <r_i_glide_esite>  (53) 
-0.0430786

>  <r_i_glide_emodel>  (53) 
-30.3512

>  <r_i_glide_energy>  (53) 
-22.4655

>  <r_i_glide_einternal>  (53) 
0.504297

>  <r_i_glide_intrahb_reward>  (53) 
-0

>  <i_i_glide_confnum>  (53) 
4

>  <i_i_glide_posenum>  (53) 
6

>  <r_i_glide_eff_state_penalty>  (53) 
0

>  <ligand_id>  (53) 
13

>  <original_smiles>  (53) 
CC=CC1CC2C3Cc4ccc(O)c5c4C2(CCN3C)C(O5)C1=O

>  <smiles>  (53) 
[H]Oc1c([H])c([H])c2c3c1OC1([H])C(=O)C([H])(C([H])=C([H])C([H])([H])[H])C([H])([H])C4([H])C31C([H])([H])C([H])([H])[N+]([H])(C([H])([H])[H])C4([H])C2([H])[H]

$$$$
13:0:2
     RDKit          3D

 48 52  0  0  1  0  0  0  0  0999 V2000
    1.3910   -2.7878    4.3647 C   0  0  0  0  0  0  0  0  0  0  0  0
    1.5136   -4.2404    3.9669 C   0  0  0  0  0  0  0  0  0  0  0  0
    0.5369   -5.1578    4.0905 C   0  0  0  0  0  0  0  0  0  0  0  0
    0.6399   -6.6247    3.7037 C   0  0  2  0  0  0  0  0  0  0  0  0
    1.2292   -7.4914    4.8942 C   0  0  0  0  0  0  0  0  0  0  0  0
    1.5826   -8.9210    4.4103 C   0  0  2  0  0  0  0  0  0  0  0  0
    2.0816  -10.1007    5.2861 C   0  0  2  0  0  0  0  0  0  0  0  0
    3.5686   -9.9650    5.7165 C   0  0  0  0  0  0  0  0  0  0  0  0
    4.5640   -9.6606    4.5943 C   0  0  0  0  0  0  0  0  0  0  0  0
    5.9635   -9.8096    4.5471 C   0  0  0  0  0  0  0  0  0  0  0  0
    6.6801   -9.3158    3.4221 C   0  0  0  0  0  0  0  0  0  0  0  0
    6.0324   -8.5975    2.3744 C   0  0  0  0  0  0  0  0  0  0  0  0
    6.7618   -8.0665    1.3530 O   0  0  0  0  0  0  0  0  0  0  0  0
    4.6362   -8.4115    2.4186 C   0  0  0  0  0  0  0  0  0  0  0  0
    3.9915   -9.0318    3.4858 C   0  0  0  0  0  0  0  0  0  0  0  0
    2.5364   -8.8796    3.2227 C   0  0  1  0  0  0  0  0  0  0  0  0
    2.0855  -10.0672    2.3399 C   0  0  0  0  0  0  0  0  0  0  0  0
    2.3583  -11.3940    3.1055 C   0  0  0  0  0  0  0  0  0  0  0  0
    1.8823  -11.3869    4.5289 N   0  0  2  0  0  0  0  0  0  0  0  0
    0.5057  -11.9153    4.6407 C   0  0  0  0  0  0  0  0  0  0  0  0
    2.7099   -7.5139    2.5914 C   0  0  1  0  0  0  0  0  0  0  0  0
    3.7766   -7.6420    1.6468 O   0  0  0  0  0  0  0  0  0  0  0  0
    1.4073   -6.7855    2.3605 C   0  0  0  0  0  0  0  0  0  0  0  0
    1.0218   -6.3240    1.2854 O   0  0  0  0  0  0  0  0  0  0  0  0
    1.5487   -2.1494    3.4941 H   0  0  0  0  0  0  0  0  0  0  0  0
    2.1538   -2.5486    5.1048 H   0  0  0  0  0  0  0  0  0  0  0  0
    0.4128   -2.5661    4.7905 H   0  0  0  0  0  0  0  0  0  0  0  0
    2.4710   -4.5195    3.5521 H   0  0  0  0  0  0  0  0  0  0  0  0
   -0.4110   -4.8602    4.5101 H   0  0  0  0  0  0  0  0  0  0  0  0
   -0.3704   -6.9761    3.4890 H   0  0  0  0  0  0  0  0  0  0  0  0
    2.1138   -7.0133    5.3219 H   0  0  0  0  0  0  0  0  0  0  0  0
    0.4946   -7.5428    5.6992 H   0  0  0  0  0  0  0  0  0  0  0  0
    0.5915   -9.2246    4.0654 H   0  0  0  0  0  0  0  0  0  0  0  0
    1.4862  -10.1569    6.1990 H   0  0  0  0  0  0  0  0  0  0  0  0
    3.6375   -9.1498    6.4360 H   0  0  0  0  0  0  0  0  0  0  0  0
    3.8900  -10.8605    6.2499 H   0  0  0  0  0  0  0  0  0  0  0  0
    6.4821  -10.2891    5.3674 H   0  0  0  0  0  0  0  0  0  0  0  0
    7.7462   -9.4585    3.3903 H   0  0  0  0  0  0  0  0  0  0  0  0
    7.6911   -8.2133    1.4417 H   0  0  0  0  0  0  0  0  0  0  0  0
    1.0234   -9.9842    2.0872 H   0  0  0  0  0  0  0  0  0  0  0  0
    2.6144  -10.0741    1.3840 H   0  0  0  0  0  0  0  0  0  0  0  0
    1.9177  -12.2331    2.5653 H   0  0  0  0  0  0  0  0  0  0  0  0
    3.4298  -11.5994    3.0858 H   0  0  0  0  0  0  0  0  0  0  0  0
   -0.1863  -11.3025    4.0753 H   0  0  0  0  0  0  0  0  0  0  0  0
    0.1782  -11.9375    5.6806 H   0  0  0  0  0  0  0  0  0  0  0  0
    0.4415  -12.9324    4.2534 H   0  0  0  0  0  0  0  0  0  0  0  0
    3.1487   -6.8551    3.3455 H   0  0  0  0  0  0  0  0  0  0  0  0
    2.4408  -12.0746    5.0159 H   0  0  0  0  0  0  0  0  0  0  0  0
  1  2  1  0
  1 25  1  0
  1 26  1  0
  1 27  1  0
  2  3  2  3
  2 28  1  0
  3  4  1  0
  3 29  1  0
  4 23  1  0
  4  5  1  0
  4 30  1  6
  5  6  1  0
  5 31  1  0
  5 32  1  0
  6 16  1  0
  6  7  1  0
  6 33  1  6
  7 19  1  0
  7  8  1  0
  7 34  1  1
  8  9  1  0
  8 35  1  0
  8 36  1  0
  9 15  2  0
  9 10  1  0
 10 11  2  0
 10 37  1  0
 11 12  1  0
 11 38  1  0
 12 13  1  0
 12 14  2  0
 13 39  1  0
 14 22  1  0
 14 15  1  0
 15 16  1  0
 16 17  1  6
 16 21  1  0
 17 18  1  0
 17 40  1  0
 17 41  1  0
 18 19  1  0
 18 42  1  0
 18 43  1  0
 19 20  1  0
 19 48  1  1
 20 44  1  0
 20 45  1  0
 20 46  1  0
 21 22  1  0
 21 23  1  0
 21 47  1  1
 23 24  2  0
M  CHG  1  19   1
M  END
>  <i_m_ct_stereo_status>  (54) 
1

>  <s_m_source_file>  (54) 
/var/tmp/pbs.5076255.sched01/tmpgqtxr8g4/0xtbcsf6k.sdf

>  <i_m_source_file_index>  (54) 
18

>  <i_lp_mmshare_version>  (54) 
48012

>  <i_f3d_flags>  (54) 
0

>  <s_epik_input>  (54) 
W0NIM10vW0NIXT1bQ0hdL1tDQEhdKFtDSDJdMSlDKD1PKVtDQEBIXTJPYyhjKFtPSF0pW2NIXVtjSF0zKWM0YzNbQ0gyXVtDQEBIXShbQ0BASF0xW0NAQF0yNDUpTihbQ0gzXSlbQ0gyXVtDSDJdNQ==

>  <s_epik_cmdline>  (54) 
J2VwaWtfcHl0aG9uJywgJy1waHQnLCAnMi4wJywgJy1waCcsICc3LjAnLCAnLXRuJywgJzgnLCAnLW1hJywgJzIwMCcsICctaW1hZScsICc8aW5maWxlLm1hZT4nLCAnLW9tYWUnLCAnPG91dGZpbGUubWFlPic=

>  <r_lp_tautomer_probability>  (54) 
1

>  <r_epik_Ionization_Penalty>  (54) 
0.0736805

>  <r_epik_Ionization_Penalty_Charging>  (54) 
0.0450128

>  <r_epik_Ionization_Penalty_Neutral>  (54) 
0.0286676

>  <r_epik_State_Penalty>  (54) 
0.0602808

>  <r_epik_Charging_Adjusted_Penalty>  (54) 
0.105294

>  <i_epik_Tot_Q>  (54) 
1

>  <i_epik_Tot_abs_Q>  (54) 
1

>  <s_lp_Force_Field>  (54) 
OPLS3e

>  <r_lp_Energy>  (54) 
86.2781

>  <b_lp_Chiralities_Consistent>  (54) 
1

>  <s_lp_Variant>  (54) 
13:0-1

>  <s_i_glide_gridfile>  (54) 
pfpi4k_grid

>  <i_i_glide_lignum>  (54) 
18

>  <i_i_glide_rotatable_bonds>  (54) 
2

>  <r_i_docking_score>  (54) 
-3.218

>  <r_i_glide_ligand_efficiency>  (54) 
-0.134083

>  <r_i_glide_ligand_efficiency_sa>  (54) 
-0.386764

>  <r_i_glide_ligand_efficiency_ln>  (54) 
-0.770216

>  <r_i_glide_gscore>  (54) 
-3.218

>  <r_i_glide_lipo>  (54) 
-0.150147

>  <r_i_glide_hbond>  (54) 
-0.141362

>  <r_i_glide_metal>  (54) 
-0

>  <r_i_glide_rewards>  (54) 
-1.18357

>  <r_i_glide_evdw>  (54) 
-17.4548

>  <r_i_glide_ecoul>  (54) 
-6.56218

>  <r_i_glide_erotb>  (54) 
0.176026

>  <r_i_glide_esite>  (54) 
-0.0618805

>  <r_i_glide_emodel>  (54) 
-30.6705

>  <r_i_glide_energy>  (54) 
-24.017

>  <r_i_glide_einternal>  (54) 
2.78573

>  <r_i_glide_intrahb_reward>  (54) 
-0

>  <i_i_glide_confnum>  (54) 
4

>  <i_i_glide_posenum>  (54) 
35

>  <r_i_glide_eff_state_penalty>  (54) 
0

>  <ligand_id>  (54) 
13

>  <original_smiles>  (54) 
CC=CC1CC2C3Cc4ccc(O)c5c4C2(CCN3C)C(O5)C1=O

>  <smiles>  (54) 
[H]Oc1c([H])c([H])c2c3c1OC1([H])C(=O)C([H])(C([H])=C([H])C([H])([H])[H])C([H])([H])C4([H])C31C([H])([H])C([H])([H])[N+]([H])(C([H])([H])[H])C4([H])C2([H])[H]

$$$$
13:1:0
     RDKit          3D

 48 52  0  0  1  0  0  0  0  0999 V2000
    1.5145   -4.1262    4.3983 C   0  0  0  0  0  0  0  0  0  0  0  0
    0.1936   -4.5609    5.0498 C   0  0  0  0  0  0  0  0  0  0  0  0
   -0.3528   -5.8027    5.1243 C   0  0  0  0  0  0  0  0  0  0  0  0
    0.1874   -7.1358    4.5791 C   0  0  2  0  0  0  0  0  0  0  0  0
    1.5174   -7.5907    5.2951 C   0  0  0  0  0  0  0  0  0  0  0  0
    2.1693   -8.7873    4.5523 C   0  0  2  0  0  0  0  0  0  0  0  0
    3.4412   -9.5292    5.0067 C   0  0  2  0  0  0  0  0  0  0  0  0
    4.7594   -8.7380    4.7609 C   0  0  0  0  0  0  0  0  0  0  0  0
    4.9333   -8.1539    3.3610 C   0  0  0  0  0  0  0  0  0  0  0  0
    6.1137   -7.6831    2.7298 C   0  0  0  0  0  0  0  0  0  0  0  0
    5.9734   -7.0325    1.4730 C   0  0  0  0  0  0  0  0  0  0  0  0
    4.6889   -6.7669    0.8905 C   0  0  0  0  0  0  0  0  0  0  0  0
    4.6249   -6.0708   -0.2858 O   0  0  0  0  0  0  0  0  0  0  0  0
    3.5345   -7.2202    1.5092 C   0  0  0  0  0  0  0  0  0  0  0  0
    3.7454   -7.9706    2.6694 C   0  0  0  0  0  0  0  0  0  0  0  0
    2.4066   -8.5124    3.0688 C   0  0  1  0  0  0  0  0  0  0  0  0
    2.1632   -9.8291    2.3642 C   0  0  0  0  0  0  0  0  0  0  0  0
    3.2568  -10.8023    2.7978 C   0  0  0  0  0  0  0  0  0  0  0  0
    3.4900  -10.8446    4.2772 N   0  0  2  0  0  0  0  0  0  0  0  0
    2.6835  -11.9083    4.9149 C   0  0  0  0  0  0  0  0  0  0  0  0
    1.6579   -7.3633    2.5262 C   0  0  1  0  0  0  0  0  0  0  0  0
    2.1741   -6.9995    1.2556 O   0  0  0  0  0  0  0  0  0  0  0  0
    0.2379   -7.1370    3.0164 C   0  0  0  0  0  0  0  0  0  0  0  0
   -0.7090   -6.8617    2.3058 O   0  0  0  0  0  0  0  0  0  0  0  0
    1.3137   -3.5381    3.4926 H   0  0  0  0  0  0  0  0  0  0  0  0
    2.1685   -4.9532    4.1551 H   0  0  0  0  0  0  0  0  0  0  0  0
    2.1183   -3.5551    5.1114 H   0  0  0  0  0  0  0  0  0  0  0  0
   -0.3751   -3.7460    5.5112 H   0  0  0  0  0  0  0  0  0  0  0  0
   -1.3032   -5.9120    5.6528 H   0  0  0  0  0  0  0  0  0  0  0  0
   -0.5816   -7.8748    4.8082 H   0  0  0  0  0  0  0  0  0  0  0  0
    2.2161   -6.7630    5.3916 H   0  0  0  0  0  0  0  0  0  0  0  0
    1.2761   -7.8692    6.3225 H   0  0  0  0  0  0  0  0  0  0  0  0
    1.3509   -9.5053    4.6607 H   0  0  0  0  0  0  0  0  0  0  0  0
    3.3816   -9.7521    6.0746 H   0  0  0  0  0  0  0  0  0  0  0  0
    4.7772   -7.9215    5.4800 H   0  0  0  0  0  0  0  0  0  0  0  0
    5.6175   -9.3555    5.0161 H   0  0  0  0  0  0  0  0  0  0  0  0
    7.0882   -7.8276    3.1866 H   0  0  0  0  0  0  0  0  0  0  0  0
    6.8589   -6.7182    0.9559 H   0  0  0  0  0  0  0  0  0  0  0  0
    3.7532   -6.0561   -0.6685 H   0  0  0  0  0  0  0  0  0  0  0  0
    1.1728  -10.1965    2.6074 H   0  0  0  0  0  0  0  0  0  0  0  0
    2.1735   -9.6767    1.2925 H   0  0  0  0  0  0  0  0  0  0  0  0
    3.0112  -11.7856    2.4276 H   0  0  0  0  0  0  0  0  0  0  0  0
    4.1834  -10.5319    2.2993 H   0  0  0  0  0  0  0  0  0  0  0  0
    1.6167  -11.7309    4.7856 H   0  0  0  0  0  0  0  0  0  0  0  0
    2.9108  -11.9892    5.9766 H   0  0  0  0  0  0  0  0  0  0  0  0
    2.9211  -12.8739    4.4701 H   0  0  0  0  0  0  0  0  0  0  0  0
    2.0833   -6.5545    3.0838 H   0  0  0  0  0  0  0  0  0  0  0  0
    4.4336  -11.1783    4.3736 H   0  0  0  0  0  0  0  0  0  0  0  0
  1  2  1  0
  1 25  1  0
  1 26  1  0
  1 27  1  0
  2  3  2  3
  2 28  1  0
  3  4  1  0
  3 29  1  0
  4 23  1  0
  4  5  1  0
  4 30  1  6
  5  6  1  0
  5 31  1  0
  5 32  1  0
  6 16  1  0
  6  7  1  0
  6 33  1  6
  7 19  1  0
  7  8  1  0
  7 34  1  1
  8  9  1  0
  8 35  1  0
  8 36  1  0
  9 15  2  0
  9 10  1  0
 10 11  2  0
 10 37  1  0
 11 12  1  0
 11 38  1  0
 12 13  1  0
 12 14  2  0
 13 39  1  0
 14 22  1  0
 14 15  1  0
 15 16  1  0
 16 17  1  6
 16 21  1  0
 17 18  1  0
 17 40  1  0
 17 41  1  0
 18 19  1  0
 18 42  1  0
 18 43  1  0
 19 20  1  0
 19 48  1  6
 20 44  1  0
 20 45  1  0
 20 46  1  0
 21 22  1  0
 21 23  1  0
 21 47  1  1
 23 24  2  0
M  CHG  1  19   1
M  END
>  <i_m_ct_stereo_status>  (55) 
1

>  <s_m_source_file>  (55) 
/var/tmp/pbs.5076255.sched01/tmpgqtxr8g4/0xtbcsf6k.sdf

>  <i_m_source_file_index>  (55) 
19

>  <i_lp_mmshare_version>  (55) 
48012

>  <i_f3d_flags>  (55) 
0

>  <s_epik_input>  (55) 
W0NIM10vW0NIXT1bQ0hdL1tDQEhdKFtDSDJdMSlDKD1PKVtDQEBIXTJPYyhjKFtPSF0pW2NIXVtjSF0zKWM0YzNbQ0gyXVtDQEBIXShbQ0BASF0xW0NAQF0yNDUpTihbQ0gzXSlbQ0gyXVtDSDJdNQ==

>  <s_epik_cmdline>  (55) 
J2VwaWtfcHl0aG9uJywgJy1waHQnLCAnMi4wJywgJy1waCcsICc3LjAnLCAnLXRuJywgJzgnLCAnLW1hJywgJzIwMCcsICctaW1hZScsICc8aW5maWxlLm1hZT4nLCAnLW9tYWUnLCAnPG91dGZpbGUubWFlPic=

>  <r_lp_tautomer_probability>  (55) 
1

>  <r_epik_Ionization_Penalty>  (55) 
0.0736805

>  <r_epik_Ionization_Penalty_Charging>  (55) 
0.0450128

>  <r_epik_Ionization_Penalty_Neutral>  (55) 
0.0286676

>  <r_epik_State_Penalty>  (55) 
0.0602808

>  <r_epik_Charging_Adjusted_Penalty>  (55) 
0.105294

>  <i_epik_Tot_Q>  (55) 
1

>  <i_epik_Tot_abs_Q>  (55) 
1

>  <s_lp_Force_Field>  (55) 
OPLS3e

>  <r_lp_Energy>  (55) 
86.3152

>  <b_lp_Chiralities_Consistent>  (55) 
1

>  <s_lp_Variant>  (55) 
13:0-2

>  <s_i_glide_gridfile>  (55) 
pfpi4k_grid

>  <i_i_glide_lignum>  (55) 
19

>  <i_i_glide_rotatable_bonds>  (55) 
2

>  <r_i_docking_score>  (55) 
-3.75929

>  <r_i_glide_ligand_efficiency>  (55) 
-0.156637

>  <r_i_glide_ligand_efficiency_sa>  (55) 
-0.451819

>  <r_i_glide_ligand_efficiency_ln>  (55) 
-0.89977

>  <r_i_glide_gscore>  (55) 
-3.75929

>  <r_i_glide_lipo>  (55) 
-0.357121

>  <r_i_glide_hbond>  (55) 
-0.16

>  <r_i_glide_metal>  (55) 
-0

>  <r_i_glide_rewards>  (55) 
-1.18357

>  <r_i_glide_evdw>  (55) 
-17.6619

>  <r_i_glide_ecoul>  (55) 
-8.56901

>  <r_i_glide_erotb>  (55) 
0.176026

>  <r_i_glide_esite>  (55) 
-0.0661754

>  <r_i_glide_emodel>  (55) 
-33.3559

>  <r_i_glide_energy>  (55) 
-26.2309

>  <r_i_glide_einternal>  (55) 
2.63404

>  <r_i_glide_intrahb_reward>  (55) 
-0

>  <i_i_glide_confnum>  (55) 
1

>  <i_i_glide_posenum>  (55) 
16

>  <r_i_glide_eff_state_penalty>  (55) 
0

>  <ligand_id>  (55) 
13

>  <original_smiles>  (55) 
CC=CC1CC2C3Cc4ccc(O)c5c4C2(CCN3C)C(O5)C1=O

>  <smiles>  (55) 
[H]Oc1c([H])c([H])c2c3c1OC1([H])C(=O)C([H])(C([H])=C([H])C([H])([H])[H])C([H])([H])C4([H])C31C([H])([H])C([H])([H])[N+]([H])(C([H])([H])[H])C4([H])C2([H])[H]

$$$$
13:1:1
     RDKit          3D

 48 52  0  0  1  0  0  0  0  0999 V2000
   -0.8939   -9.3520    2.6028 C   0  0  0  0  0  0  0  0  0  0  0  0
   -0.9631   -8.0405    3.3570 C   0  0  0  0  0  0  0  0  0  0  0  0
   -0.0030   -7.1015    3.4463 C   0  0  0  0  0  0  0  0  0  0  0  0
    1.3854   -7.1407    2.8223 C   0  0  2  0  0  0  0  0  0  0  0  0
    2.4911   -6.7016    3.8745 C   0  0  0  0  0  0  0  0  0  0  0  0
    3.8481   -6.4432    3.1732 C   0  0  2  0  0  0  0  0  0  0  0  0
    5.1962   -6.1051    3.8563 C   0  0  2  0  0  0  0  0  0  0  0  0
    5.2765   -4.6444    4.3808 C   0  0  0  0  0  0  0  0  0  0  0  0
    4.8948   -3.5540    3.3824 C   0  0  0  0  0  0  0  0  0  0  0  0
    5.1535   -2.1681    3.3871 C   0  0  0  0  0  0  0  0  0  0  0  0
    4.5639   -1.3454    2.3897 C   0  0  0  0  0  0  0  0  0  0  0  0
    3.6280   -1.8622    1.4451 C   0  0  0  0  0  0  0  0  0  0  0  0
    3.0229   -1.0069    0.5718 O   0  0  0  0  0  0  0  0  0  0  0  0
    3.3192   -3.2358    1.4551 C   0  0  0  0  0  0  0  0  0  0  0  0
    4.0427   -3.9979    2.3670 C   0  0  0  0  0  0  0  0  0  0  0  0
    3.7098   -5.4140    2.0642 C   0  0  1  0  0  0  0  0  0  0  0  0
    4.6774   -5.9038    0.9627 C   0  0  0  0  0  0  0  0  0  0  0  0
    6.1287   -5.8073    1.5021 C   0  0  0  0  0  0  0  0  0  0  0  0
    6.3115   -6.3735    2.8785 N   0  0  2  0  0  0  0  0  0  0  0  0
    6.7395   -7.7877    2.8337 C   0  0  0  0  0  0  0  0  0  0  0  0
    2.2854   -5.0744    1.6984 C   0  0  1  0  0  0  0  0  0  0  0  0
    2.3651   -3.9784    0.7861 O   0  0  0  0  0  0  0  0  0  0  0  0
    1.3968   -6.2763    1.5310 C   0  0  0  0  0  0  0  0  0  0  0  0
    0.6994   -6.4717    0.5380 O   0  0  0  0  0  0  0  0  0  0  0  0
   -0.9847  -10.1887    3.2922 H   0  0  0  0  0  0  0  0  0  0  0  0
    0.0450   -9.4743    2.0709 H   0  0  0  0  0  0  0  0  0  0  0  0
   -1.7141   -9.4215    1.8865 H   0  0  0  0  0  0  0  0  0  0  0  0
   -1.8970   -7.8713    3.8730 H   0  0  0  0  0  0  0  0  0  0  0  0
   -0.2264   -6.2146    4.0216 H   0  0  0  0  0  0  0  0  0  0  0  0
    1.6038   -8.1583    2.5032 H   0  0  0  0  0  0  0  0  0  0  0  0
    2.1801   -5.8081    4.4222 H   0  0  0  0  0  0  0  0  0  0  0  0
    2.6016   -7.4891    4.6207 H   0  0  0  0  0  0  0  0  0  0  0  0
    3.9931   -7.4303    2.7274 H   0  0  0  0  0  0  0  0  0  0  0  0
    5.3391   -6.7620    4.7161 H   0  0  0  0  0  0  0  0  0  0  0  0
    4.6018   -4.5515    5.2287 H   0  0  0  0  0  0  0  0  0  0  0  0
    6.2687   -4.4363    4.7791 H   0  0  0  0  0  0  0  0  0  0  0  0
    5.8024   -1.7377    4.1426 H   0  0  0  0  0  0  0  0  0  0  0  0
    4.7983   -0.2951    2.3774 H   0  0  0  0  0  0  0  0  0  0  0  0
    2.2755   -1.3539    0.0799 H   0  0  0  0  0  0  0  0  0  0  0  0
    4.4500   -6.9328    0.6744 H   0  0  0  0  0  0  0  0  0  0  0  0
    4.5806   -5.3175    0.0494 H   0  0  0  0  0  0  0  0  0  0  0  0
    6.8141   -6.2830    0.7971 H   0  0  0  0  0  0  0  0  0  0  0  0
    6.4366   -4.7614    1.5096 H   0  0  0  0  0  0  0  0  0  0  0  0
    5.9819   -8.4082    2.3503 H   0  0  0  0  0  0  0  0  0  0  0  0
    6.9257   -8.1822    3.8341 H   0  0  0  0  0  0  0  0  0  0  0  0
    7.6635   -7.8923    2.2597 H   0  0  0  0  0  0  0  0  0  0  0  0
    1.8041   -4.6217    2.5698 H   0  0  0  0  0  0  0  0  0  0  0  0
    7.1186   -5.8887    3.2549 H   0  0  0  0  0  0  0  0  0  0  0  0
  1  2  1  0
  1 25  1  0
  1 26  1  0
  1 27  1  0
  2  3  2  3
  2 28  1  0
  3  4  1  0
  3 29  1  0
  4 23  1  0
  4  5  1  0
  4 30  1  6
  5  6  1  0
  5 31  1  0
  5 32  1  0
  6 16  1  0
  6  7  1  0
  6 33  1  6
  7 19  1  0
  7  8  1  0
  7 34  1  1
  8  9  1  0
  8 35  1  0
  8 36  1  0
  9 15  2  0
  9 10  1  0
 10 11  2  0
 10 37  1  0
 11 12  1  0
 11 38  1  0
 12 13  1  0
 12 14  2  0
 13 39  1  0
 14 22  1  0
 14 15  1  0
 15 16  1  0
 16 17  1  6
 16 21  1  0
 17 18  1  0
 17 40  1  0
 17 41  1  0
 18 19  1  0
 18 42  1  0
 18 43  1  0
 19 20  1  0
 19 48  1  1
 20 44  1  0
 20 45  1  0
 20 46  1  0
 21 22  1  0
 21 23  1  0
 21 47  1  1
 23 24  2  0
M  CHG  1  19   1
M  END
>  <i_m_ct_stereo_status>  (56) 
1

>  <s_m_source_file>  (56) 
/var/tmp/pbs.5076255.sched01/tmpgqtxr8g4/0xtbcsf6k.sdf

>  <i_m_source_file_index>  (56) 
19

>  <i_lp_mmshare_version>  (56) 
48012

>  <i_f3d_flags>  (56) 
0

>  <s_epik_input>  (56) 
W0NIM10vW0NIXT1bQ0hdL1tDQEhdKFtDSDJdMSlDKD1PKVtDQEBIXTJPYyhjKFtPSF0pW2NIXVtjSF0zKWM0YzNbQ0gyXVtDQEBIXShbQ0BASF0xW0NAQF0yNDUpTihbQ0gzXSlbQ0gyXVtDSDJdNQ==

>  <s_epik_cmdline>  (56) 
J2VwaWtfcHl0aG9uJywgJy1waHQnLCAnMi4wJywgJy1waCcsICc3LjAnLCAnLXRuJywgJzgnLCAnLW1hJywgJzIwMCcsICctaW1hZScsICc8aW5maWxlLm1hZT4nLCAnLW9tYWUnLCAnPG91dGZpbGUubWFlPic=

>  <r_lp_tautomer_probability>  (56) 
1

>  <r_epik_Ionization_Penalty>  (56) 
0.0736805

>  <r_epik_Ionization_Penalty_Charging>  (56) 
0.0450128

>  <r_epik_Ionization_Penalty_Neutral>  (56) 
0.0286676

>  <r_epik_State_Penalty>  (56) 
0.0602808

>  <r_epik_Charging_Adjusted_Penalty>  (56) 
0.105294

>  <i_epik_Tot_Q>  (56) 
1

>  <i_epik_Tot_abs_Q>  (56) 
1

>  <s_lp_Force_Field>  (56) 
OPLS3e

>  <r_lp_Energy>  (56) 
86.3152

>  <b_lp_Chiralities_Consistent>  (56) 
1

>  <s_lp_Variant>  (56) 
13:0-2

>  <s_i_glide_gridfile>  (56) 
pfpi4k_grid

>  <i_i_glide_lignum>  (56) 
19

>  <i_i_glide_rotatable_bonds>  (56) 
2

>  <r_i_docking_score>  (56) 
-3.56381

>  <r_i_glide_ligand_efficiency>  (56) 
-0.148492

>  <r_i_glide_ligand_efficiency_sa>  (56) 
-0.428325

>  <r_i_glide_ligand_efficiency_ln>  (56) 
-0.852982

>  <r_i_glide_gscore>  (56) 
-3.56381

>  <r_i_glide_lipo>  (56) 
-0.495157

>  <r_i_glide_hbond>  (56) 
-0.217519

>  <r_i_glide_metal>  (56) 
-0

>  <r_i_glide_rewards>  (56) 
-1.18357

>  <r_i_glide_evdw>  (56) 
-16.8896

>  <r_i_glide_ecoul>  (56) 
-6.22956

>  <r_i_glide_erotb>  (56) 
0.176026

>  <r_i_glide_esite>  (56) 
-0.064668

>  <r_i_glide_emodel>  (56) 
-31.6053

>  <r_i_glide_energy>  (56) 
-23.1192

>  <r_i_glide_einternal>  (56) 
0.121104

>  <r_i_glide_intrahb_reward>  (56) 
-0

>  <i_i_glide_confnum>  (56) 
3

>  <i_i_glide_posenum>  (56) 
4

>  <r_i_glide_eff_state_penalty>  (56) 
0

>  <ligand_id>  (56) 
13

>  <original_smiles>  (56) 
CC=CC1CC2C3Cc4ccc(O)c5c4C2(CCN3C)C(O5)C1=O

>  <smiles>  (56) 
[H]Oc1c([H])c([H])c2c3c1OC1([H])C(=O)C([H])(C([H])=C([H])C([H])([H])[H])C([H])([H])C4([H])C31C([H])([H])C([H])([H])[N+]([H])(C([H])([H])[H])C4([H])C2([H])[H]

$$$$
13:1:2
     RDKit          3D

 48 52  0  0  1  0  0  0  0  0999 V2000
   -1.7586   -8.1120    3.6335 C   0  0  0  0  0  0  0  0  0  0  0  0
   -0.8977   -6.9781    4.1464 C   0  0  0  0  0  0  0  0  0  0  0  0
    0.4234   -6.8070    3.9607 C   0  0  0  0  0  0  0  0  0  0  0  0
    1.3711   -7.7284    3.2097 C   0  0  2  0  0  0  0  0  0  0  0  0
    2.7043   -7.9668    4.0413 C   0  0  0  0  0  0  0  0  0  0  0  0
    3.7874   -8.6498    3.1660 C   0  0  2  0  0  0  0  0  0  0  0  0
    5.1791   -9.1473    3.6337 C   0  0  2  0  0  0  0  0  0  0  0  0
    6.2072   -8.0032    3.8601 C   0  0  0  0  0  0  0  0  0  0  0  0
    6.3486   -6.9953    2.7169 C   0  0  0  0  0  0  0  0  0  0  0  0
    7.3757   -6.0736    2.4299 C   0  0  0  0  0  0  0  0  0  0  0  0
    7.1914   -5.1348    1.3746 C   0  0  0  0  0  0  0  0  0  0  0  0
    5.9672   -5.0486    0.6559 C   0  0  0  0  0  0  0  0  0  0  0  0
    5.7941   -4.0951   -0.3034 O   0  0  0  0  0  0  0  0  0  0  0  0
    4.9168   -5.9400    0.9518 C   0  0  0  0  0  0  0  0  0  0  0  0
    5.2171   -6.9074    1.9048 C   0  0  0  0  0  0  0  0  0  0  0  0
    4.0613   -7.8438    1.9047 C   0  0  1  0  0  0  0  0  0  0  0  0
    4.3249   -8.9218    0.8242 C   0  0  0  0  0  0  0  0  0  0  0  0
    5.6347   -9.6835    1.1809 C   0  0  0  0  0  0  0  0  0  0  0  0
    5.7129  -10.1205    2.6146 N   0  0  2  0  0  0  0  0  0  0  0  0
    5.2068  -11.5021    2.7900 C   0  0  0  0  0  0  0  0  0  0  0  0
    3.0637   -6.7364    1.6297 C   0  0  1  0  0  0  0  0  0  0  0  0
    3.5959   -5.9796    0.5369 O   0  0  0  0  0  0  0  0  0  0  0  0
    1.6223   -7.1517    1.7881 C   0  0  0  0  0  0  0  0  0  0  0  0
    0.7520   -6.9848    0.9325 O   0  0  0  0  0  0  0  0  0  0  0  0
   -2.1820   -8.6562    4.4771 H   0  0  0  0  0  0  0  0  0  0  0  0
   -1.2084   -8.8175    3.0152 H   0  0  0  0  0  0  0  0  0  0  0  0
   -2.5839   -7.7166    3.0401 H   0  0  0  0  0  0  0  0  0  0  0  0
   -1.4269   -6.2404    4.7261 H   0  0  0  0  0  0  0  0  0  0  0  0
    0.8798   -5.9230    4.3829 H   0  0  0  0  0  0  0  0  0  0  0  0
    0.8896   -8.6946    3.0661 H   0  0  0  0  0  0  0  0  0  0  0  0
    3.0935   -7.0283    4.4452 H   0  0  0  0  0  0  0  0  0  0  0  0
    2.4798   -8.5952    4.9046 H   0  0  0  0  0  0  0  0  0  0  0  0
    3.2384   -9.5539    2.9015 H   0  0  0  0  0  0  0  0  0  0  0  0
    5.0760   -9.6784    4.5784 H   0  0  0  0  0  0  0  0  0  0  0  0
    5.8986   -7.4435    4.7425 H   0  0  0  0  0  0  0  0  0  0  0  0
    7.1905   -8.4102    4.0945 H   0  0  0  0  0  0  0  0  0  0  0  0
    8.2864   -6.0727    3.0138 H   0  0  0  0  0  0  0  0  0  0  0  0
    7.9854   -4.4475    1.1466 H   0  0  0  0  0  0  0  0  0  0  0  0
    4.9524   -4.1670   -0.7300 H   0  0  0  0  0  0  0  0  0  0  0  0
    3.4857   -9.6234    0.7568 H   0  0  0  0  0  0  0  0  0  0  0  0
    4.4182   -8.4732   -0.1672 H   0  0  0  0  0  0  0  0  0  0  0  0
    5.7808  -10.5350    0.5127 H   0  0  0  0  0  0  0  0  0  0  0  0
    6.4860   -9.0377    0.9649 H   0  0  0  0  0  0  0  0  0  0  0  0
    4.1542  -11.5690    2.5083 H   0  0  0  0  0  0  0  0  0  0  0  0
    5.3196  -11.8430    3.8210 H   0  0  0  0  0  0  0  0  0  0  0  0
    5.7623  -12.1904    2.1482 H   0  0  0  0  0  0  0  0  0  0  0  0
    3.1237   -6.0209    2.4541 H   0  0  0  0  0  0  0  0  0  0  0  0
    6.7004  -10.1933    2.8068 H   0  0  0  0  0  0  0  0  0  0  0  0
  1  2  1  0
  1 25  1  0
  1 26  1  0
  1 27  1  0
  2  3  2  3
  2 28  1  0
  3  4  1  0
  3 29  1  0
  4 23  1  0
  4  5  1  0
  4 30  1  6
  5  6  1  0
  5 31  1  0
  5 32  1  0
  6 16  1  0
  6  7  1  0
  6 33  1  6
  7 19  1  0
  7  8  1  0
  7 34  1  1
  8  9  1  0
  8 35  1  0
  8 36  1  0
  9 15  2  0
  9 10  1  0
 10 11  2  0
 10 37  1  0
 11 12  1  0
 11 38  1  0
 12 13  1  0
 12 14  2  0
 13 39  1  0
 14 22  1  0
 14 15  1  0
 15 16  1  0
 16 17  1  6
 16 21  1  0
 17 18  1  0
 17 40  1  0
 17 41  1  0
 18 19  1  0
 18 42  1  0
 18 43  1  0
 19 20  1  0
 19 48  1  1
 20 44  1  0
 20 45  1  0
 20 46  1  0
 21 22  1  0
 21 23  1  0
 21 47  1  1
 23 24  2  0
M  CHG  1  19   1
M  END
>  <i_m_ct_stereo_status>  (57) 
1

>  <s_m_source_file>  (57) 
/var/tmp/pbs.5076255.sched01/tmpgqtxr8g4/0xtbcsf6k.sdf

>  <i_m_source_file_index>  (57) 
19

>  <i_lp_mmshare_version>  (57) 
48012

>  <i_f3d_flags>  (57) 
0

>  <s_epik_input>  (57) 
W0NIM10vW0NIXT1bQ0hdL1tDQEhdKFtDSDJdMSlDKD1PKVtDQEBIXTJPYyhjKFtPSF0pW2NIXVtjSF0zKWM0YzNbQ0gyXVtDQEBIXShbQ0BASF0xW0NAQF0yNDUpTihbQ0gzXSlbQ0gyXVtDSDJdNQ==

>  <s_epik_cmdline>  (57) 
J2VwaWtfcHl0aG9uJywgJy1waHQnLCAnMi4wJywgJy1waCcsICc3LjAnLCAnLXRuJywgJzgnLCAnLW1hJywgJzIwMCcsICctaW1hZScsICc8aW5maWxlLm1hZT4nLCAnLW9tYWUnLCAnPG91dGZpbGUubWFlPic=

>  <r_lp_tautomer_probability>  (57) 
1

>  <r_epik_Ionization_Penalty>  (57) 
0.0736805

>  <r_epik_Ionization_Penalty_Charging>  (57) 
0.0450128

>  <r_epik_Ionization_Penalty_Neutral>  (57) 
0.0286676

>  <r_epik_State_Penalty>  (57) 
0.0602808

>  <r_epik_Charging_Adjusted_Penalty>  (57) 
0.105294

>  <i_epik_Tot_Q>  (57) 
1

>  <i_epik_Tot_abs_Q>  (57) 
1

>  <s_lp_Force_Field>  (57) 
OPLS3e

>  <r_lp_Energy>  (57) 
86.3152

>  <b_lp_Chiralities_Consistent>  (57) 
1

>  <s_lp_Variant>  (57) 
13:0-2

>  <s_i_glide_gridfile>  (57) 
pfpi4k_grid

>  <i_i_glide_lignum>  (57) 
19

>  <i_i_glide_rotatable_bonds>  (57) 
2

>  <r_i_docking_score>  (57) 
-3.17302

>  <r_i_glide_ligand_efficiency>  (57) 
-0.132209

>  <r_i_glide_ligand_efficiency_sa>  (57) 
-0.381357

>  <r_i_glide_ligand_efficiency_ln>  (57) 
-0.75945

>  <r_i_glide_gscore>  (57) 
-3.17302

>  <r_i_glide_lipo>  (57) 
-0.418266

>  <r_i_glide_hbond>  (57) 
0

>  <r_i_glide_metal>  (57) 
-0

>  <r_i_glide_rewards>  (57) 
-1.18357

>  <r_i_glide_evdw>  (57) 
-22.8592

>  <r_i_glide_ecoul>  (57) 
-3.5952

>  <r_i_glide_erotb>  (57) 
0.176026

>  <r_i_glide_esite>  (57) 
-0.064967

>  <r_i_glide_emodel>  (57) 
-34.1152

>  <r_i_glide_energy>  (57) 
-26.4545

>  <r_i_glide_einternal>  (57) 
0.0173149

>  <r_i_glide_intrahb_reward>  (57) 
-0

>  <i_i_glide_confnum>  (57) 
1

>  <i_i_glide_posenum>  (57) 
13

>  <r_i_glide_eff_state_penalty>  (57) 
0

>  <ligand_id>  (57) 
13

>  <original_smiles>  (57) 
CC=CC1CC2C3Cc4ccc(O)c5c4C2(CCN3C)C(O5)C1=O

>  <smiles>  (57) 
[H]Oc1c([H])c([H])c2c3c1OC1([H])C(=O)C([H])(C([H])=C([H])C([H])([H])[H])C([H])([H])C4([H])C31C([H])([H])C([H])([H])[N+]([H])(C([H])([H])[H])C4([H])C2([H])[H]

$$$$
13:2:0
     RDKit          3D

 47 51  0  0  1  0  0  0  0  0999 V2000
   -1.4566   -7.6092    4.1644 C   0  0  0  0  0  0  0  0  0  0  0  0
   -0.0727   -7.3191    3.6451 C   0  0  0  0  0  0  0  0  0  0  0  0
    0.3052   -7.3320    2.3500 C   0  0  0  0  0  0  0  0  0  0  0  0
    1.7132   -7.0312    1.8345 C   0  0  2  0  0  0  0  0  0  0  0  0
    2.7426   -6.7442    3.0137 C   0  0  0  0  0  0  0  0  0  0  0  0
    4.0737   -6.1957    2.4744 C   0  0  2  0  0  0  0  0  0  0  0  0
    5.3218   -5.9095    3.3397 C   0  0  2  0  0  0  0  0  0  0  0  0
    5.2472   -4.5989    4.1827 C   0  0  0  0  0  0  0  0  0  0  0  0
    4.7320   -3.3459    3.4695 C   0  0  0  0  0  0  0  0  0  0  0  0
    4.7914   -1.9914    3.8463 C   0  0  0  0  0  0  0  0  0  0  0  0
    4.1165   -1.0071    3.0683 C   0  0  0  0  0  0  0  0  0  0  0  0
    3.3005   -1.3645    1.9617 C   0  0  0  0  0  0  0  0  0  0  0  0
    2.5926   -0.4115    1.2790 O   0  0  0  0  0  0  0  0  0  0  0  0
    3.2020   -2.7218    1.5887 C   0  0  0  0  0  0  0  0  0  0  0  0
    3.9927   -3.6105    2.3218 C   0  0  0  0  0  0  0  0  0  0  0  0
    3.8525   -4.9331    1.6548 C   0  0  1  0  0  0  0  0  0  0  0  0
    4.9108   -5.0393    0.5457 C   0  0  0  0  0  0  0  0  0  0  0  0
    6.3149   -4.9792    1.2130 C   0  0  0  0  0  0  0  0  0  0  0  0
    6.4832   -5.8178    2.4237 N   0  0  0  0  0  0  0  0  0  0  0  0
    7.0478   -7.1216    2.1038 C   0  0  0  0  0  0  0  0  0  0  0  0
    2.4120   -4.6608    1.2917 C   0  0  1  0  0  0  0  0  0  0  0  0
    2.3754   -3.3629    0.6885 O   0  0  0  0  0  0  0  0  0  0  0  0
    1.6604   -5.8648    0.8064 C   0  0  0  0  0  0  0  0  0  0  0  0
    1.0099   -5.8667   -0.2349 O   0  0  0  0  0  0  0  0  0  0  0  0
   -1.8236   -6.7444    4.7178 H   0  0  0  0  0  0  0  0  0  0  0  0
   -1.4013   -8.4509    4.8575 H   0  0  0  0  0  0  0  0  0  0  0  0
   -2.1521   -7.8560    3.3632 H   0  0  0  0  0  0  0  0  0  0  0  0
    0.6311   -7.0933    4.4313 H   0  0  0  0  0  0  0  0  0  0  0  0
   -0.4240   -7.5720    1.5878 H   0  0  0  0  0  0  0  0  0  0  0  0
    2.0471   -7.9190    1.2890 H   0  0  0  0  0  0  0  0  0  0  0  0
    2.3550   -6.0086    3.7192 H   0  0  0  0  0  0  0  0  0  0  0  0
    2.9200   -7.6656    3.5680 H   0  0  0  0  0  0  0  0  0  0  0  0
    4.3380   -7.0164    1.8086 H   0  0  0  0  0  0  0  0  0  0  0  0
    5.4880   -6.7345    4.0308 H   0  0  0  0  0  0  0  0  0  0  0  0
    4.5818   -4.7764    5.0253 H   0  0  0  0  0  0  0  0  0  0  0  0
    6.2245   -4.3823    4.6065 H   0  0  0  0  0  0  0  0  0  0  0  0
    5.3454   -1.7006    4.7266 H   0  0  0  0  0  0  0  0  0  0  0  0
    4.1938    0.0301    3.3443 H   0  0  0  0  0  0  0  0  0  0  0  0
    2.0230   -0.7420    0.5872 H   0  0  0  0  0  0  0  0  0  0  0  0
    4.7876   -5.9665   -0.0178 H   0  0  0  0  0  0  0  0  0  0  0  0
    4.8022   -4.2356   -0.1871 H   0  0  0  0  0  0  0  0  0  0  0  0
    7.0821   -5.2148    0.4779 H   0  0  0  0  0  0  0  0  0  0  0  0
    6.5013   -3.9433    1.5047 H   0  0  0  0  0  0  0  0  0  0  0  0
    7.9950   -7.0009    1.5749 H   0  0  0  0  0  0  0  0  0  0  0  0
    6.3827   -7.7270    1.4853 H   0  0  0  0  0  0  0  0  0  0  0  0
    7.2627   -7.6707    3.0247 H   0  0  0  0  0  0  0  0  0  0  0  0
    1.8425   -4.5020    2.2120 H   0  0  0  0  0  0  0  0  0  0  0  0
  1  2  1  0
  1 25  1  0
  1 26  1  0
  1 27  1  0
  2  3  2  3
  2 28  1  0
  3  4  1  0
  3 29  1  0
  4 23  1  0
  4  5  1  0
  4 30  1  6
  5  6  1  0
  5 31  1  0
  5 32  1  0
  6 16  1  0
  6  7  1  0
  6 33  1  6
  7 19  1  0
  7  8  1  0
  7 34  1  1
  8  9  1  0
  8 35  1  0
  8 36  1  0
  9 15  2  0
  9 10  1  0
 10 11  2  0
 10 37  1  0
 11 12  1  0
 11 38  1  0
 12 13  1  0
 12 14  2  0
 13 39  1  0
 14 22  1  0
 14 15  1  0
 15 16  1  0
 16 17  1  6
 16 21  1  0
 17 18  1  0
 17 40  1  0
 17 41  1  0
 18 19  1  0
 18 42  1  0
 18 43  1  0
 19 20  1  0
 20 44  1  0
 20 45  1  0
 20 46  1  0
 21 22  1  0
 21 23  1  0
 21 47  1  1
 23 24  2  0
M  END
>  <i_m_ct_stereo_status>  (58) 
1

>  <s_m_source_file>  (58) 
/var/tmp/pbs.5076255.sched01/tmpgqtxr8g4/0xtbcsf6k.sdf

>  <i_m_source_file_index>  (58) 
20

>  <i_lp_mmshare_version>  (58) 
48012

>  <i_f3d_flags>  (58) 
0

>  <s_epik_input>  (58) 
W0NIM10vW0NIXT1bQ0hdL1tDQEhdKFtDSDJdMSlDKD1PKVtDQEBIXTJPYyhjKFtPSF0pW2NIXVtjSF0zKWM0YzNbQ0gyXVtDQEBIXShbQ0BASF0xW0NAQF0yNDUpTihbQ0gzXSlbQ0gyXVtDSDJdNQ==

>  <s_epik_cmdline>  (58) 
J2VwaWtfcHl0aG9uJywgJy1waHQnLCAnMi4wJywgJy1waCcsICc3LjAnLCAnLXRuJywgJzgnLCAnLW1hJywgJzIwMCcsICctaW1hZScsICc8aW5maWxlLm1hZT4nLCAnLW9tYWUnLCAnPG91dGZpbGUubWFlPic=

>  <r_lp_tautomer_probability>  (58) 
1

>  <r_epik_Ionization_Penalty>  (58) 
1.55359

>  <r_epik_Ionization_Penalty_Charging>  (58) 
0

>  <r_epik_Ionization_Penalty_Neutral>  (58) 
1.55359

>  <r_epik_State_Penalty>  (58) 
1.66561

>  <r_epik_Charging_Adjusted_Penalty>  (58) 
1.66561

>  <i_epik_Tot_Q>  (58) 
0

>  <i_epik_Tot_abs_Q>  (58) 
0

>  <s_lp_Force_Field>  (58) 
OPLS3e

>  <r_lp_Energy>  (58) 
83.3885

>  <b_lp_Chiralities_Consistent>  (58) 
1

>  <s_lp_Variant>  (58) 
13:0-3

>  <s_i_glide_gridfile>  (58) 
pfpi4k_grid

>  <i_i_glide_lignum>  (58) 
20

>  <i_i_glide_rotatable_bonds>  (58) 
2

>  <r_i_docking_score>  (58) 
-3.48231

>  <r_i_glide_ligand_efficiency>  (58) 
-0.145096

>  <r_i_glide_ligand_efficiency_sa>  (58) 
-0.418531

>  <r_i_glide_ligand_efficiency_ln>  (58) 
-0.833478

>  <r_i_glide_gscore>  (58) 
-3.48231

>  <r_i_glide_lipo>  (58) 
-0.305984

>  <r_i_glide_hbond>  (58) 
-0.442525

>  <r_i_glide_metal>  (58) 
-0

>  <r_i_glide_rewards>  (58) 
-1.19044

>  <r_i_glide_evdw>  (58) 
-16.7565

>  <r_i_glide_ecoul>  (58) 
-5.33885

>  <r_i_glide_erotb>  (58) 
0.176989

>  <r_i_glide_esite>  (58) 
-0.081696

>  <r_i_glide_emodel>  (58) 
-25.8572

>  <r_i_glide_energy>  (58) 
-22.0954

>  <r_i_glide_einternal>  (58) 
3.12272

>  <r_i_glide_intrahb_reward>  (58) 
-0

>  <i_i_glide_confnum>  (58) 
5

>  <i_i_glide_posenum>  (58) 
40

>  <r_i_glide_eff_state_penalty>  (58) 
0

>  <ligand_id>  (58) 
13

>  <original_smiles>  (58) 
CC=CC1CC2C3Cc4ccc(O)c5c4C2(CCN3C)C(O5)C1=O

>  <smiles>  (58) 
[H]Oc1c([H])c([H])c2c3c1OC1([H])C(=O)C([H])(C([H])=C([H])C([H])([H])[H])C([H])([H])C4([H])C([H])(N(C([H])([H])[H])C([H])([H])C([H])([H])C314)C2([H])[H]

$$$$
13:2:1
     RDKit          3D

 47 51  0  0  1  0  0  0  0  0999 V2000
    0.3236   -3.7246    5.4205 C   0  0  0  0  0  0  0  0  0  0  0  0
    1.1354   -4.7038    4.6079 C   0  0  0  0  0  0  0  0  0  0  0  0
    0.7126   -5.9221    4.2175 C   0  0  0  0  0  0  0  0  0  0  0  0
    1.5478   -6.9133    3.4199 C   0  0  2  0  0  0  0  0  0  0  0  0
    2.9392   -7.2170    4.1245 C   0  0  0  0  0  0  0  0  0  0  0  0
    3.8685   -8.0069    3.1759 C   0  0  2  0  0  0  0  0  0  0  0  0
    5.2533   -8.5754    3.5647 C   0  0  2  0  0  0  0  0  0  0  0  0
    6.3917   -7.5287    3.5903 C   0  0  0  0  0  0  0  0  0  0  0  0
    6.4804   -6.5399    2.4386 C   0  0  0  0  0  0  0  0  0  0  0  0
    7.5130   -5.6663    2.0447 C   0  0  0  0  0  0  0  0  0  0  0  0
    7.2920   -4.7322    0.9865 C   0  0  0  0  0  0  0  0  0  0  0  0
    6.0143   -4.6001    0.3677 C   0  0  0  0  0  0  0  0  0  0  0  0
    5.8033   -3.6590   -0.5951 O   0  0  0  0  0  0  0  0  0  0  0  0
    4.9314   -5.4413    0.7652 C   0  0  0  0  0  0  0  0  0  0  0  0
    5.2881   -6.4050    1.7160 C   0  0  0  0  0  0  0  0  0  0  0  0
    4.0826   -7.2669    1.8706 C   0  0  1  0  0  0  0  0  0  0  0  0
    4.1722   -8.4060    0.8276 C   0  0  0  0  0  0  0  0  0  0  0  0
    5.4289   -9.2654    1.1433 C   0  0  0  0  0  0  0  0  0  0  0  0
    5.6155   -9.6137    2.5683 N   0  0  0  0  0  0  0  0  0  0  0  0
    5.0474  -10.9204    2.8751 C   0  0  0  0  0  0  0  0  0  0  0  0
    3.1210   -6.1112    1.6315 C   0  0  1  0  0  0  0  0  0  0  0  0
    3.5976   -5.4104    0.4741 O   0  0  0  0  0  0  0  0  0  0  0  0
    1.6863   -6.4250    1.9516 C   0  0  0  0  0  0  0  0  0  0  0  0
    0.7355   -6.2775    1.1705 O   0  0  0  0  0  0  0  0  0  0  0  0
    0.1791   -2.8038    4.8555 H   0  0  0  0  0  0  0  0  0  0  0  0
    0.8532   -3.4827    6.3419 H   0  0  0  0  0  0  0  0  0  0  0  0
   -0.6482   -4.1360    5.6845 H   0  0  0  0  0  0  0  0  0  0  0  0
    2.1246   -4.3685    4.3303 H   0  0  0  0  0  0  0  0  0  0  0  0
   -0.2780   -6.2576    4.4858 H   0  0  0  0  0  0  0  0  0  0  0  0
    0.9810   -7.8466    3.3748 H   0  0  0  0  0  0  0  0  0  0  0  0
    3.4396   -6.2999    4.4419 H   0  0  0  0  0  0  0  0  0  0  0  0
    2.7596   -7.7943    5.0317 H   0  0  0  0  0  0  0  0  0  0  0  0
    3.2314   -8.8727    3.0023 H   0  0  0  0  0  0  0  0  0  0  0  0
    5.2115   -9.0529    4.5407 H   0  0  0  0  0  0  0  0  0  0  0  0
    6.2827   -6.9341    4.5063 H   0  0  0  0  0  0  0  0  0  0  0  0
    7.3631   -8.0248    3.6897 H   0  0  0  0  0  0  0  0  0  0  0  0
    8.4615   -5.6973    2.5515 H   0  0  0  0  0  0  0  0  0  0  0  0
    8.0918   -4.0898    0.6793 H   0  0  0  0  0  0  0  0  0  0  0  0
    4.9357   -3.7064   -0.9436 H   0  0  0  0  0  0  0  0  0  0  0  0
    3.2727   -9.0262    0.8476 H   0  0  0  0  0  0  0  0  0  0  0  0
    4.2338   -8.0105   -0.1862 H   0  0  0  0  0  0  0  0  0  0  0  0
    5.4205  -10.1662    0.5255 H   0  0  0  0  0  0  0  0  0  0  0  0
    6.3082   -8.7067    0.8301 H   0  0  0  0  0  0  0  0  0  0  0  0
    5.4711  -11.6794    2.2141 H   0  0  0  0  0  0  0  0  0  0  0  0
    3.9634  -10.9425    2.7599 H   0  0  0  0  0  0  0  0  0  0  0  0
    5.3014  -11.2066    3.8982 H   0  0  0  0  0  0  0  0  0  0  0  0
    3.3077   -5.3694    2.4166 H   0  0  0  0  0  0  0  0  0  0  0  0
  1  2  1  0
  1 25  1  0
  1 26  1  0
  1 27  1  0
  2  3  2  3
  2 28  1  0
  3  4  1  0
  3 29  1  0
  4 23  1  0
  4  5  1  0
  4 30  1  6
  5  6  1  0
  5 31  1  0
  5 32  1  0
  6 16  1  0
  6  7  1  0
  6 33  1  6
  7 19  1  0
  7  8  1  0
  7 34  1  1
  8  9  1  0
  8 35  1  0
  8 36  1  0
  9 15  2  0
  9 10  1  0
 10 11  2  0
 10 37  1  0
 11 12  1  0
 11 38  1  0
 12 13  1  0
 12 14  2  0
 13 39  1  0
 14 22  1  0
 14 15  1  0
 15 16  1  0
 16 17  1  6
 16 21  1  0
 17 18  1  0
 17 40  1  0
 17 41  1  0
 18 19  1  0
 18 42  1  0
 18 43  1  0
 19 20  1  0
 20 44  1  0
 20 45  1  0
 20 46  1  0
 21 22  1  0
 21 23  1  0
 21 47  1  1
 23 24  2  0
M  END
>  <i_m_ct_stereo_status>  (59) 
1

>  <s_m_source_file>  (59) 
/var/tmp/pbs.5076255.sched01/tmpgqtxr8g4/0xtbcsf6k.sdf

>  <i_m_source_file_index>  (59) 
20

>  <i_lp_mmshare_version>  (59) 
48012

>  <i_f3d_flags>  (59) 
0

>  <s_epik_input>  (59) 
W0NIM10vW0NIXT1bQ0hdL1tDQEhdKFtDSDJdMSlDKD1PKVtDQEBIXTJPYyhjKFtPSF0pW2NIXVtjSF0zKWM0YzNbQ0gyXVtDQEBIXShbQ0BASF0xW0NAQF0yNDUpTihbQ0gzXSlbQ0gyXVtDSDJdNQ==

>  <s_epik_cmdline>  (59) 
J2VwaWtfcHl0aG9uJywgJy1waHQnLCAnMi4wJywgJy1waCcsICc3LjAnLCAnLXRuJywgJzgnLCAnLW1hJywgJzIwMCcsICctaW1hZScsICc8aW5maWxlLm1hZT4nLCAnLW9tYWUnLCAnPG91dGZpbGUubWFlPic=

>  <r_lp_tautomer_probability>  (59) 
1

>  <r_epik_Ionization_Penalty>  (59) 
1.55359

>  <r_epik_Ionization_Penalty_Charging>  (59) 
0

>  <r_epik_Ionization_Penalty_Neutral>  (59) 
1.55359

>  <r_epik_State_Penalty>  (59) 
1.66561

>  <r_epik_Charging_Adjusted_Penalty>  (59) 
1.66561

>  <i_epik_Tot_Q>  (59) 
0

>  <i_epik_Tot_abs_Q>  (59) 
0

>  <s_lp_Force_Field>  (59) 
OPLS3e

>  <r_lp_Energy>  (59) 
83.3885

>  <b_lp_Chiralities_Consistent>  (59) 
1

>  <s_lp_Variant>  (59) 
13:0-3

>  <s_i_glide_gridfile>  (59) 
pfpi4k_grid

>  <i_i_glide_lignum>  (59) 
20

>  <i_i_glide_rotatable_bonds>  (59) 
2

>  <r_i_docking_score>  (59) 
-3.23281

>  <r_i_glide_ligand_efficiency>  (59) 
-0.134701

>  <r_i_glide_ligand_efficiency_sa>  (59) 
-0.388544

>  <r_i_glide_ligand_efficiency_ln>  (59) 
-0.77376

>  <r_i_glide_gscore>  (59) 
-3.23281

>  <r_i_glide_lipo>  (59) 
-0.48927

>  <r_i_glide_hbond>  (59) 
-0.16

>  <r_i_glide_metal>  (59) 
-0

>  <r_i_glide_rewards>  (59) 
-1.19044

>  <r_i_glide_evdw>  (59) 
-19.592

>  <r_i_glide_ecoul>  (59) 
-3.69925

>  <r_i_glide_erotb>  (59) 
0.176989

>  <r_i_glide_esite>  (59) 
-0.0356031

>  <r_i_glide_emodel>  (59) 
-27.3576

>  <r_i_glide_energy>  (59) 
-23.2912

>  <r_i_glide_einternal>  (59) 
2.01517

>  <r_i_glide_intrahb_reward>  (59) 
-0

>  <i_i_glide_confnum>  (59) 
1

>  <i_i_glide_posenum>  (59) 
34

>  <r_i_glide_eff_state_penalty>  (59) 
0

>  <ligand_id>  (59) 
13

>  <original_smiles>  (59) 
CC=CC1CC2C3Cc4ccc(O)c5c4C2(CCN3C)C(O5)C1=O

>  <smiles>  (59) 
[H]Oc1c([H])c([H])c2c3c1OC1([H])C(=O)C([H])(C([H])=C([H])C([H])([H])[H])C([H])([H])C4([H])C([H])(N(C([H])([H])[H])C([H])([H])C([H])([H])C314)C2([H])[H]

$$$$
13:2:2
     RDKit          3D

 47 51  0  0  1  0  0  0  0  0999 V2000
   -0.6021   -5.8870    6.0643 C   0  0  0  0  0  0  0  0  0  0  0  0
    0.1820   -6.8221    5.1711 C   0  0  0  0  0  0  0  0  0  0  0  0
    1.2668   -6.4636    4.4679 C   0  0  0  0  0  0  0  0  0  0  0  0
    2.0633   -7.4082    3.5847 C   0  0  2  0  0  0  0  0  0  0  0  0
    3.4796   -7.7201    4.2286 C   0  0  0  0  0  0  0  0  0  0  0  0
    4.3827   -8.4662    3.2182 C   0  0  2  0  0  0  0  0  0  0  0  0
    5.7835   -9.0443    3.5356 C   0  0  2  0  0  0  0  0  0  0  0  0
    6.9196   -7.9951    3.5648 C   0  0  0  0  0  0  0  0  0  0  0  0
    6.9624   -6.9576    2.4511 C   0  0  0  0  0  0  0  0  0  0  0  0
    7.9778   -6.0624    2.0605 C   0  0  0  0  0  0  0  0  0  0  0  0
    7.7163   -5.0865    1.0525 C   0  0  0  0  0  0  0  0  0  0  0  0
    6.4174   -4.9255    0.4878 C   0  0  0  0  0  0  0  0  0  0  0  0
    6.1805   -3.9157   -0.3955 O   0  0  0  0  0  0  0  0  0  0  0  0
    5.3524   -5.7950    0.8806 C   0  0  0  0  0  0  0  0  0  0  0  0
    5.7461   -6.7994    1.7766 C   0  0  0  0  0  0  0  0  0  0  0  0
    4.5479   -7.6725    1.9360 C   0  0  1  0  0  0  0  0  0  0  0  0
    4.6025   -8.7668    0.8435 C   0  0  0  0  0  0  0  0  0  0  0  0
    5.8790   -9.6289    1.0860 C   0  0  0  0  0  0  0  0  0  0  0  0
    6.1195  -10.0368    2.4855 N   0  0  0  0  0  0  0  0  0  0  0  0
    5.5652  -11.3590    2.7530 C   0  0  0  0  0  0  0  0  0  0  0  0
    3.5750   -6.5118    1.7822 C   0  0  1  0  0  0  0  0  0  0  0  0
    4.0104   -5.7615    0.6407 O   0  0  0  0  0  0  0  0  0  0  0  0
    2.1489   -6.8334    2.1432 C   0  0  0  0  0  0  0  0  0  0  0  0
    1.1718   -6.6193    1.4109 O   0  0  0  0  0  0  0  0  0  0  0  0
   -0.5785   -6.2496    7.0914 H   0  0  0  0  0  0  0  0  0  0  0  0
   -1.6423   -5.8575    5.7426 H   0  0  0  0  0  0  0  0  0  0  0  0
   -0.1958   -4.8762    6.0473 H   0  0  0  0  0  0  0  0  0  0  0  0
   -0.1658   -7.8455    5.1242 H   0  0  0  0  0  0  0  0  0  0  0  0
    1.6177   -5.4405    4.5159 H   0  0  0  0  0  0  0  0  0  0  0  0
    1.5086   -8.3465    3.5125 H   0  0  0  0  0  0  0  0  0  0  0  0
    3.9684   -6.8041    4.5664 H   0  0  0  0  0  0  0  0  0  0  0  0
    3.3380   -8.3372    5.1153 H   0  0  0  0  0  0  0  0  0  0  0  0
    3.7451   -9.3289    3.0288 H   0  0  0  0  0  0  0  0  0  0  0  0
    5.7772   -9.5643    4.4904 H   0  0  0  0  0  0  0  0  0  0  0  0
    6.8372   -7.4409    4.5073 H   0  0  0  0  0  0  0  0  0  0  0  0
    7.8946   -8.4932    3.6093 H   0  0  0  0  0  0  0  0  0  0  0  0
    8.9435   -6.1138    2.5339 H   0  0  0  0  0  0  0  0  0  0  0  0
    8.5112   -4.4306    0.7576 H   0  0  0  0  0  0  0  0  0  0  0  0
    6.9560   -3.4631   -0.6375 H   0  0  0  0  0  0  0  0  0  0  0  0
    3.7082   -9.3942    0.8694 H   0  0  0  0  0  0  0  0  0  0  0  0
    4.6179   -8.3264   -0.1545 H   0  0  0  0  0  0  0  0  0  0  0  0
    5.8519  -10.5221    0.4644 H   0  0  0  0  0  0  0  0  0  0  0  0
    6.7457   -9.0612    0.7484 H   0  0  0  0  0  0  0  0  0  0  0  0
    5.9663  -12.0892    2.0471 H   0  0  0  0  0  0  0  0  0  0  0  0
    4.4777  -11.3815    2.6735 H   0  0  0  0  0  0  0  0  0  0  0  0
    5.8538  -11.6891    3.7532 H   0  0  0  0  0  0  0  0  0  0  0  0
    3.7882   -5.8054    2.5931 H   0  0  0  0  0  0  0  0  0  0  0  0
  1  2  1  0
  1 25  1  0
  1 26  1  0
  1 27  1  0
  2  3  2  3
  2 28  1  0
  3  4  1  0
  3 29  1  0
  4 23  1  0
  4  5  1  0
  4 30  1  6
  5  6  1  0
  5 31  1  0
  5 32  1  0
  6 16  1  0
  6  7  1  0
  6 33  1  6
  7 19  1  0
  7  8  1  0
  7 34  1  1
  8  9  1  0
  8 35  1  0
  8 36  1  0
  9 15  2  0
  9 10  1  0
 10 11  2  0
 10 37  1  0
 11 12  1  0
 11 38  1  0
 12 13  1  0
 12 14  2  0
 13 39  1  0
 14 22  1  0
 14 15  1  0
 15 16  1  0
 16 17  1  6
 16 21  1  0
 17 18  1  0
 17 40  1  0
 17 41  1  0
 18 19  1  0
 18 42  1  0
 18 43  1  0
 19 20  1  0
 20 44  1  0
 20 45  1  0
 20 46  1  0
 21 22  1  0
 21 23  1  0
 21 47  1  1
 23 24  2  0
M  END
>  <i_m_ct_stereo_status>  (60) 
1

>  <s_m_source_file>  (60) 
/var/tmp/pbs.5076255.sched01/tmpgqtxr8g4/0xtbcsf6k.sdf

>  <i_m_source_file_index>  (60) 
20

>  <i_lp_mmshare_version>  (60) 
48012

>  <i_f3d_flags>  (60) 
0

>  <s_epik_input>  (60) 
W0NIM10vW0NIXT1bQ0hdL1tDQEhdKFtDSDJdMSlDKD1PKVtDQEBIXTJPYyhjKFtPSF0pW2NIXVtjSF0zKWM0YzNbQ0gyXVtDQEBIXShbQ0BASF0xW0NAQF0yNDUpTihbQ0gzXSlbQ0gyXVtDSDJdNQ==

>  <s_epik_cmdline>  (60) 
J2VwaWtfcHl0aG9uJywgJy1waHQnLCAnMi4wJywgJy1waCcsICc3LjAnLCAnLXRuJywgJzgnLCAnLW1hJywgJzIwMCcsICctaW1hZScsICc8aW5maWxlLm1hZT4nLCAnLW9tYWUnLCAnPG91dGZpbGUubWFlPic=

>  <r_lp_tautomer_probability>  (60) 
1

>  <r_epik_Ionization_Penalty>  (60) 
1.55359

>  <r_epik_Ionization_Penalty_Charging>  (60) 
0

>  <r_epik_Ionization_Penalty_Neutral>  (60) 
1.55359

>  <r_epik_State_Penalty>  (60) 
1.66561

>  <r_epik_Charging_Adjusted_Penalty>  (60) 
1.66561

>  <i_epik_Tot_Q>  (60) 
0

>  <i_epik_Tot_abs_Q>  (60) 
0

>  <s_lp_Force_Field>  (60) 
OPLS3e

>  <r_lp_Energy>  (60) 
83.3885

>  <b_lp_Chiralities_Consistent>  (60) 
1

>  <s_lp_Variant>  (60) 
13:0-3

>  <s_i_glide_gridfile>  (60) 
pfpi4k_grid

>  <i_i_glide_lignum>  (60) 
20

>  <i_i_glide_rotatable_bonds>  (60) 
2

>  <r_i_docking_score>  (60) 
-2.75642

>  <r_i_glide_ligand_efficiency>  (60) 
-0.114851

>  <r_i_glide_ligand_efficiency_sa>  (60) 
-0.331288

>  <r_i_glide_ligand_efficiency_ln>  (60) 
-0.659739

>  <r_i_glide_gscore>  (60) 
-2.75642

>  <r_i_glide_lipo>  (60) 
-0.504582

>  <r_i_glide_hbond>  (60) 
-0.000877819

>  <r_i_glide_metal>  (60) 
-0

>  <r_i_glide_rewards>  (60) 
-1.19044

>  <r_i_glide_evdw>  (60) 
-21.1245

>  <r_i_glide_ecoul>  (60) 
-1.12064

>  <r_i_glide_erotb>  (60) 
0.176989

>  <r_i_glide_esite>  (60) 
-0.0131911

>  <r_i_glide_emodel>  (60) 
-26.0298

>  <r_i_glide_energy>  (60) 
-22.2451

>  <r_i_glide_einternal>  (60) 
0.828989

>  <r_i_glide_intrahb_reward>  (60) 
-0

>  <i_i_glide_confnum>  (60) 
1

>  <i_i_glide_posenum>  (60) 
7

>  <r_i_glide_eff_state_penalty>  (60) 
0

>  <ligand_id>  (60) 
13

>  <original_smiles>  (60) 
CC=CC1CC2C3Cc4ccc(O)c5c4C2(CCN3C)C(O5)C1=O

>  <smiles>  (60) 
[H]Oc1c([H])c([H])c2c3c1OC1([H])C(=O)C([H])(C([H])=C([H])C([H])([H])[H])C([H])([H])C4([H])C([H])(N(C([H])([H])[H])C([H])([H])C([H])([H])C314)C2([H])[H]

$$$$
13:3:0
     RDKit          3D

 47 51  0  0  1  0  0  0  0  0999 V2000
    1.9579   -5.1793    4.8811 C   0  0  0  0  0  0  0  0  0  0  0  0
    1.3160   -3.9694    4.2366 C   0  0  0  0  0  0  0  0  0  0  0  0
    1.7602   -3.2955    3.1608 C   0  0  0  0  0  0  0  0  0  0  0  0
    3.0152   -3.5871    2.3536 C   0  0  2  0  0  0  0  0  0  0  0  0
    3.7670   -2.2420    1.9702 C   0  0  0  0  0  0  0  0  0  0  0  0
    4.8638   -2.5172    0.9199 C   0  0  2  0  0  0  0  0  0  0  0  0
    5.8601   -1.4763    0.4015 C   0  0  2  0  0  0  0  0  0  0  0  0
    5.2434   -0.5087   -0.6145 C   0  0  0  0  0  0  0  0  0  0  0  0
    4.4485   -1.0685   -1.7877 C   0  0  0  0  0  0  0  0  0  0  0  0
    4.0102   -0.4643   -2.9843 C   0  0  0  0  0  0  0  0  0  0  0  0
    3.1052   -1.1854   -3.8141 C   0  0  0  0  0  0  0  0  0  0  0  0
    2.5611   -2.4231   -3.3895 C   0  0  0  0  0  0  0  0  0  0  0  0
    1.6810   -3.0543   -4.1866 O   0  0  0  0  0  0  0  0  0  0  0  0
    2.8760   -2.9590   -2.1445 C   0  0  0  0  0  0  0  0  0  0  0  0
    3.9046   -2.3062   -1.4858 C   0  0  0  0  0  0  0  0  0  0  0  0
    4.2786   -3.1644   -0.3291 C   0  0  1  0  0  0  0  0  0  0  0  0
    5.4102   -4.1106   -0.7969 C   0  0  0  0  0  0  0  0  0  0  0  0
    6.6406   -3.2438   -1.2195 C   0  0  0  0  0  0  0  0  0  0  0  0
    6.9806   -2.1540   -0.2829 N   0  0  0  0  0  0  0  0  0  0  0  0
    8.0064   -2.5764    0.6501 C   0  0  0  0  0  0  0  0  0  0  0  0
    2.8544   -3.6539   -0.1370 C   0  0  1  0  0  0  0  0  0  0  0  0
    2.2767   -3.9602   -1.3944 O   0  0  0  0  0  0  0  0  0  0  0  0
    2.6277   -4.4403    1.1194 C   0  0  0  0  0  0  0  0  0  0  0  0
    2.1587   -5.5721    1.1602 O   0  0  0  0  0  0  0  0  0  0  0  0
    2.2502   -4.9411    5.9041 H   0  0  0  0  0  0  0  0  0  0  0  0
    2.8379   -5.5290    4.3436 H   0  0  0  0  0  0  0  0  0  0  0  0
    1.2405   -5.9977    4.9182 H   0  0  0  0  0  0  0  0  0  0  0  0
    0.4087   -3.6246    4.7046 H   0  0  0  0  0  0  0  0  0  0  0  0
    1.1703   -2.4603    2.8079 H   0  0  0  0  0  0  0  0  0  0  0  0
    3.6935   -4.1951    2.9517 H   0  0  0  0  0  0  0  0  0  0  0  0
    3.0613   -1.4934    1.5908 H   0  0  0  0  0  0  0  0  0  0  0  0
    4.2155   -1.8131    2.8663 H   0  0  0  0  0  0  0  0  0  0  0  0
    5.4603   -3.2459    1.4618 H   0  0  0  0  0  0  0  0  0  0  0  0
    6.2625   -0.8647    1.2128 H   0  0  0  0  0  0  0  0  0  0  0  0
    4.5831    0.1651   -0.0745 H   0  0  0  0  0  0  0  0  0  0  0  0
    6.0519    0.0496   -1.0420 H   0  0  0  0  0  0  0  0  0  0  0  0
    4.2993    0.5351   -3.2533 H   0  0  0  0  0  0  0  0  0  0  0  0
    2.7454   -0.7485   -4.7335 H   0  0  0  0  0  0  0  0  0  0  0  0
    1.1859   -3.7626   -3.7754 H   0  0  0  0  0  0  0  0  0  0  0  0
    5.6753   -4.8148   -0.0038 H   0  0  0  0  0  0  0  0  0  0  0  0
    5.0772   -4.7305   -1.6357 H   0  0  0  0  0  0  0  0  0  0  0  0
    7.5232   -3.8637   -1.3744 H   0  0  0  0  0  0  0  0  0  0  0  0
    6.4215   -2.7958   -2.1890 H   0  0  0  0  0  0  0  0  0  0  0  0
    8.8930   -2.9580    0.1386 H   0  0  0  0  0  0  0  0  0  0  0  0
    7.6537   -3.3499    1.3389 H   0  0  0  0  0  0  0  0  0  0  0  0
    8.3131   -1.6844    1.1989 H   0  0  0  0  0  0  0  0  0  0  0  0
    2.2401   -2.7860    0.0981 H   0  0  0  0  0  0  0  0  0  0  0  0
  1  2  1  0
  1 25  1  0
  1 26  1  0
  1 27  1  0
  2  3  2  3
  2 28  1  0
  3  4  1  0
  3 29  1  0
  4 23  1  0
  4  5  1  0
  4 30  1  1
  5  6  1  0
  5 31  1  0
  5 32  1  0
  6 16  1  0
  6  7  1  0
  6 33  1  1
  7 19  1  0
  7  8  1  0
  7 34  1  1
  8  9  1  0
  8 35  1  0
  8 36  1  0
  9 15  2  0
  9 10  1  0
 10 11  2  0
 10 37  1  0
 11 12  1  0
 11 38  1  0
 12 13  1  0
 12 14  2  0
 13 39  1  0
 14 22  1  0
 14 15  1  0
 15 16  1  0
 16 17  1  6
 16 21  1  0
 17 18  1  0
 17 40  1  0
 17 41  1  0
 18 19  1  0
 18 42  1  0
 18 43  1  0
 19 20  1  0
 20 44  1  0
 20 45  1  0
 20 46  1  0
 21 22  1  0
 21 23  1  0
 21 47  1  1
 23 24  2  0
M  END
>  <i_m_ct_stereo_status>  (61) 
1

>  <s_m_source_file>  (61) 
/var/tmp/pbs.5076255.sched01/tmpgqtxr8g4/0xtbcsf6k.sdf

>  <i_m_source_file_index>  (61) 
21

>  <i_lp_mmshare_version>  (61) 
48012

>  <i_f3d_flags>  (61) 
0

>  <s_epik_input>  (61) 
W0NIM10vW0NIXT1bQ0hdL1tDQEhdKFtDSDJdMSlDKD1PKVtDQEBIXTJPYyhjKFtPSF0pW2NIXVtjSF0zKWM0YzNbQ0gyXVtDQEBIXShbQ0BASF0xW0NAQF0yNDUpTihbQ0gzXSlbQ0gyXVtDSDJdNQ==

>  <s_epik_cmdline>  (61) 
J2VwaWtfcHl0aG9uJywgJy1waHQnLCAnMi4wJywgJy1waCcsICc3LjAnLCAnLXRuJywgJzgnLCAnLW1hJywgJzIwMCcsICctaW1hZScsICc8aW5maWxlLm1hZT4nLCAnLW9tYWUnLCAnPG91dGZpbGUubWFlPic=

>  <r_lp_tautomer_probability>  (61) 
1

>  <r_epik_Ionization_Penalty>  (61) 
1.55359

>  <r_epik_Ionization_Penalty_Charging>  (61) 
0

>  <r_epik_Ionization_Penalty_Neutral>  (61) 
1.55359

>  <r_epik_State_Penalty>  (61) 
1.66561

>  <r_epik_Charging_Adjusted_Penalty>  (61) 
1.66561

>  <i_epik_Tot_Q>  (61) 
0

>  <i_epik_Tot_abs_Q>  (61) 
0

>  <s_lp_Force_Field>  (61) 
OPLS3e

>  <r_lp_Energy>  (61) 
83.773

>  <b_lp_Chiralities_Consistent>  (61) 
1

>  <s_lp_Variant>  (61) 
13:0-4

>  <s_i_glide_gridfile>  (61) 
pfpi4k_grid

>  <i_i_glide_lignum>  (61) 
21

>  <i_i_glide_rotatable_bonds>  (61) 
2

>  <r_i_docking_score>  (61) 
-3.90734

>  <r_i_glide_ligand_efficiency>  (61) 
-0.162806

>  <r_i_glide_ligand_efficiency_sa>  (61) 
-0.469613

>  <r_i_glide_ligand_efficiency_ln>  (61) 
-0.935206

>  <r_i_glide_gscore>  (61) 
-3.90734

>  <r_i_glide_lipo>  (61) 
-1.03123

>  <r_i_glide_hbond>  (61) 
-0.084037

>  <r_i_glide_metal>  (61) 
-0

>  <r_i_glide_rewards>  (61) 
-1.19044

>  <r_i_glide_evdw>  (61) 
-12.7226

>  <r_i_glide_ecoul>  (61) 
-7.47027

>  <r_i_glide_erotb>  (61) 
0.176989

>  <r_i_glide_esite>  (61) 
-0.0219479

>  <r_i_glide_emodel>  (61) 
-25.9202

>  <r_i_glide_energy>  (61) 
-20.1929

>  <r_i_glide_einternal>  (61) 
0.152308

>  <r_i_glide_intrahb_reward>  (61) 
-0

>  <i_i_glide_confnum>  (61) 
1

>  <i_i_glide_posenum>  (61) 
30

>  <r_i_glide_eff_state_penalty>  (61) 
0

>  <ligand_id>  (61) 
13

>  <original_smiles>  (61) 
CC=CC1CC2C3Cc4ccc(O)c5c4C2(CCN3C)C(O5)C1=O

>  <smiles>  (61) 
[H]Oc1c([H])c([H])c2c3c1OC1([H])C(=O)C([H])(C([H])=C([H])C([H])([H])[H])C([H])([H])C4([H])C([H])(N(C([H])([H])[H])C([H])([H])C([H])([H])C314)C2([H])[H]

$$$$
13:3:1
     RDKit          3D

 47 51  0  0  1  0  0  0  0  0999 V2000
    7.3530    0.6225    6.1984 C   0  0  0  0  0  0  0  0  0  0  0  0
    6.5464    0.4865    4.9219 C   0  0  0  0  0  0  0  0  0  0  0  0
    5.2183    0.6474    4.7770 C   0  0  0  0  0  0  0  0  0  0  0  0
    4.2113    1.0085    5.8593 C   0  0  2  0  0  0  0  0  0  0  0  0
    2.9458    0.0541    5.7969 C   0  0  0  0  0  0  0  0  0  0  0  0
    1.8055    0.5949    6.6912 C   0  0  2  0  0  0  0  0  0  0  0  0
    0.4662   -0.1310    6.9701 C   0  0  2  0  0  0  0  0  0  0  0  0
   -0.5678   -0.0356    5.8084 C   0  0  0  0  0  0  0  0  0  0  0  0
   -0.7608    1.3370    5.1640 C   0  0  0  0  0  0  0  0  0  0  0  0
   -1.7646    1.7928    4.2952 C   0  0  0  0  0  0  0  0  0  0  0  0
   -1.6705    3.0856    3.7135 C   0  0  0  0  0  0  0  0  0  0  0  0
   -0.5267    3.9036    3.9177 C   0  0  0  0  0  0  0  0  0  0  0  0
   -0.4191    5.1016    3.2775 O   0  0  0  0  0  0  0  0  0  0  0  0
    0.5257    3.4469    4.7409 C   0  0  0  0  0  0  0  0  0  0  0  0
    0.2898    2.2256    5.3756 C   0  0  0  0  0  0  0  0  0  0  0  0
    1.4303    2.0179    6.3052 C   0  0  1  0  0  0  0  0  0  0  0  0
    1.0737    2.6719    7.6544 C   0  0  0  0  0  0  0  0  0  0  0  0
   -0.1768    1.9538    8.2426 C   0  0  0  0  0  0  0  0  0  0  0  0
   -0.1508    0.4718    8.1779 N   0  0  0  0  0  0  0  0  0  0  0  0
    0.3570   -0.1038    9.4173 C   0  0  0  0  0  0  0  0  0  0  0  0
    2.4102    2.6940    5.3607 C   0  0  1  0  0  0  0  0  0  0  0  0
    1.8081    3.9265    4.9531 O   0  0  0  0  0  0  0  0  0  0  0  0
    3.8543    2.5166    5.7514 C   0  0  0  0  0  0  0  0  0  0  0  0
    4.6443    3.4376    5.9421 O   0  0  0  0  0  0  0  0  0  0  0  0
    7.8076   -0.3347    6.4542 H   0  0  0  0  0  0  0  0  0  0  0  0
    6.7532    0.9482    7.0437 H   0  0  0  0  0  0  0  0  0  0  0  0
    8.1501    1.3498    6.0480 H   0  0  0  0  0  0  0  0  0  0  0  0
    7.1180    0.2208    4.0449 H   0  0  0  0  0  0  0  0  0  0  0  0
    4.8023    0.5198    3.7863 H   0  0  0  0  0  0  0  0  0  0  0  0
    4.6741    0.8876    6.8335 H   0  0  0  0  0  0  0  0  0  0  0  0
    2.5927   -0.0586    4.7690 H   0  0  0  0  0  0  0  0  0  0  0  0
    3.2357   -0.9425    6.1325 H   0  0  0  0  0  0  0  0  0  0  0  0
    2.3330    0.6146    7.6433 H   0  0  0  0  0  0  0  0  0  0  0  0
    0.6459   -1.1872    7.1730 H   0  0  0  0  0  0  0  0  0  0  0  0
   -0.2554   -0.7213    5.0247 H   0  0  0  0  0  0  0  0  0  0  0  0
   -1.5379   -0.3988    6.1409 H   0  0  0  0  0  0  0  0  0  0  0  0
   -2.5889    1.1463    4.0704 H   0  0  0  0  0  0  0  0  0  0  0  0
   -2.4654    3.4272    3.0670 H   0  0  0  0  0  0  0  0  0  0  0  0
   -0.1816    4.9568    2.3537 H   0  0  0  0  0  0  0  0  0  0  0  0
    1.9116    2.6154    8.3510 H   0  0  0  0  0  0  0  0  0  0  0  0
    0.8693    3.7384    7.5390 H   0  0  0  0  0  0  0  0  0  0  0  0
   -0.3504    2.2897    9.2644 H   0  0  0  0  0  0  0  0  0  0  0  0
   -1.0502    2.2961    7.6849 H   0  0  0  0  0  0  0  0  0  0  0  0
   -0.2222    0.2529   10.2720 H   0  0  0  0  0  0  0  0  0  0  0  0
    1.4045    0.1445    9.5910 H   0  0  0  0  0  0  0  0  0  0  0  0
    0.2593   -1.1915    9.3956 H   0  0  0  0  0  0  0  0  0  0  0  0
    2.4205    2.1330    4.4210 H   0  0  0  0  0  0  0  0  0  0  0  0
  1  2  1  0
  1 25  1  0
  1 26  1  0
  1 27  1  0
  2  3  2  3
  2 28  1  0
  3  4  1  0
  3 29  1  0
  4 23  1  0
  4  5  1  0
  4 30  1  1
  5  6  1  0
  5 31  1  0
  5 32  1  0
  6 16  1  0
  6  7  1  0
  6 33  1  1
  7 19  1  0
  7  8  1  0
  7 34  1  1
  8  9  1  0
  8 35  1  0
  8 36  1  0
  9 15  2  0
  9 10  1  0
 10 11  2  0
 10 37  1  0
 11 12  1  0
 11 38  1  0
 12 13  1  0
 12 14  2  0
 13 39  1  0
 14 22  1  0
 14 15  1  0
 15 16  1  0
 16 17  1  1
 16 21  1  0
 17 18  1  0
 17 40  1  0
 17 41  1  0
 18 19  1  0
 18 42  1  0
 18 43  1  0
 19 20  1  0
 20 44  1  0
 20 45  1  0
 20 46  1  0
 21 22  1  0
 21 23  1  0
 21 47  1  6
 23 24  2  0
M  END
>  <i_m_ct_stereo_status>  (62) 
1

>  <s_m_source_file>  (62) 
/var/tmp/pbs.5076255.sched01/tmpgqtxr8g4/0xtbcsf6k.sdf

>  <i_m_source_file_index>  (62) 
21

>  <i_lp_mmshare_version>  (62) 
48012

>  <i_f3d_flags>  (62) 
0

>  <s_epik_input>  (62) 
W0NIM10vW0NIXT1bQ0hdL1tDQEhdKFtDSDJdMSlDKD1PKVtDQEBIXTJPYyhjKFtPSF0pW2NIXVtjSF0zKWM0YzNbQ0gyXVtDQEBIXShbQ0BASF0xW0NAQF0yNDUpTihbQ0gzXSlbQ0gyXVtDSDJdNQ==

>  <s_epik_cmdline>  (62) 
J2VwaWtfcHl0aG9uJywgJy1waHQnLCAnMi4wJywgJy1waCcsICc3LjAnLCAnLXRuJywgJzgnLCAnLW1hJywgJzIwMCcsICctaW1hZScsICc8aW5maWxlLm1hZT4nLCAnLW9tYWUnLCAnPG91dGZpbGUubWFlPic=

>  <r_lp_tautomer_probability>  (62) 
1

>  <r_epik_Ionization_Penalty>  (62) 
1.55359

>  <r_epik_Ionization_Penalty_Charging>  (62) 
0

>  <r_epik_Ionization_Penalty_Neutral>  (62) 
1.55359

>  <r_epik_State_Penalty>  (62) 
1.66561

>  <r_epik_Charging_Adjusted_Penalty>  (62) 
1.66561

>  <i_epik_Tot_Q>  (62) 
0

>  <i_epik_Tot_abs_Q>  (62) 
0

>  <s_lp_Force_Field>  (62) 
OPLS3e

>  <r_lp_Energy>  (62) 
83.773

>  <b_lp_Chiralities_Consistent>  (62) 
1

>  <s_lp_Variant>  (62) 
13:0-4

>  <s_i_glide_gridfile>  (62) 
pfpi4k_grid

>  <i_i_glide_lignum>  (62) 
21

>  <i_i_glide_rotatable_bonds>  (62) 
2

>  <r_i_docking_score>  (62) 
-3.37824

>  <r_i_glide_ligand_efficiency>  (62) 
-0.14076

>  <r_i_glide_ligand_efficiency_sa>  (62) 
-0.406022

>  <r_i_glide_ligand_efficiency_ln>  (62) 
-0.808568

>  <r_i_glide_gscore>  (62) 
-3.37824

>  <r_i_glide_lipo>  (62) 
-0.431265

>  <r_i_glide_hbond>  (62) 
0

>  <r_i_glide_metal>  (62) 
-0

>  <r_i_glide_rewards>  (62) 
-1.19044

>  <r_i_glide_evdw>  (62) 
-14.9309

>  <r_i_glide_ecoul>  (62) 
-7.91319

>  <r_i_glide_erotb>  (62) 
0.176989

>  <r_i_glide_esite>  (62) 
0

>  <r_i_glide_emodel>  (62) 
-26.3805

>  <r_i_glide_energy>  (62) 
-22.8441

>  <r_i_glide_einternal>  (62) 
3.1903

>  <r_i_glide_intrahb_reward>  (62) 
-0

>  <i_i_glide_confnum>  (62) 
3

>  <i_i_glide_posenum>  (62) 
8

>  <r_i_glide_eff_state_penalty>  (62) 
0

>  <ligand_id>  (62) 
13

>  <original_smiles>  (62) 
CC=CC1CC2C3Cc4ccc(O)c5c4C2(CCN3C)C(O5)C1=O

>  <smiles>  (62) 
[H]Oc1c([H])c([H])c2c3c1OC1([H])C(=O)C([H])(C([H])=C([H])C([H])([H])[H])C([H])([H])C4([H])C([H])(N(C([H])([H])[H])C([H])([H])C([H])([H])C314)C2([H])[H]

$$$$
13:3:2
     RDKit          3D

 47 51  0  0  1  0  0  0  0  0999 V2000
   -0.0536   -7.8830    4.1858 C   0  0  0  0  0  0  0  0  0  0  0  0
   -0.0698   -6.3705    4.2571 C   0  0  0  0  0  0  0  0  0  0  0  0
    0.8358   -5.5248    3.7306 C   0  0  0  0  0  0  0  0  0  0  0  0
    2.1003   -5.8911    2.9668 C   0  0  2  0  0  0  0  0  0  0  0  0
    3.3038   -4.9492    3.3841 C   0  0  0  0  0  0  0  0  0  0  0  0
    4.4874   -5.1111    2.4015 C   0  0  2  0  0  0  0  0  0  0  0  0
    5.8691   -4.4416    2.5630 C   0  0  2  0  0  0  0  0  0  0  0  0
    5.9059   -2.9406    2.1525 C   0  0  0  0  0  0  0  0  0  0  0  0
    5.2224   -2.5482    0.8514 C   0  0  0  0  0  0  0  0  0  0  0  0
    5.3171   -1.3502    0.1091 C   0  0  0  0  0  0  0  0  0  0  0  0
    4.4741   -1.1710   -1.0233 C   0  0  0  0  0  0  0  0  0  0  0  0
    3.4786   -2.1256   -1.3631 C   0  0  0  0  0  0  0  0  0  0  0  0
    2.6183   -1.8609   -2.3815 O   0  0  0  0  0  0  0  0  0  0  0  0
    3.3295   -3.2962   -0.5930 C   0  0  0  0  0  0  0  0  0  0  0  0
    4.2826   -3.4693    0.4053 C   0  0  0  0  0  0  0  0  0  0  0  0
    4.0708   -4.8346    0.9636 C   0  0  1  0  0  0  0  0  0  0  0  0
    4.9125   -5.8318    0.1465 C   0  0  0  0  0  0  0  0  0  0  0  0
    6.4116   -5.4614    0.3261 C   0  0  0  0  0  0  0  0  0  0  0  0
    6.8364   -5.1733    1.7129 N   0  0  0  0  0  0  0  0  0  0  0  0
    7.4002   -6.3535    2.3568 C   0  0  0  0  0  0  0  0  0  0  0  0
    2.5785   -4.7580    0.7581 C   0  0  1  0  0  0  0  0  0  0  0  0
    2.3379   -4.2645   -0.5649 O   0  0  0  0  0  0  0  0  0  0  0  0
    1.8060   -5.8595    1.4400 C   0  0  0  0  0  0  0  0  0  0  0  0
    0.9812   -6.5684    0.8727 O   0  0  0  0  0  0  0  0  0  0  0  0
    0.0176   -8.3021    5.1892 H   0  0  0  0  0  0  0  0  0  0  0  0
    0.7738   -8.2689    3.5929 H   0  0  0  0  0  0  0  0  0  0  0  0
   -0.9815   -8.2436    3.7403 H   0  0  0  0  0  0  0  0  0  0  0  0
   -0.9057   -5.9513    4.7942 H   0  0  0  0  0  0  0  0  0  0  0  0
    0.6622   -4.4648    3.8547 H   0  0  0  0  0  0  0  0  0  0  0  0
    2.3721   -6.9207    3.2034 H   0  0  0  0  0  0  0  0  0  0  0  0
    2.9925   -3.9021    3.4161 H   0  0  0  0  0  0  0  0  0  0  0  0
    3.6237   -5.2058    4.3934 H   0  0  0  0  0  0  0  0  0  0  0  0
    4.6605   -6.1804    2.5227 H   0  0  0  0  0  0  0  0  0  0  0  0
    6.2008   -4.5293    3.5996 H   0  0  0  0  0  0  0  0  0  0  0  0
    5.4543   -2.3622    2.9578 H   0  0  0  0  0  0  0  0  0  0  0  0
    6.9369   -2.6102    2.0681 H   0  0  0  0  0  0  0  0  0  0  0  0
    6.0044   -0.5771    0.4050 H   0  0  0  0  0  0  0  0  0  0  0  0
    4.5491   -0.2662   -1.5978 H   0  0  0  0  0  0  0  0  0  0  0  0
    1.7923   -1.5437   -2.0051 H   0  0  0  0  0  0  0  0  0  0  0  0
    4.7272   -6.8560    0.4719 H   0  0  0  0  0  0  0  0  0  0  0  0
    4.6396   -5.8072   -0.9093 H   0  0  0  0  0  0  0  0  0  0  0  0
    7.0444   -6.2511   -0.0701 H   0  0  0  0  0  0  0  0  0  0  0  0
    6.6156   -4.5774   -0.2805 H   0  0  0  0  0  0  0  0  0  0  0  0
    8.2164   -6.7645    1.7580 H   0  0  0  0  0  0  0  0  0  0  0  0
    6.6577   -7.1389    2.5055 H   0  0  0  0  0  0  0  0  0  0  0  0
    7.8238   -6.0811    3.3250 H   0  0  0  0  0  0  0  0  0  0  0  0
    2.2056   -3.9223    1.3547 H   0  0  0  0  0  0  0  0  0  0  0  0
  1  2  1  0
  1 25  1  0
  1 26  1  0
  1 27  1  0
  2  3  2  3
  2 28  1  0
  3  4  1  0
  3 29  1  0
  4 23  1  0
  4  5  1  0
  4 30  1  1
  5  6  1  0
  5 31  1  0
  5 32  1  0
  6 16  1  0
  6  7  1  0
  6 33  1  6
  7 19  1  0
  7  8  1  0
  7 34  1  1
  8  9  1  0
  8 35  1  0
  8 36  1  0
  9 15  2  0
  9 10  1  0
 10 11  2  0
 10 37  1  0
 11 12  1  0
 11 38  1  0
 12 13  1  0
 12 14  2  0
 13 39  1  0
 14 22  1  0
 14 15  1  0
 15 16  1  0
 16 17  1  6
 16 21  1  0
 17 18  1  0
 17 40  1  0
 17 41  1  0
 18 19  1  0
 18 42  1  0
 18 43  1  0
 19 20  1  0
 20 44  1  0
 20 45  1  0
 20 46  1  0
 21 22  1  0
 21 23  1  0
 21 47  1  1
 23 24  2  0
M  END
>  <i_m_ct_stereo_status>  (63) 
1

>  <s_m_source_file>  (63) 
/var/tmp/pbs.5076255.sched01/tmpgqtxr8g4/0xtbcsf6k.sdf

>  <i_m_source_file_index>  (63) 
21

>  <i_lp_mmshare_version>  (63) 
48012

>  <i_f3d_flags>  (63) 
0

>  <s_epik_input>  (63) 
W0NIM10vW0NIXT1bQ0hdL1tDQEhdKFtDSDJdMSlDKD1PKVtDQEBIXTJPYyhjKFtPSF0pW2NIXVtjSF0zKWM0YzNbQ0gyXVtDQEBIXShbQ0BASF0xW0NAQF0yNDUpTihbQ0gzXSlbQ0gyXVtDSDJdNQ==

>  <s_epik_cmdline>  (63) 
J2VwaWtfcHl0aG9uJywgJy1waHQnLCAnMi4wJywgJy1waCcsICc3LjAnLCAnLXRuJywgJzgnLCAnLW1hJywgJzIwMCcsICctaW1hZScsICc8aW5maWxlLm1hZT4nLCAnLW9tYWUnLCAnPG91dGZpbGUubWFlPic=

>  <r_lp_tautomer_probability>  (63) 
1

>  <r_epik_Ionization_Penalty>  (63) 
1.55359

>  <r_epik_Ionization_Penalty_Charging>  (63) 
0

>  <r_epik_Ionization_Penalty_Neutral>  (63) 
1.55359

>  <r_epik_State_Penalty>  (63) 
1.66561

>  <r_epik_Charging_Adjusted_Penalty>  (63) 
1.66561

>  <i_epik_Tot_Q>  (63) 
0

>  <i_epik_Tot_abs_Q>  (63) 
0

>  <s_lp_Force_Field>  (63) 
OPLS3e

>  <r_lp_Energy>  (63) 
83.773

>  <b_lp_Chiralities_Consistent>  (63) 
1

>  <s_lp_Variant>  (63) 
13:0-4

>  <s_i_glide_gridfile>  (63) 
pfpi4k_grid

>  <i_i_glide_lignum>  (63) 
21

>  <i_i_glide_rotatable_bonds>  (63) 
2

>  <r_i_docking_score>  (63) 
-3.27875

>  <r_i_glide_ligand_efficiency>  (63) 
-0.136614

>  <r_i_glide_ligand_efficiency_sa>  (63) 
-0.394064

>  <r_i_glide_ligand_efficiency_ln>  (63) 
-0.784754

>  <r_i_glide_gscore>  (63) 
-3.27875

>  <r_i_glide_lipo>  (63) 
-0.395813

>  <r_i_glide_hbond>  (63) 
-0.0947253

>  <r_i_glide_metal>  (63) 
-0

>  <r_i_glide_rewards>  (63) 
-1.19044

>  <r_i_glide_evdw>  (63) 
-19.1284

>  <r_i_glide_ecoul>  (63) 
-5.07999

>  <r_i_glide_erotb>  (63) 
0.176989

>  <r_i_glide_esite>  (63) 
-0.0563327

>  <r_i_glide_emodel>  (63) 
-27.7339

>  <r_i_glide_energy>  (63) 
-24.2084

>  <r_i_glide_einternal>  (63) 
3.37746

>  <r_i_glide_intrahb_reward>  (63) 
-0

>  <i_i_glide_confnum>  (63) 
1

>  <i_i_glide_posenum>  (63) 
29

>  <r_i_glide_eff_state_penalty>  (63) 
0

>  <ligand_id>  (63) 
13

>  <original_smiles>  (63) 
CC=CC1CC2C3Cc4ccc(O)c5c4C2(CCN3C)C(O5)C1=O

>  <smiles>  (63) 
[H]Oc1c([H])c([H])c2c3c1OC1([H])C(=O)C([H])(C([H])=C([H])C([H])([H])[H])C([H])([H])C4([H])C([H])(N(C([H])([H])[H])C([H])([H])C([H])([H])C314)C2([H])[H]

$$$$
13:4:0
     RDKit          3D

 47 51  0  0  1  0  0  0  0  0999 V2000
    8.4144   -5.7068    1.0040 C   0  0  0  0  0  0  0  0  0  0  0  0
    7.6524   -6.1935    2.2170 C   0  0  0  0  0  0  0  0  0  0  0  0
    6.5938   -7.0183    2.1608 C   0  0  0  0  0  0  0  0  0  0  0  0
    5.8202   -7.5198    3.3666 C   0  0  2  0  0  0  0  0  0  0  0  0
    5.3177   -9.0122    3.1570 C   0  0  0  0  0  0  0  0  0  0  0  0
    4.2928   -9.4079    4.2548 C   0  0  2  0  0  0  0  0  0  0  0  0
    3.6510  -10.8059    4.4612 C   0  0  2  0  0  0  0  0  0  0  0  0
    2.5587  -11.1452    3.4130 C   0  0  0  0  0  0  0  0  0  0  0  0
    1.4810  -10.0817    3.2271 C   0  0  0  0  0  0  0  0  0  0  0  0
    0.1967  -10.1945    2.6670 C   0  0  0  0  0  0  0  0  0  0  0  0
   -0.5717   -9.0171    2.4786 C   0  0  0  0  0  0  0  0  0  0  0  0
   -0.0464   -7.7302    2.7403 C   0  0  0  0  0  0  0  0  0  0  0  0
   -0.8138   -6.6676    2.4205 O   0  0  0  0  0  0  0  0  0  0  0  0
    1.2579   -7.5858    3.2708 C   0  0  0  0  0  0  0  0  0  0  0  0
    1.8878   -8.7924    3.5553 C   0  0  0  0  0  0  0  0  0  0  0  0
    3.1244   -8.4308    4.2865 C   0  0  1  0  0  0  0  0  0  0  0  0
    2.7726   -8.3273    5.7900 C   0  0  0  0  0  0  0  0  0  0  0  0
    2.2315   -9.7017    6.2718 C   0  0  0  0  0  0  0  0  0  0  0  0
    3.0671  -10.8713    5.8488 N   0  0  2  0  0  0  0  0  0  0  0  0
    4.0644  -11.2179    6.8829 C   0  0  0  0  0  0  0  0  0  0  0  0
    3.3296   -7.1652    3.4776 C   0  0  1  0  0  0  0  0  0  0  0  0
    2.0725   -6.4821    3.4796 O   0  0  0  0  0  0  0  0  0  0  0  0
    4.6769   -6.5221    3.6985 C   0  0  0  0  0  0  0  0  0  0  0  0
    4.8494   -5.3637    4.0725 O   0  0  0  0  0  0  0  0  0  0  0  0
    9.4530   -6.0144    1.0828 H   0  0  0  0  0  0  0  0  0  0  0  0
    8.3855   -4.6187    0.9444 H   0  0  0  0  0  0  0  0  0  0  0  0
    8.0099   -6.1226    0.0807 H   0  0  0  0  0  0  0  0  0  0  0  0
    8.0041   -5.8355    3.1750 H   0  0  0  0  0  0  0  0  0  0  0  0
    6.2459   -7.3604    1.1974 H   0  0  0  0  0  0  0  0  0  0  0  0
    6.4895   -7.4892    4.2264 H   0  0  0  0  0  0  0  0  0  0  0  0
    4.8680   -9.1379    2.1690 H   0  0  0  0  0  0  0  0  0  0  0  0
    6.1747   -9.6853    3.1860 H   0  0  0  0  0  0  0  0  0  0  0  0
    4.9236   -9.2520    5.1315 H   0  0  0  0  0  0  0  0  0  0  0  0
    4.4135  -11.5760    4.3738 H   0  0  0  0  0  0  0  0  0  0  0  0
    3.0372  -11.2915    2.4424 H   0  0  0  0  0  0  0  0  0  0  0  0
    2.0703  -12.0907    3.6471 H   0  0  0  0  0  0  0  0  0  0  0  0
   -0.1802  -11.1495    2.3549 H   0  0  0  0  0  0  0  0  0  0  0  0
   -1.5599   -9.1005    2.0604 H   0  0  0  0  0  0  0  0  0  0  0  0
    3.6387   -8.0341    6.3899 H   0  0  0  0  0  0  0  0  0  0  0  0
    2.0247   -7.5526    5.9734 H   0  0  0  0  0  0  0  0  0  0  0  0
    2.1062   -9.6951    7.3527 H   0  0  0  0  0  0  0  0  0  0  0  0
    1.2179   -9.8419    5.8976 H   0  0  0  0  0  0  0  0  0  0  0  0
    4.7529  -10.3936    7.0562 H   0  0  0  0  0  0  0  0  0  0  0  0
    4.6386  -12.1001    6.6034 H   0  0  0  0  0  0  0  0  0  0  0  0
    3.5686  -11.4373    7.8290 H   0  0  0  0  0  0  0  0  0  0  0  0
    3.4390   -7.4404    2.4259 H   0  0  0  0  0  0  0  0  0  0  0  0
    2.4312  -11.6542    5.8818 H   0  0  0  0  0  0  0  0  0  0  0  0
  1  2  1  0
  1 25  1  0
  1 26  1  0
  1 27  1  0
  2  3  2  3
  2 28  1  0
  3  4  1  0
  3 29  1  0
  4 23  1  0
  4  5  1  0
  4 30  1  1
  5  6  1  0
  5 31  1  0
  5 32  1  0
  6 16  1  0
  6  7  1  0
  6 33  1  1
  7 19  1  0
  7  8  1  0
  7 34  1  1
  8  9  1  0
  8 35  1  0
  8 36  1  0
  9 15  2  0
  9 10  1  0
 10 11  2  0
 10 37  1  0
 11 12  1  0
 11 38  1  0
 12 13  1  0
 12 14  2  0
 14 22  1  0
 14 15  1  0
 15 16  1  0
 16 17  1  1
 16 21  1  0
 17 18  1  0
 17 39  1  0
 17 40  1  0
 18 19  1  0
 18 41  1  0
 18 42  1  0
 19 20  1  0
 19 47  1  6
 20 43  1  0
 20 44  1  0
 20 45  1  0
 21 22  1  0
 21 23  1  0
 21 46  1  6
 23 24  2  0
M  CHG  2  13  -1  19   1
M  END
>  <i_m_ct_stereo_status>  (64) 
1

>  <s_m_source_file>  (64) 
/var/tmp/pbs.5076255.sched01/tmpgqtxr8g4/0xtbcsf6k.sdf

>  <i_m_source_file_index>  (64) 
22

>  <i_lp_mmshare_version>  (64) 
48012

>  <i_f3d_flags>  (64) 
0

>  <s_epik_input>  (64) 
W0NIM10vW0NIXT1bQ0hdL1tDQEhdKFtDSDJdMSlDKD1PKVtDQEBIXTJPYyhjKFtPSF0pW2NIXVtjSF0zKWM0YzNbQ0gyXVtDQEBIXShbQ0BASF0xW0NAQF0yNDUpTihbQ0gzXSlbQ0gyXVtDSDJdNQ==

>  <s_epik_cmdline>  (64) 
J2VwaWtfcHl0aG9uJywgJy1waHQnLCAnMi4wJywgJy1waCcsICc3LjAnLCAnLXRuJywgJzgnLCAnLW1hJywgJzIwMCcsICctaW1hZScsICc8aW5maWxlLm1hZT4nLCAnLW9tYWUnLCAnPG91dGZpbGUubWFlPic=

>  <r_epik_Ionization_Penalty>  (64) 
1.84905

>  <r_epik_Ionization_Penalty_Charging>  (64) 
1.84905

>  <r_epik_Ionization_Penalty_Neutral>  (64) 
2.11489e-10

>  <r_epik_State_Penalty>  (64) 
1.95967

>  <r_epik_Charging_Adjusted_Penalty>  (64) 
3.80872

>  <i_epik_Tot_Q>  (64) 
0

>  <i_epik_Tot_abs_Q>  (64) 
2

>  <s_lp_Force_Field>  (64) 
OPLS3e

>  <r_lp_Energy>  (64) 
83.6086

>  <b_lp_Chiralities_Consistent>  (64) 
1

>  <s_lp_Variant>  (64) 
13:0-5

>  <s_i_glide_gridfile>  (64) 
pfpi4k_grid

>  <i_i_glide_lignum>  (64) 
22

>  <i_i_glide_rotatable_bonds>  (64) 
1

>  <r_i_docking_score>  (64) 
-3.85765

>  <r_i_glide_ligand_efficiency>  (64) 
-0.160735

>  <r_i_glide_ligand_efficiency_sa>  (64) 
-0.463641

>  <r_i_glide_ligand_efficiency_ln>  (64) 
-0.923313

>  <r_i_glide_gscore>  (64) 
-3.85765

>  <r_i_glide_lipo>  (64) 
-0.269435

>  <r_i_glide_hbond>  (64) 
-0.265579

>  <r_i_glide_metal>  (64) 
-0

>  <r_i_glide_rewards>  (64) 
-1.82347

>  <r_i_glide_evdw>  (64) 
-15.5308

>  <r_i_glide_ecoul>  (64) 
-5.45509

>  <r_i_glide_erotb>  (64) 
0.176989

>  <r_i_glide_esite>  (64) 
-0.0813538

>  <r_i_glide_emodel>  (64) 
-32.0041

>  <r_i_glide_energy>  (64) 
-20.9859

>  <r_i_glide_einternal>  (64) 
0.242666

>  <r_i_glide_intrahb_reward>  (64) 
-0

>  <i_i_glide_confnum>  (64) 
1

>  <i_i_glide_posenum>  (64) 
18

>  <r_i_glide_eff_state_penalty>  (64) 
0

>  <ligand_id>  (64) 
13

>  <original_smiles>  (64) 
CC=CC1CC2C3Cc4ccc(O)c5c4C2(CCN3C)C(O5)C1=O

>  <smiles>  (64) 
[H]C(=C([H])C1([H])C(=O)C2([H])Oc3c([O-])c([H])c([H])c4c3C23C([H])([H])C([H])([H])[N+]([H])(C([H])([H])[H])C([H])(C4([H])[H])C3([H])C1([H])[H])C([H])([H])[H]

$$$$
13:4:1
     RDKit          3D

 47 51  0  0  1  0  0  0  0  0999 V2000
   -4.9313    3.7352    1.8376 C   0  0  0  0  0  0  0  0  0  0  0  0
   -3.5730    3.5145    2.4523 C   0  0  0  0  0  0  0  0  0  0  0  0
   -3.3188    3.3278    3.7554 C   0  0  0  0  0  0  0  0  0  0  0  0
   -1.9329    3.1294    4.3490 C   0  0  2  0  0  0  0  0  0  0  0  0
   -0.9199    2.4911    3.3037 C   0  0  0  0  0  0  0  0  0  0  0  0
    0.3734    2.0179    3.9992 C   0  0  2  0  0  0  0  0  0  0  0  0
    1.6262    1.4400    3.2972 C   0  0  2  0  0  0  0  0  0  0  0  0
    1.4397   -0.0223    2.7947 C   0  0  0  0  0  0  0  0  0  0  0  0
    0.8944   -1.0087    3.8231 C   0  0  0  0  0  0  0  0  0  0  0  0
    0.9362   -2.4164    3.8591 C   0  0  0  0  0  0  0  0  0  0  0  0
    0.2145   -3.1041    4.8735 C   0  0  0  0  0  0  0  0  0  0  0  0
   -0.6201   -2.4232    5.8031 C   0  0  0  0  0  0  0  0  0  0  0  0
   -1.3787   -3.1157    6.7033 O   0  0  0  0  0  0  0  0  0  0  0  0
   -0.6933   -1.0144    5.7657 C   0  0  0  0  0  0  0  0  0  0  0  0
    0.1393   -0.4129    4.8321 C   0  0  0  0  0  0  0  0  0  0  0  0
    0.0593    1.0421    5.1194 C   0  0  1  0  0  0  0  0  0  0  0  0
    1.1136    1.3728    6.2032 C   0  0  0  0  0  0  0  0  0  0  0  0
    2.5199    1.0075    5.6528 C   0  0  0  0  0  0  0  0  0  0  0  0
    2.7813    1.5128    4.2629 N   0  0  2  0  0  0  0  0  0  0  0  0
    3.4378    2.8390    4.2919 C   0  0  0  0  0  0  0  0  0  0  0  0
   -1.4036    0.9635    5.5024 C   0  0  1  0  0  0  0  0  0  0  0  0
   -1.5076   -0.1133    6.4327 O   0  0  0  0  0  0  0  0  0  0  0  0
   -2.0451    2.3133    5.6627 C   0  0  0  0  0  0  0  0  0  0  0  0
   -2.6225    2.6988    6.6768 O   0  0  0  0  0  0  0  0  0  0  0  0
   -5.1291    2.9323    1.1299 H   0  0  0  0  0  0  0  0  0  0  0  0
   -4.9436    4.6774    1.2901 H   0  0  0  0  0  0  0  0  0  0  0  0
   -5.7252    3.7557    2.5829 H   0  0  0  0  0  0  0  0  0  0  0  0
   -2.7592    3.5099    1.7531 H   0  0  0  0  0  0  0  0  0  0  0  0
   -4.1454    3.3128    4.4470 H   0  0  0  0  0  0  0  0  0  0  0  0
   -1.5635    4.1098    4.6521 H   0  0  0  0  0  0  0  0  0  0  0  0
   -1.3849    1.6546    2.7754 H   0  0  0  0  0  0  0  0  0  0  0  0
   -0.6630    3.2311    2.5466 H   0  0  0  0  0  0  0  0  0  0  0  0
    0.6905    2.9714    4.4216 H   0  0  0  0  0  0  0  0  0  0  0  0
    1.8709    2.0539    2.4271 H   0  0  0  0  0  0  0  0  0  0  0  0
    0.7434   -0.0053    1.9538 H   0  0  0  0  0  0  0  0  0  0  0  0
    2.3766   -0.4082    2.3941 H   0  0  0  0  0  0  0  0  0  0  0  0
    1.4959   -2.9521    3.1067 H   0  0  0  0  0  0  0  0  0  0  0  0
    0.2657   -4.1798    4.8982 H   0  0  0  0  0  0  0  0  0  0  0  0
    1.0808    2.4304    6.4816 H   0  0  0  0  0  0  0  0  0  0  0  0
    0.9249    0.8233    7.1285 H   0  0  0  0  0  0  0  0  0  0  0  0
    3.2858    1.3633    6.3435 H   0  0  0  0  0  0  0  0  0  0  0  0
    2.6341   -0.0770    5.6617 H   0  0  0  0  0  0  0  0  0  0  0  0
    2.8072    3.5830    4.7794 H   0  0  0  0  0  0  0  0  0  0  0  0
    3.6647    3.1914    3.2854 H   0  0  0  0  0  0  0  0  0  0  0  0
    4.3742    2.7812    4.8520 H   0  0  0  0  0  0  0  0  0  0  0  0
   -1.9721    0.5942    4.6447 H   0  0  0  0  0  0  0  0  0  0  0  0
    3.4808    0.8925    3.8833 H   0  0  0  0  0  0  0  0  0  0  0  0
  1  2  1  0
  1 25  1  0
  1 26  1  0
  1 27  1  0
  2  3  2  3
  2 28  1  0
  3  4  1  0
  3 29  1  0
  4 23  1  0
  4  5  1  0
  4 30  1  1
  5  6  1  0
  5 31  1  0
  5 32  1  0
  6 16  1  0
  6  7  1  0
  6 33  1  1
  7 19  1  0
  7  8  1  0
  7 34  1  6
  8  9  1  0
  8 35  1  0
  8 36  1  0
  9 15  2  0
  9 10  1  0
 10 11  2  0
 10 37  1  0
 11 12  1  0
 11 38  1  0
 12 13  1  0
 12 14  2  0
 14 22  1  0
 14 15  1  0
 15 16  1  0
 16 17  1  1
 16 21  1  0
 17 18  1  0
 17 39  1  0
 17 40  1  0
 18 19  1  0
 18 41  1  0
 18 42  1  0
 19 20  1  0
 19 47  1  6
 20 43  1  0
 20 44  1  0
 20 45  1  0
 21 22  1  0
 21 23  1  0
 21 46  1  6
 23 24  2  0
M  CHG  2  13  -1  19   1
M  END
>  <i_m_ct_stereo_status>  (65) 
1

>  <s_m_source_file>  (65) 
/var/tmp/pbs.5076255.sched01/tmpgqtxr8g4/0xtbcsf6k.sdf

>  <i_m_source_file_index>  (65) 
22

>  <i_lp_mmshare_version>  (65) 
48012

>  <i_f3d_flags>  (65) 
0

>  <s_epik_input>  (65) 
W0NIM10vW0NIXT1bQ0hdL1tDQEhdKFtDSDJdMSlDKD1PKVtDQEBIXTJPYyhjKFtPSF0pW2NIXVtjSF0zKWM0YzNbQ0gyXVtDQEBIXShbQ0BASF0xW0NAQF0yNDUpTihbQ0gzXSlbQ0gyXVtDSDJdNQ==

>  <s_epik_cmdline>  (65) 
J2VwaWtfcHl0aG9uJywgJy1waHQnLCAnMi4wJywgJy1waCcsICc3LjAnLCAnLXRuJywgJzgnLCAnLW1hJywgJzIwMCcsICctaW1hZScsICc8aW5maWxlLm1hZT4nLCAnLW9tYWUnLCAnPG91dGZpbGUubWFlPic=

>  <r_epik_Ionization_Penalty>  (65) 
1.84905

>  <r_epik_Ionization_Penalty_Charging>  (65) 
1.84905

>  <r_epik_Ionization_Penalty_Neutral>  (65) 
2.11489e-10

>  <r_epik_State_Penalty>  (65) 
1.95967

>  <r_epik_Charging_Adjusted_Penalty>  (65) 
3.80872

>  <i_epik_Tot_Q>  (65) 
0

>  <i_epik_Tot_abs_Q>  (65) 
2

>  <s_lp_Force_Field>  (65) 
OPLS3e

>  <r_lp_Energy>  (65) 
83.6086

>  <b_lp_Chiralities_Consistent>  (65) 
1

>  <s_lp_Variant>  (65) 
13:0-5

>  <s_i_glide_gridfile>  (65) 
pfpi4k_grid

>  <i_i_glide_lignum>  (65) 
22

>  <i_i_glide_rotatable_bonds>  (65) 
1

>  <r_i_docking_score>  (65) 
-3.41692

>  <r_i_glide_ligand_efficiency>  (65) 
-0.142372

>  <r_i_glide_ligand_efficiency_sa>  (65) 
-0.410672

>  <r_i_glide_ligand_efficiency_ln>  (65) 
-0.817827

>  <r_i_glide_gscore>  (65) 
-3.41692

>  <r_i_glide_lipo>  (65) 
-0.485865

>  <r_i_glide_hbond>  (65) 
-0.146267

>  <r_i_glide_metal>  (65) 
-0

>  <r_i_glide_rewards>  (65) 
-1.21593

>  <r_i_glide_evdw>  (65) 
-16.5335

>  <r_i_glide_ecoul>  (65) 
-6.10676

>  <r_i_glide_erotb>  (65) 
0.176989

>  <r_i_glide_esite>  (65) 
-0.0031615

>  <r_i_glide_emodel>  (65) 
-30.5924

>  <r_i_glide_energy>  (65) 
-22.6403

>  <r_i_glide_einternal>  (65) 
3.66214

>  <r_i_glide_intrahb_reward>  (65) 
-0

>  <i_i_glide_confnum>  (65) 
2

>  <i_i_glide_posenum>  (65) 
3

>  <r_i_glide_eff_state_penalty>  (65) 
0

>  <ligand_id>  (65) 
13

>  <original_smiles>  (65) 
CC=CC1CC2C3Cc4ccc(O)c5c4C2(CCN3C)C(O5)C1=O

>  <smiles>  (65) 
[H]C(=C([H])C1([H])C(=O)C2([H])Oc3c([O-])c([H])c([H])c4c3C23C([H])([H])C([H])([H])[N+]([H])(C([H])([H])[H])C([H])(C4([H])[H])C3([H])C1([H])[H])C([H])([H])[H]

$$$$
13:4:2
     RDKit          3D

 47 51  0  0  1  0  0  0  0  0999 V2000
    7.5513   -5.0595    0.6231 C   0  0  0  0  0  0  0  0  0  0  0  0
    7.0925   -6.0649    1.6570 C   0  0  0  0  0  0  0  0  0  0  0  0
    5.8321   -6.5144    1.7685 C   0  0  0  0  0  0  0  0  0  0  0  0
    5.3640   -7.5274    2.7978 C   0  0  2  0  0  0  0  0  0  0  0  0
    4.4070   -8.6162    2.1481 C   0  0  0  0  0  0  0  0  0  0  0  0
    3.7088   -9.4614    3.2464 C   0  0  2  0  0  0  0  0  0  0  0  0
    2.7783  -10.6834    3.0248 C   0  0  2  0  0  0  0  0  0  0  0  0
    1.3598  -10.3008    2.5193 C   0  0  0  0  0  0  0  0  0  0  0  0
    0.6375   -9.2179    3.3082 C   0  0  0  0  0  0  0  0  0  0  0  0
   -0.7278   -8.8802    3.3614 C   0  0  0  0  0  0  0  0  0  0  0  0
   -1.1250   -7.7283    4.0892 C   0  0  0  0  0  0  0  0  0  0  0  0
   -0.1775   -6.8532    4.6979 C   0  0  0  0  0  0  0  0  0  0  0  0
   -0.5906   -5.7312    5.3514 O   0  0  0  0  0  0  0  0  0  0  0  0
    1.1976   -7.1524    4.6157 C   0  0  0  0  0  0  0  0  0  0  0  0
    1.4957   -8.3616    4.0010 C   0  0  0  0  0  0  0  0  0  0  0  0
    2.9500   -8.5702    4.2196 C   0  0  1  0  0  0  0  0  0  0  0  0
    3.1299   -9.2752    5.5856 C   0  0  0  0  0  0  0  0  0  0  0  0
    2.3923  -10.6403    5.5443 C   0  0  0  0  0  0  0  0  0  0  0  0
    2.6735  -11.4547    4.3163 N   0  0  2  0  0  0  0  0  0  0  0  0
    3.7972  -12.3934    4.5348 C   0  0  0  0  0  0  0  0  0  0  0  0
    3.2580   -7.0917    4.0987 C   0  0  1  0  0  0  0  0  0  0  0  0
    2.3313   -6.4242    4.9576 O   0  0  0  0  0  0  0  0  0  0  0  0
    4.7302   -6.7854    4.0045 C   0  0  0  0  0  0  0  0  0  0  0  0
    5.3405   -6.0353    4.7626 O   0  0  0  0  0  0  0  0  0  0  0  0
    8.3327   -5.4990    0.0038 H   0  0  0  0  0  0  0  0  0  0  0  0
    7.9608   -4.1747    1.1092 H   0  0  0  0  0  0  0  0  0  0  0  0
    6.7291   -4.7449   -0.0212 H   0  0  0  0  0  0  0  0  0  0  0  0
    7.8531   -6.4244    2.3356 H   0  0  0  0  0  0  0  0  0  0  0  0
    5.0761   -6.1401    1.0928 H   0  0  0  0  0  0  0  0  0  0  0  0
    6.2447   -8.0297    3.1992 H   0  0  0  0  0  0  0  0  0  0  0  0
    3.6546   -8.1430    1.5119 H   0  0  0  0  0  0  0  0  0  0  0  0
    4.9906   -9.2669    1.4949 H   0  0  0  0  0  0  0  0  0  0  0  0
    4.5961   -9.8612    3.7376 H   0  0  0  0  0  0  0  0  0  0  0  0
    3.2188  -11.3422    2.2786 H   0  0  0  0  0  0  0  0  0  0  0  0
    1.4564   -9.9262    1.5010 H   0  0  0  0  0  0  0  0  0  0  0  0
    0.7177  -11.1795    2.4845 H   0  0  0  0  0  0  0  0  0  0  0  0
   -1.4547   -9.5095    2.8691 H   0  0  0  0  0  0  0  0  0  0  0  0
   -2.1735   -7.5022    4.1680 H   0  0  0  0  0  0  0  0  0  0  0  0
    4.1860   -9.4287    5.8225 H   0  0  0  0  0  0  0  0  0  0  0  0
    2.7336   -8.6726    6.4049 H   0  0  0  0  0  0  0  0  0  0  0  0
    2.6496  -11.1930    6.4438 H   0  0  0  0  0  0  0  0  0  0  0  0
    1.3148  -10.4775    5.6195 H   0  0  0  0  0  0  0  0  0  0  0  0
    4.7155  -11.8539    4.7648 H   0  0  0  0  0  0  0  0  0  0  0  0
    3.9682  -13.0174    3.6573 H   0  0  0  0  0  0  0  0  0  0  0  0
    3.5787  -13.0539    5.3762 H   0  0  0  0  0  0  0  0  0  0  0  0
    2.9412   -6.7549    3.1079 H   0  0  0  0  0  0  0  0  0  0  0  0
    1.8724  -12.0572    4.2124 H   0  0  0  0  0  0  0  0  0  0  0  0
  1  2  1  0
  1 25  1  0
  1 26  1  0
  1 27  1  0
  2  3  2  3
  2 28  1  0
  3  4  1  0
  3 29  1  0
  4 23  1  0
  4  5  1  0
  4 30  1  1
  5  6  1  0
  5 31  1  0
  5 32  1  0
  6 16  1  0
  6  7  1  0
  6 33  1  1
  7 19  1  0
  7  8  1  0
  7 34  1  6
  8  9  1  0
  8 35  1  0
  8 36  1  0
  9 15  2  0
  9 10  1  0
 10 11  2  0
 10 37  1  0
 11 12  1  0
 11 38  1  0
 12 13  1  0
 12 14  2  0
 14 22  1  0
 14 15  1  0
 15 16  1  0
 16 17  1  1
 16 21  1  0
 17 18  1  0
 17 39  1  0
 17 40  1  0
 18 19  1  0
 18 41  1  0
 18 42  1  0
 19 20  1  0
 19 47  1  6
 20 43  1  0
 20 44  1  0
 20 45  1  0
 21 22  1  0
 21 23  1  0
 21 46  1  6
 23 24  2  0
M  CHG  2  13  -1  19   1
M  END
>  <i_m_ct_stereo_status>  (66) 
1

>  <s_m_source_file>  (66) 
/var/tmp/pbs.5076255.sched01/tmpgqtxr8g4/0xtbcsf6k.sdf

>  <i_m_source_file_index>  (66) 
22

>  <i_lp_mmshare_version>  (66) 
48012

>  <i_f3d_flags>  (66) 
0

>  <s_epik_input>  (66) 
W0NIM10vW0NIXT1bQ0hdL1tDQEhdKFtDSDJdMSlDKD1PKVtDQEBIXTJPYyhjKFtPSF0pW2NIXVtjSF0zKWM0YzNbQ0gyXVtDQEBIXShbQ0BASF0xW0NAQF0yNDUpTihbQ0gzXSlbQ0gyXVtDSDJdNQ==

>  <s_epik_cmdline>  (66) 
J2VwaWtfcHl0aG9uJywgJy1waHQnLCAnMi4wJywgJy1waCcsICc3LjAnLCAnLXRuJywgJzgnLCAnLW1hJywgJzIwMCcsICctaW1hZScsICc8aW5maWxlLm1hZT4nLCAnLW9tYWUnLCAnPG91dGZpbGUubWFlPic=

>  <r_epik_Ionization_Penalty>  (66) 
1.84905

>  <r_epik_Ionization_Penalty_Charging>  (66) 
1.84905

>  <r_epik_Ionization_Penalty_Neutral>  (66) 
2.11489e-10

>  <r_epik_State_Penalty>  (66) 
1.95967

>  <r_epik_Charging_Adjusted_Penalty>  (66) 
3.80872

>  <i_epik_Tot_Q>  (66) 
0

>  <i_epik_Tot_abs_Q>  (66) 
2

>  <s_lp_Force_Field>  (66) 
OPLS3e

>  <r_lp_Energy>  (66) 
83.6086

>  <b_lp_Chiralities_Consistent>  (66) 
1

>  <s_lp_Variant>  (66) 
13:0-5

>  <s_i_glide_gridfile>  (66) 
pfpi4k_grid

>  <i_i_glide_lignum>  (66) 
22

>  <i_i_glide_rotatable_bonds>  (66) 
1

>  <r_i_docking_score>  (66) 
-2.98843

>  <r_i_glide_ligand_efficiency>  (66) 
-0.124518

>  <r_i_glide_ligand_efficiency_sa>  (66) 
-0.359172

>  <r_i_glide_ligand_efficiency_ln>  (66) 
-0.715269

>  <r_i_glide_gscore>  (66) 
-2.98843

>  <r_i_glide_lipo>  (66) 
-0.433558

>  <r_i_glide_hbond>  (66) 
0

>  <r_i_glide_metal>  (66) 
-0

>  <r_i_glide_rewards>  (66) 
-1.19044

>  <r_i_glide_evdw>  (66) 
-17.2803

>  <r_i_glide_ecoul>  (66) 
-4.35526

>  <r_i_glide_erotb>  (66) 
0.176989

>  <r_i_glide_esite>  (66) 
-0.0241186

>  <r_i_glide_emodel>  (66) 
-30.2544

>  <r_i_glide_energy>  (66) 
-21.6355

>  <r_i_glide_einternal>  (66) 
0.0278089

>  <r_i_glide_intrahb_reward>  (66) 
-0

>  <i_i_glide_confnum>  (66) 
3

>  <i_i_glide_posenum>  (66) 
38

>  <r_i_glide_eff_state_penalty>  (66) 
0

>  <ligand_id>  (66) 
13

>  <original_smiles>  (66) 
CC=CC1CC2C3Cc4ccc(O)c5c4C2(CCN3C)C(O5)C1=O

>  <smiles>  (66) 
[H]C(=C([H])C1([H])C(=O)C2([H])Oc3c([O-])c([H])c([H])c4c3C23C([H])([H])C([H])([H])[N+]([H])(C([H])([H])[H])C([H])(C4([H])[H])C3([H])C1([H])[H])C([H])([H])[H]

$$$$
13:5:0
     RDKit          3D

 47 51  0  0  1  0  0  0  0  0999 V2000
    8.8786   -6.5093    3.3068 C   0  0  0  0  0  0  0  0  0  0  0  0
    8.1601   -7.2647    2.2066 C   0  0  0  0  0  0  0  0  0  0  0  0
    6.9730   -7.8882    2.2837 C   0  0  0  0  0  0  0  0  0  0  0  0
    6.0689   -7.9857    3.4982 C   0  0  2  0  0  0  0  0  0  0  0  0
    5.3174   -9.3833    3.5420 C   0  0  0  0  0  0  0  0  0  0  0  0
    4.1891   -9.3675    4.6070 C   0  0  2  0  0  0  0  0  0  0  0  0
    3.2988  -10.5661    5.0347 C   0  0  2  0  0  0  0  0  0  0  0  0
    2.2079  -10.9353    3.9921 C   0  0  0  0  0  0  0  0  0  0  0  0
    1.3439   -9.7717    3.5117 C   0  0  0  0  0  0  0  0  0  0  0  0
    0.0801   -9.7722    2.8916 C   0  0  0  0  0  0  0  0  0  0  0  0
   -0.4422   -8.5462    2.4047 C   0  0  0  0  0  0  0  0  0  0  0  0
    0.3099   -7.3478    2.4127 C   0  0  0  0  0  0  0  0  0  0  0  0
   -0.1749   -6.2763    1.7377 O   0  0  0  0  0  0  0  0  0  0  0  0
    1.5769   -7.3218    3.0375 C   0  0  0  0  0  0  0  0  0  0  0  0
    1.9636   -8.5264    3.6104 C   0  0  0  0  0  0  0  0  0  0  0  0
    3.2142   -8.2289    4.3487 C   0  0  1  0  0  0  0  0  0  0  0  0
    2.8195   -7.7525    5.7661 C   0  0  0  0  0  0  0  0  0  0  0  0
    2.0217   -8.8878    6.4681 C   0  0  0  0  0  0  0  0  0  0  0  0
    2.6534  -10.2467    6.3587 N   0  0  2  0  0  0  0  0  0  0  0  0
    3.5300  -10.5242    7.5164 C   0  0  0  0  0  0  0  0  0  0  0  0
    3.6791   -7.2154    3.3216 C   0  0  1  0  0  0  0  0  0  0  0  0
    2.5657   -6.3527    3.0861 O   0  0  0  0  0  0  0  0  0  0  0  0
    5.1072   -6.7667    3.5210 C   0  0  0  0  0  0  0  0  0  0  0  0
    5.4648   -5.5982    3.6630 O   0  0  0  0  0  0  0  0  0  0  0  0
    9.8219   -7.0030    3.5438 H   0  0  0  0  0  0  0  0  0  0  0  0
    8.2870   -6.4365    4.2176 H   0  0  0  0  0  0  0  0  0  0  0  0
    9.1028   -5.4970    2.9692 H   0  0  0  0  0  0  0  0  0  0  0  0
    8.6641   -7.2983    1.2551 H   0  0  0  0  0  0  0  0  0  0  0  0
    6.6089   -8.3697    1.3883 H   0  0  0  0  0  0  0  0  0  0  0  0
    6.6841   -7.8950    4.3916 H   0  0  0  0  0  0  0  0  0  0  0  0
    4.8963   -9.6328    2.5642 H   0  0  0  0  0  0  0  0  0  0  0  0
    6.0351  -10.1705    3.7733 H   0  0  0  0  0  0  0  0  0  0  0  0
    4.7947   -9.1331    5.4844 H   0  0  0  0  0  0  0  0  0  0  0  0
    3.9190  -11.4510    5.1663 H   0  0  0  0  0  0  0  0  0  0  0  0
    2.6986  -11.3562    3.1118 H   0  0  0  0  0  0  0  0  0  0  0  0
    1.5537  -11.7166    4.3801 H   0  0  0  0  0  0  0  0  0  0  0  0
   -0.4650  -10.6832    2.7490 H   0  0  0  0  0  0  0  0  0  0  0  0
   -1.4015   -8.5634    1.9224 H   0  0  0  0  0  0  0  0  0  0  0  0
    3.6989   -7.4824    6.3571 H   0  0  0  0  0  0  0  0  0  0  0  0
    2.2123   -6.8471    5.7262 H   0  0  0  0  0  0  0  0  0  0  0  0
    1.8579   -8.6240    7.5126 H   0  0  0  0  0  0  0  0  0  0  0  0
    1.0171   -8.9311    6.0453 H   0  0  0  0  0  0  0  0  0  0  0  0
    4.3488   -9.8073    7.5743 H   0  0  0  0  0  0  0  0  0  0  0  0
    3.9417  -11.5328    7.4631 H   0  0  0  0  0  0  0  0  0  0  0  0
    2.9588  -10.4549    8.4442 H   0  0  0  0  0  0  0  0  0  0  0  0
    3.7822   -7.7190    2.3572 H   0  0  0  0  0  0  0  0  0  0  0  0
    1.9098  -10.9228    6.4981 H   0  0  0  0  0  0  0  0  0  0  0  0
  1  2  1  0
  1 25  1  0
  1 26  1  0
  1 27  1  0
  2  3  2  3
  2 28  1  0
  3  4  1  0
  3 29  1  0
  4 23  1  0
  4  5  1  0
  4 30  1  1
  5  6  1  0
  5 31  1  0
  5 32  1  0
  6 16  1  0
  6  7  1  0
  6 33  1  1
  7 19  1  0
  7  8  1  0
  7 34  1  1
  8  9  1  0
  8 35  1  0
  8 36  1  0
  9 15  2  0
  9 10  1  0
 10 11  2  0
 10 37  1  0
 11 12  1  0
 11 38  1  0
 12 13  1  0
 12 14  2  0
 14 22  1  0
 14 15  1  0
 15 16  1  0
 16 17  1  1
 16 21  1  0
 17 18  1  0
 17 39  1  0
 17 40  1  0
 18 19  1  0
 18 41  1  0
 18 42  1  0
 19 20  1  0
 19 47  1  1
 20 43  1  0
 20 44  1  0
 20 45  1  0
 21 22  1  0
 21 23  1  0
 21 46  1  6
 23 24  2  0
M  CHG  2  13  -1  19   1
M  END
>  <i_m_ct_stereo_status>  (67) 
1

>  <s_m_source_file>  (67) 
/var/tmp/pbs.5076255.sched01/tmpgqtxr8g4/0xtbcsf6k.sdf

>  <i_m_source_file_index>  (67) 
23

>  <i_lp_mmshare_version>  (67) 
48012

>  <i_f3d_flags>  (67) 
0

>  <s_epik_input>  (67) 
W0NIM10vW0NIXT1bQ0hdL1tDQEhdKFtDSDJdMSlDKD1PKVtDQEBIXTJPYyhjKFtPSF0pW2NIXVtjSF0zKWM0YzNbQ0gyXVtDQEBIXShbQ0BASF0xW0NAQF0yNDUpTihbQ0gzXSlbQ0gyXVtDSDJdNQ==

>  <s_epik_cmdline>  (67) 
J2VwaWtfcHl0aG9uJywgJy1waHQnLCAnMi4wJywgJy1waCcsICc3LjAnLCAnLXRuJywgJzgnLCAnLW1hJywgJzIwMCcsICctaW1hZScsICc8aW5maWxlLm1hZT4nLCAnLW9tYWUnLCAnPG91dGZpbGUubWFlPic=

>  <r_epik_Ionization_Penalty>  (67) 
1.84905

>  <r_epik_Ionization_Penalty_Charging>  (67) 
1.84905

>  <r_epik_Ionization_Penalty_Neutral>  (67) 
2.11489e-10

>  <r_epik_State_Penalty>  (67) 
1.95967

>  <r_epik_Charging_Adjusted_Penalty>  (67) 
3.80872

>  <i_epik_Tot_Q>  (67) 
0

>  <i_epik_Tot_abs_Q>  (67) 
2

>  <s_lp_Force_Field>  (67) 
OPLS3e

>  <r_lp_Energy>  (67) 
83.4914

>  <b_lp_Chiralities_Consistent>  (67) 
1

>  <s_lp_Variant>  (67) 
13:0-6

>  <s_i_glide_gridfile>  (67) 
pfpi4k_grid

>  <i_i_glide_lignum>  (67) 
23

>  <i_i_glide_rotatable_bonds>  (67) 
1

>  <r_i_docking_score>  (67) 
-4.06896

>  <r_i_glide_ligand_efficiency>  (67) 
-0.16954

>  <r_i_glide_ligand_efficiency_sa>  (67) 
-0.489037

>  <r_i_glide_ligand_efficiency_ln>  (67) 
-0.973888

>  <r_i_glide_gscore>  (67) 
-4.06896

>  <r_i_glide_lipo>  (67) 
-0.0723859

>  <r_i_glide_hbond>  (67) 
-0.534138

>  <r_i_glide_metal>  (67) 
-0

>  <r_i_glide_rewards>  (67) 
-1.81875

>  <r_i_glide_evdw>  (67) 
-15.0145

>  <r_i_glide_ecoul>  (67) 
-6.48863

>  <r_i_glide_erotb>  (67) 
0.176989

>  <r_i_glide_esite>  (67) 
-0.096653

>  <r_i_glide_emodel>  (67) 
-33.5912

>  <r_i_glide_energy>  (67) 
-21.5031

>  <r_i_glide_einternal>  (67) 
0.231321

>  <r_i_glide_intrahb_reward>  (67) 
-0

>  <i_i_glide_confnum>  (67) 
3

>  <i_i_glide_posenum>  (67) 
1

>  <r_i_glide_eff_state_penalty>  (67) 
0

>  <ligand_id>  (67) 
13

>  <original_smiles>  (67) 
CC=CC1CC2C3Cc4ccc(O)c5c4C2(CCN3C)C(O5)C1=O

>  <smiles>  (67) 
[H]C(=C([H])C1([H])C(=O)C2([H])Oc3c([O-])c([H])c([H])c4c3C23C([H])([H])C([H])([H])[N+]([H])(C([H])([H])[H])C([H])(C4([H])[H])C3([H])C1([H])[H])C([H])([H])[H]

$$$$
13:5:1
     RDKit          3D

 47 51  0  0  1  0  0  0  0  0999 V2000
    8.0041   -7.2517    1.7711 C   0  0  0  0  0  0  0  0  0  0  0  0
    7.3816   -8.5257    1.2368 C   0  0  0  0  0  0  0  0  0  0  0  0
    6.3341   -9.2014    1.7395 C   0  0  0  0  0  0  0  0  0  0  0  0
    5.5051   -8.8633    2.9725 C   0  0  2  0  0  0  0  0  0  0  0  0
    4.5174  -10.0669    3.3250 C   0  0  0  0  0  0  0  0  0  0  0  0
    3.4899   -9.6295    4.3991 C   0  0  2  0  0  0  0  0  0  0  0  0
    2.4161  -10.5148    5.0803 C   0  0  2  0  0  0  0  0  0  0  0  0
    1.2022  -10.8410    4.1740 C   0  0  0  0  0  0  0  0  0  0  0  0
    0.5520   -9.6497    3.4881 C   0  0  0  0  0  0  0  0  0  0  0  0
   -0.7204   -9.4900    2.9046 C   0  0  0  0  0  0  0  0  0  0  0  0
   -1.0239   -8.3058    2.2023 C   0  0  0  0  0  0  0  0  0  0  0  0
   -0.0533   -7.3069    1.9737 C   0  0  0  0  0  0  0  0  0  0  0  0
   -0.3131   -6.2566    1.1338 O   0  0  0  0  0  0  0  0  0  0  0  0
    1.2208   -7.4283    2.5418 C   0  0  0  0  0  0  0  0  0  0  0  0
    1.3992   -8.5520    3.3224 C   0  0  0  0  0  0  0  0  0  0  0  0
    2.7324   -8.3920    3.9530 C   0  0  1  0  0  0  0  0  0  0  0  0
    2.5463   -7.5770    5.2479 C   0  0  0  0  0  0  0  0  0  0  0  0
    1.5962   -8.3634    6.1842 C   0  0  0  0  0  0  0  0  0  0  0  0
    1.9485   -9.8139    6.3281 N   0  0  2  0  0  0  0  0  0  0  0  0
    2.8278  -10.0232    7.4948 C   0  0  0  0  0  0  0  0  0  0  0  0
    3.2827   -7.7326    2.7135 C   0  0  1  0  0  0  0  0  0  0  0  0
    2.3702   -6.7024    2.3586 O   0  0  0  0  0  0  0  0  0  0  0  0
    4.7410   -7.5076    2.7901 C   0  0  0  0  0  0  0  0  0  0  0  0
    5.2165   -6.3779    2.7144 O   0  0  0  0  0  0  0  0  0  0  0  0
    9.0187   -7.4299    2.0719 H   0  0  0  0  0  0  0  0  0  0  0  0
    7.5900   -6.8894    2.7027 H   0  0  0  0  0  0  0  0  0  0  0  0
    7.9797   -6.4693    1.0092 H   0  0  0  0  0  0  0  0  0  0  0  0
    7.8439   -8.9144    0.3411 H   0  0  0  0  0  0  0  0  0  0  0  0
    6.0418  -10.1025    1.2163 H   0  0  0  0  0  0  0  0  0  0  0  0
    6.2051   -8.7435    3.7976 H   0  0  0  0  0  0  0  0  0  0  0  0
    3.9918  -10.4136    2.4329 H   0  0  0  0  0  0  0  0  0  0  0  0
    5.0835  -10.9268    3.6810 H   0  0  0  0  0  0  0  0  0  0  0  0
    4.1880   -9.3639    5.1916 H   0  0  0  0  0  0  0  0  0  0  0  0
    2.8505  -11.4627    5.3785 H   0  0  0  0  0  0  0  0  0  0  0  0
    1.5339  -11.5170    3.3877 H   0  0  0  0  0  0  0  0  0  0  0  0
    0.4332  -11.3802    4.7244 H   0  0  0  0  0  0  0  0  0  0  0  0
   -1.4725  -10.2676    2.9952 H   0  0  0  0  0  0  0  0  0  0  0  0
   -2.0053   -8.2211    1.7731 H   0  0  0  0  0  0  0  0  0  0  0  0
    3.4926   -7.3851    5.7469 H   0  0  0  0  0  0  0  0  0  0  0  0
    2.1318   -6.5914    5.0508 H   0  0  0  0  0  0  0  0  0  0  0  0
    1.5571   -7.8833    7.1572 H   0  0  0  0  0  0  0  0  0  0  0  0
    0.5776   -8.2794    5.8196 H   0  0  0  0  0  0  0  0  0  0  0  0
    3.7719   -9.4973    7.3849 H   0  0  0  0  0  0  0  0  0  0  0  0
    3.0571  -11.0711    7.6351 H   0  0  0  0  0  0  0  0  0  0  0  0
    2.3506   -9.6787    8.4130 H   0  0  0  0  0  0  0  0  0  0  0  0
    3.2337   -8.4132    1.8617 H   0  0  0  0  0  0  0  0  0  0  0  0
    1.1055  -10.3126    6.5928 H   0  0  0  0  0  0  0  0  0  0  0  0
  1  2  1  0
  1 25  1  0
  1 26  1  0
  1 27  1  0
  2  3  2  3
  2 28  1  0
  3  4  1  0
  3 29  1  0
  4 23  1  0
  4  5  1  0
  4 30  1  1
  5  6  1  0
  5 31  1  0
  5 32  1  0
  6 16  1  0
  6  7  1  0
  6 33  1  1
  7 19  1  0
  7  8  1  0
  7 34  1  1
  8  9  1  0
  8 35  1  0
  8 36  1  0
  9 15  2  0
  9 10  1  0
 10 11  2  0
 10 37  1  0
 11 12  1  0
 11 38  1  0
 12 13  1  0
 12 14  2  0
 14 22  1  0
 14 15  1  0
 15 16  1  0
 16 17  1  1
 16 21  1  0
 17 18  1  0
 17 39  1  0
 17 40  1  0
 18 19  1  0
 18 41  1  0
 18 42  1  0
 19 20  1  0
 19 47  1  1
 20 43  1  0
 20 44  1  0
 20 45  1  0
 21 22  1  0
 21 23  1  0
 21 46  1  6
 23 24  2  0
M  CHG  2  13  -1  19   1
M  END
>  <i_m_ct_stereo_status>  (68) 
1

>  <s_m_source_file>  (68) 
/var/tmp/pbs.5076255.sched01/tmpgqtxr8g4/0xtbcsf6k.sdf

>  <i_m_source_file_index>  (68) 
23

>  <i_lp_mmshare_version>  (68) 
48012

>  <i_f3d_flags>  (68) 
0

>  <s_epik_input>  (68) 
W0NIM10vW0NIXT1bQ0hdL1tDQEhdKFtDSDJdMSlDKD1PKVtDQEBIXTJPYyhjKFtPSF0pW2NIXVtjSF0zKWM0YzNbQ0gyXVtDQEBIXShbQ0BASF0xW0NAQF0yNDUpTihbQ0gzXSlbQ0gyXVtDSDJdNQ==

>  <s_epik_cmdline>  (68) 
J2VwaWtfcHl0aG9uJywgJy1waHQnLCAnMi4wJywgJy1waCcsICc3LjAnLCAnLXRuJywgJzgnLCAnLW1hJywgJzIwMCcsICctaW1hZScsICc8aW5maWxlLm1hZT4nLCAnLW9tYWUnLCAnPG91dGZpbGUubWFlPic=

>  <r_epik_Ionization_Penalty>  (68) 
1.84905

>  <r_epik_Ionization_Penalty_Charging>  (68) 
1.84905

>  <r_epik_Ionization_Penalty_Neutral>  (68) 
2.11489e-10

>  <r_epik_State_Penalty>  (68) 
1.95967

>  <r_epik_Charging_Adjusted_Penalty>  (68) 
3.80872

>  <i_epik_Tot_Q>  (68) 
0

>  <i_epik_Tot_abs_Q>  (68) 
2

>  <s_lp_Force_Field>  (68) 
OPLS3e

>  <r_lp_Energy>  (68) 
83.4914

>  <b_lp_Chiralities_Consistent>  (68) 
1

>  <s_lp_Variant>  (68) 
13:0-6

>  <s_i_glide_gridfile>  (68) 
pfpi4k_grid

>  <i_i_glide_lignum>  (68) 
23

>  <i_i_glide_rotatable_bonds>  (68) 
1

>  <r_i_docking_score>  (68) 
-3.99437

>  <r_i_glide_ligand_efficiency>  (68) 
-0.166432

>  <r_i_glide_ligand_efficiency_sa>  (68) 
-0.480074

>  <r_i_glide_ligand_efficiency_ln>  (68) 
-0.956037

>  <r_i_glide_gscore>  (68) 
-3.99437

>  <r_i_glide_lipo>  (68) 
-0.171466

>  <r_i_glide_hbond>  (68) 
-0.386889

>  <r_i_glide_metal>  (68) 
-0

>  <r_i_glide_rewards>  (68) 
-1.8215

>  <r_i_glide_evdw>  (68) 
-15.7462

>  <r_i_glide_ecoul>  (68) 
-6.08848

>  <r_i_glide_erotb>  (68) 
0.176989

>  <r_i_glide_esite>  (68) 
-0.0909294

>  <r_i_glide_emodel>  (68) 
-31.9137

>  <r_i_glide_energy>  (68) 
-21.8347

>  <r_i_glide_einternal>  (68) 
2.49168

>  <r_i_glide_intrahb_reward>  (68) 
-0

>  <i_i_glide_confnum>  (68) 
3

>  <i_i_glide_posenum>  (68) 
14

>  <r_i_glide_eff_state_penalty>  (68) 
0

>  <ligand_id>  (68) 
13

>  <original_smiles>  (68) 
CC=CC1CC2C3Cc4ccc(O)c5c4C2(CCN3C)C(O5)C1=O

>  <smiles>  (68) 
[H]C(=C([H])C1([H])C(=O)C2([H])Oc3c([O-])c([H])c([H])c4c3C23C([H])([H])C([H])([H])[N+]([H])(C([H])([H])[H])C([H])(C4([H])[H])C3([H])C1([H])[H])C([H])([H])[H]

$$$$
13:5:2
     RDKit          3D

 47 51  0  0  1  0  0  0  0  0999 V2000
    8.0446   -6.2234    1.9644 C   0  0  0  0  0  0  0  0  0  0  0  0
    6.8837   -6.2890    0.9935 C   0  0  0  0  0  0  0  0  0  0  0  0
    5.7258   -6.9568    1.1543 C   0  0  0  0  0  0  0  0  0  0  0  0
    5.3177   -7.8230    2.3373 C   0  0  2  0  0  0  0  0  0  0  0  0
    4.2227   -8.8978    1.9117 C   0  0  0  0  0  0  0  0  0  0  0  0
    3.6010   -9.5747    3.1615 C   0  0  2  0  0  0  0  0  0  0  0  0
    2.5785  -10.7442    3.1769 C   0  0  2  0  0  0  0  0  0  0  0  0
    1.1337  -10.3124    2.7914 C   0  0  0  0  0  0  0  0  0  0  0  0
    0.5785   -9.1003    3.5359 C   0  0  0  0  0  0  0  0  0  0  0  0
   -0.7460   -8.6551    3.7053 C   0  0  0  0  0  0  0  0  0  0  0  0
   -0.9857   -7.4087    4.3411 C   0  0  0  0  0  0  0  0  0  0  0  0
    0.0780   -6.5497    4.7366 C   0  0  0  0  0  0  0  0  0  0  0  0
   -0.1847   -5.3241    5.2821 O   0  0  0  0  0  0  0  0  0  0  0  0
    1.4116   -6.9590    4.5431 C   0  0  0  0  0  0  0  0  0  0  0  0
    1.5636   -8.2463    4.0349 C   0  0  0  0  0  0  0  0  0  0  0  0
    3.0174   -8.5375    4.1117 C   0  0  1  0  0  0  0  0  0  0  0  0
    3.3176   -9.1135    5.5179 C   0  0  0  0  0  0  0  0  0  0  0  0
    2.4990  -10.4205    5.7070 C   0  0  0  0  0  0  0  0  0  0  0  0
    2.5826  -11.3696    4.5497 N   0  0  2  0  0  0  0  0  0  0  0  0
    3.6640  -12.3617    4.7426 C   0  0  0  0  0  0  0  0  0  0  0  0
    3.3939   -7.1047    3.7960 C   0  0  1  0  0  0  0  0  0  0  0  0
    2.6173   -6.2885    4.6748 O   0  0  0  0  0  0  0  0  0  0  0  0
    4.8604   -6.9191    3.5174 C   0  0  0  0  0  0  0  0  0  0  0  0
    5.5868   -6.1376    4.1261 O   0  0  0  0  0  0  0  0  0  0  0  0
    8.9370   -6.6559    1.5125 H   0  0  0  0  0  0  0  0  0  0  0  0
    7.8449   -6.7563    2.8929 H   0  0  0  0  0  0  0  0  0  0  0  0
    8.2597   -5.1829    2.2108 H   0  0  0  0  0  0  0  0  0  0  0  0
    7.0205   -5.7281    0.0815 H   0  0  0  0  0  0  0  0  0  0  0  0
    4.9945   -6.8807    0.3623 H   0  0  0  0  0  0  0  0  0  0  0  0
    6.2038   -8.3531    2.6899 H   0  0  0  0  0  0  0  0  0  0  0  0
    3.4297   -8.4370    1.3162 H   0  0  0  0  0  0  0  0  0  0  0  0
    4.6780   -9.6543    1.2693 H   0  0  0  0  0  0  0  0  0  0  0  0
    4.5133   -9.9894    3.5913 H   0  0  0  0  0  0  0  0  0  0  0  0
    2.8969  -11.5110    2.4667 H   0  0  0  0  0  0  0  0  0  0  0  0
    1.1306  -10.0613    1.7311 H   0  0  0  0  0  0  0  0  0  0  0  0
    0.4443  -11.1492    2.9051 H   0  0  0  0  0  0  0  0  0  0  0  0
   -1.5626   -9.2768    3.3670 H   0  0  0  0  0  0  0  0  0  0  0  0
   -2.0019   -7.0979    4.5040 H   0  0  0  0  0  0  0  0  0  0  0  0
    4.3839   -9.3173    5.6467 H   0  0  0  0  0  0  0  0  0  0  0  0
    3.0592   -8.4031    6.3036 H   0  0  0  0  0  0  0  0  0  0  0  0
    2.8168  -10.9130    6.6272 H   0  0  0  0  0  0  0  0  0  0  0  0
    1.4499  -10.1703    5.8800 H   0  0  0  0  0  0  0  0  0  0  0  0
    4.6360  -11.8700    4.8087 H   0  0  0  0  0  0  0  0  0  0  0  0
    3.6943  -13.0772    3.9207 H   0  0  0  0  0  0  0  0  0  0  0  0
    3.5049  -12.9176    5.6700 H   0  0  0  0  0  0  0  0  0  0  0  0
    2.9888   -6.8491    2.8133 H   0  0  0  0  0  0  0  0  0  0  0  0
    1.7369  -11.9197    4.6094 H   0  0  0  0  0  0  0  0  0  0  0  0
  1  2  1  0
  1 25  1  0
  1 26  1  0
  1 27  1  0
  2  3  2  3
  2 28  1  0
  3  4  1  0
  3 29  1  0
  4 23  1  0
  4  5  1  0
  4 30  1  1
  5  6  1  0
  5 31  1  0
  5 32  1  0
  6 16  1  0
  6  7  1  0
  6 33  1  1
  7 19  1  0
  7  8  1  0
  7 34  1  6
  8  9  1  0
  8 35  1  0
  8 36  1  0
  9 15  2  0
  9 10  1  0
 10 11  2  0
 10 37  1  0
 11 12  1  0
 11 38  1  0
 12 13  1  0
 12 14  2  0
 14 22  1  0
 14 15  1  0
 15 16  1  0
 16 17  1  1
 16 21  1  0
 17 18  1  0
 17 39  1  0
 17 40  1  0
 18 19  1  0
 18 41  1  0
 18 42  1  0
 19 20  1  0
 19 47  1  6
 20 43  1  0
 20 44  1  0
 20 45  1  0
 21 22  1  0
 21 23  1  0
 21 46  1  6
 23 24  2  0
M  CHG  2  13  -1  19   1
M  END
>  <i_m_ct_stereo_status>  (69) 
1

>  <s_m_source_file>  (69) 
/var/tmp/pbs.5076255.sched01/tmpgqtxr8g4/0xtbcsf6k.sdf

>  <i_m_source_file_index>  (69) 
23

>  <i_lp_mmshare_version>  (69) 
48012

>  <i_f3d_flags>  (69) 
0

>  <s_epik_input>  (69) 
W0NIM10vW0NIXT1bQ0hdL1tDQEhdKFtDSDJdMSlDKD1PKVtDQEBIXTJPYyhjKFtPSF0pW2NIXVtjSF0zKWM0YzNbQ0gyXVtDQEBIXShbQ0BASF0xW0NAQF0yNDUpTihbQ0gzXSlbQ0gyXVtDSDJdNQ==

>  <s_epik_cmdline>  (69) 
J2VwaWtfcHl0aG9uJywgJy1waHQnLCAnMi4wJywgJy1waCcsICc3LjAnLCAnLXRuJywgJzgnLCAnLW1hJywgJzIwMCcsICctaW1hZScsICc8aW5maWxlLm1hZT4nLCAnLW9tYWUnLCAnPG91dGZpbGUubWFlPic=

>  <r_epik_Ionization_Penalty>  (69) 
1.84905

>  <r_epik_Ionization_Penalty_Charging>  (69) 
1.84905

>  <r_epik_Ionization_Penalty_Neutral>  (69) 
2.11489e-10

>  <r_epik_State_Penalty>  (69) 
1.95967

>  <r_epik_Charging_Adjusted_Penalty>  (69) 
3.80872

>  <i_epik_Tot_Q>  (69) 
0

>  <i_epik_Tot_abs_Q>  (69) 
2

>  <s_lp_Force_Field>  (69) 
OPLS3e

>  <r_lp_Energy>  (69) 
83.4914

>  <b_lp_Chiralities_Consistent>  (69) 
1

>  <s_lp_Variant>  (69) 
13:0-6

>  <s_i_glide_gridfile>  (69) 
pfpi4k_grid

>  <i_i_glide_lignum>  (69) 
23

>  <i_i_glide_rotatable_bonds>  (69) 
1

>  <r_i_docking_score>  (69) 
-3.19772

>  <r_i_glide_ligand_efficiency>  (69) 
-0.133238

>  <r_i_glide_ligand_efficiency_sa>  (69) 
-0.384325

>  <r_i_glide_ligand_efficiency_ln>  (69) 
-0.76536

>  <r_i_glide_gscore>  (69) 
-3.19772

>  <r_i_glide_lipo>  (69) 
-0.323699

>  <r_i_glide_hbond>  (69) 
0

>  <r_i_glide_metal>  (69) 
-0

>  <r_i_glide_rewards>  (69) 
-1.49044

>  <r_i_glide_evdw>  (69) 
-18.2516

>  <r_i_glide_ecoul>  (69) 
-4.06872

>  <r_i_glide_erotb>  (69) 
0.176989

>  <r_i_glide_esite>  (69) 
-0.0376748

>  <r_i_glide_emodel>  (69) 
-31.4324

>  <r_i_glide_energy>  (69) 
-22.3203

>  <r_i_glide_einternal>  (69) 
0.812849

>  <r_i_glide_intrahb_reward>  (69) 
-0

>  <i_i_glide_confnum>  (69) 
3

>  <i_i_glide_posenum>  (69) 
31

>  <r_i_glide_eff_state_penalty>  (69) 
0

>  <ligand_id>  (69) 
13

>  <original_smiles>  (69) 
CC=CC1CC2C3Cc4ccc(O)c5c4C2(CCN3C)C(O5)C1=O

>  <smiles>  (69) 
[H]C(=C([H])C1([H])C(=O)C2([H])Oc3c([O-])c([H])c([H])c4c3C23C([H])([H])C([H])([H])[N+]([H])(C([H])([H])[H])C([H])(C4([H])[H])C3([H])C1([H])[H])C([H])([H])[H]

$$$$
14:0:0
     RDKit          3D

 55 58  0  0  1  0  0  0  0  0999 V2000
    4.3178   -1.0911   -1.1536 C   0  0  0  0  0  0  0  0  0  0  0  0
    5.1816   -1.9996   -0.6495 C   0  0  0  0  0  0  0  0  0  0  0  0
    6.0452   -1.6185    0.5109 C   0  0  0  0  0  0  0  0  0  0  0  0
    5.9313   -0.5389    1.1053 O   0  0  0  0  0  0  0  0  0  0  0  0
    6.9883   -2.5194    0.9088 O   0  0  0  0  0  0  0  0  0  0  0  0
    7.0674   -3.7827    0.2876 C   0  0  2  0  0  0  0  0  0  0  0  0
    8.3451   -4.3220    0.5392 O   0  0  0  0  0  0  0  0  0  0  0  0
    8.4646   -5.7150    0.8305 C   0  0  0  0  0  0  0  0  0  0  0  0
    6.8173   -3.6606   -1.0835 O   0  0  0  0  0  0  0  0  0  0  0  0
    5.4266   -3.4024   -1.2092 C   0  0  2  0  0  0  0  0  0  0  0  0
    5.0179   -3.5749   -2.6816 C   0  0  0  0  0  0  0  0  0  0  0  0
    4.8572   -4.5337   -0.2915 C   0  0  2  0  0  0  0  0  0  0  0  0
    3.3968   -4.3677    0.2315 C   0  0  0  0  0  0  0  0  0  0  0  0
    3.0587   -4.9897    1.6246 C   0  0  1  0  0  0  0  0  0  0  0  0
    2.3431   -3.9597    2.5290 C   0  0  0  0  0  0  0  0  0  0  0  0
    2.1726   -6.2350    1.5747 C   0  0  0  0  0  0  0  0  0  0  0  0
    1.1115   -6.3046    0.9637 O   0  0  0  0  0  0  0  0  0  0  0  0
    2.7755   -7.3554    2.4510 C   0  0  1  0  0  0  0  0  0  0  0  0
    1.9308   -7.5922    3.5521 O   0  0  0  0  0  0  0  0  0  0  0  0
    2.8940   -8.6753    1.6481 C   0  0  0  0  0  0  0  0  0  0  0  0
    4.0552   -8.7579    0.6038 C   0  0  0  0  0  0  0  0  0  0  0  0
    5.4152   -9.1368    1.1557 C   0  0  0  0  0  0  0  0  0  0  0  0
    4.1125   -6.7609    2.8875 C   0  0  0  0  0  0  0  0  0  0  0  0
    5.0705   -7.5451    3.7914 C   0  0  0  0  0  0  0  0  0  0  0  0
    4.2758   -5.5242    2.3544 C   0  0  0  0  0  0  0  0  0  0  0  0
    5.5041   -4.6518    2.2567 C   0  0  0  0  0  0  0  0  0  0  0  0
    5.9269   -4.7231    0.7707 C   0  0  2  0  0  0  0  0  0  0  0  0
    3.6899   -1.3105   -1.9873 H   0  0  0  0  0  0  0  0  0  0  0  0
    4.2242   -0.1065   -0.7250 H   0  0  0  0  0  0  0  0  0  0  0  0
    9.4746   -5.9972    1.0207 H   0  0  0  0  0  0  0  0  0  0  0  0
    8.0843   -6.3106   -0.0068 H   0  0  0  0  0  0  0  0  0  0  0  0
    7.8925   -5.9817    1.7285 H   0  0  0  0  0  0  0  0  0  0  0  0
    3.9387   -3.5029   -2.8149 H   0  0  0  0  0  0  0  0  0  0  0  0
    5.3133   -4.5526   -3.0621 H   0  0  0  0  0  0  0  0  0  0  0  0
    5.4876   -2.8287   -3.3150 H   0  0  0  0  0  0  0  0  0  0  0  0
    4.8758   -5.4472   -0.8792 H   0  0  0  0  0  0  0  0  0  0  0  0
    3.2187   -3.3078    0.3425 H   0  0  0  0  0  0  0  0  0  0  0  0
    2.7021   -4.6899   -0.5572 H   0  0  0  0  0  0  0  0  0  0  0  0
    2.0913   -4.3755    3.5051 H   0  0  0  0  0  0  0  0  0  0  0  0
    1.4160   -3.6090    2.0818 H   0  0  0  0  0  0  0  0  0  0  0  0
    2.9678   -3.0857    2.7060 H   0  0  0  0  0  0  0  0  0  0  0  0
    2.2616   -8.3387    4.0260 H   0  0  0  0  0  0  0  0  0  0  0  0
    2.9760   -9.5181    2.3366 H   0  0  0  0  0  0  0  0  0  0  0  0
    1.9455   -8.8470    1.1162 H   0  0  0  0  0  0  0  0  0  0  0  0
    3.7918   -9.5254   -0.1413 H   0  0  0  0  0  0  0  0  0  0  0  0
    4.1370   -7.8106    0.0654 H   0  0  0  0  0  0  0  0  0  0  0  0
    6.1766   -9.2525    0.4237 H   0  0  0  0  0  0  0  0  0  0  0  0
    5.3624  -10.0209    1.7880 H   0  0  0  0  0  0  0  0  0  0  0  0
    5.8238   -8.2834    1.6943 H   0  0  0  0  0  0  0  0  0  0  0  0
    4.6575   -7.7219    4.7510 H   0  0  0  0  0  0  0  0  0  0  0  0
    6.0398   -7.0866    3.8463 H   0  0  0  0  0  0  0  0  0  0  0  0
    5.2281   -8.5846    3.4774 H   0  0  0  0  0  0  0  0  0  0  0  0
    5.2646   -3.6203    2.5442 H   0  0  0  0  0  0  0  0  0  0  0  0
    6.3043   -4.9730    2.9166 H   0  0  0  0  0  0  0  0  0  0  0  0
    6.1921   -5.7595    0.6088 H   0  0  0  0  0  0  0  0  0  0  0  0
  1  2  2  0
  1 28  1  0
  1 29  1  0
  2 10  1  0
  2  3  1  0
  3  4  2  0
  3  5  1  0
  5  6  1  0
  6 27  1  0
  6  7  1  6
  6  9  1  0
  7  8  1  0
  8 30  1  0
  8 31  1  0
  8 32  1  0
  9 10  1  0
 10 11  1  6
 10 12  1  0
 11 33  1  0
 11 34  1  0
 11 35  1  0
 12 27  1  0
 12 13  1  0
 12 36  1  6
 13 14  1  0
 13 37  1  0
 13 38  1  0
 14 25  1  0
 14 15  1  1
 14 16  1  0
 15 39  1  0
 15 40  1  0
 15 41  1  0
 16 17  2  0
 16 18  1  0
 18 19  1  1
 18 20  1  0
 18 23  1  0
 19 42  1  0
 20 21  1  0
 20 43  1  0
 20 44  1  0
 21 22  1  0
 21 45  1  0
 21 46  1  0
 22 47  1  0
 22 48  1  0
 22 49  1  0
 23 24  1  0
 23 25  2  0
 24 50  1  0
 24 51  1  0
 24 52  1  0
 25 26  1  0
 26 27  1  0
 26 53  1  0
 26 54  1  0
 27 55  1  6
M  END
>  <i_m_ct_stereo_status>  (70) 
1

>  <s_m_source_file>  (70) 
/var/tmp/pbs.5076255.sched01/tmpgqtxr8g4/0xtbcsf6k.sdf

>  <i_m_source_file_index>  (70) 
24

>  <i_lp_mmshare_version>  (70) 
48012

>  <i_f3d_flags>  (70) 
0

>  <s_epik_input>  (70) 
Tz1DKE8xKUMoPVtDSDJdKVtDQF0oTzIpKFtDSDNdKVtDQEBIXShbQ0BIXTNbQ0BdMTJPW0NIM10pW0NIMl1bQ0BdNChbQ0gzXSlDKFtDSDJdMyk9QyhbQ0gzXSlbQ0BdKEM0PU8pKFtPSF0pW0NIMl1bQ0gyXVtDSDNd

>  <s_epik_cmdline>  (70) 
J2VwaWtfcHl0aG9uJywgJy1waHQnLCAnMi4wJywgJy1waCcsICc3LjAnLCAnLXRuJywgJzgnLCAnLW1hJywgJzIwMCcsICctaW1hZScsICc8aW5maWxlLm1hZT4nLCAnLW9tYWUnLCAnPG91dGZpbGUubWFlPic=

>  <r_lp_tautomer_probability>  (70) 
1

>  <r_epik_Ionization_Penalty>  (70) 
1.75729e-08

>  <r_epik_Ionization_Penalty_Charging>  (70) 
0

>  <r_epik_Ionization_Penalty_Neutral>  (70) 
1.75729e-08

>  <r_epik_State_Penalty>  (70) 
-0

>  <r_epik_Charging_Adjusted_Penalty>  (70) 
0

>  <i_epik_Tot_Q>  (70) 
0

>  <i_epik_Tot_abs_Q>  (70) 
0

>  <s_epik_Chemistry_Notes>  (70) 
This compound has an ester and may undergo hydrolysis at high or low pH.

>  <s_lp_Force_Field>  (70) 
OPLS3e

>  <r_lp_Energy>  (70) 
25.8211

>  <b_lp_Chiralities_Consistent>  (70) 
1

>  <s_lp_Variant>  (70) 
14:0-1

>  <s_i_glide_gridfile>  (70) 
pfpi4k_grid

>  <i_i_glide_lignum>  (70) 
24

>  <i_i_glide_rotatable_bonds>  (70) 
4

>  <r_i_docking_score>  (70) 
-3.41515

>  <r_i_glide_ligand_efficiency>  (70) 
-0.126487

>  <r_i_glide_ligand_efficiency_sa>  (70) 
-0.379461

>  <r_i_glide_ligand_efficiency_ln>  (70) 
-0.794991

>  <r_i_glide_gscore>  (70) 
-3.41515

>  <r_i_glide_lipo>  (70) 
-0.334343

>  <r_i_glide_hbond>  (70) 
-0.152512

>  <r_i_glide_metal>  (70) 
-0

>  <r_i_glide_rewards>  (70) 
-1.1659

>  <r_i_glide_evdw>  (70) 
-26.1922

>  <r_i_glide_ecoul>  (70) 
-3.78426

>  <r_i_glide_erotb>  (70) 
0.136601

>  <r_i_glide_esite>  (70) 
-0.0217488

>  <r_i_glide_emodel>  (70) 
-22.1955

>  <r_i_glide_energy>  (70) 
-29.9765

>  <r_i_glide_einternal>  (70) 
24.977

>  <r_i_glide_intrahb_reward>  (70) 
-0

>  <i_i_glide_confnum>  (70) 
2

>  <i_i_glide_posenum>  (70) 
18

>  <r_i_glide_eff_state_penalty>  (70) 
0

>  <ligand_id>  (70) 
14

>  <original_smiles>  (70) 
C=C1C(=O)OC2(OC)OC1(C)C1CC3(C)C(=O)C(O)(CCC)C(C)=C3CC12

>  <smiles>  (70) 
[H]OC1(C([H])([H])C([H])([H])C([H])([H])[H])C(=O)C2(C([H])([H])[H])C(=C1C([H])([H])[H])C([H])([H])C1([H])C3(OC([H])([H])[H])OC(=O)C(=C([H])[H])C(C([H])([H])[H])(O3)C1([H])C2([H])[H]

$$$$
14:0:1
     RDKit          3D

 55 58  0  0  1  0  0  0  0  0999 V2000
    3.7608   -1.2339   -0.6413 C   0  0  0  0  0  0  0  0  0  0  0  0
    4.7185   -2.0580   -0.2120 C   0  0  0  0  0  0  0  0  0  0  0  0
    5.5455   -1.6138    0.9588 C   0  0  0  0  0  0  0  0  0  0  0  0
    5.3470   -0.5755    1.5824 O   0  0  0  0  0  0  0  0  0  0  0  0
    6.5866   -2.4413    1.3016 O   0  0  0  0  0  0  0  0  0  0  0  0
    6.8191   -3.6260    0.5881 C   0  0  2  0  0  0  0  0  0  0  0  0
    8.1329   -4.0624    0.7752 O   0  0  0  0  0  0  0  0  0  0  0  0
    9.1262   -3.1271    0.3635 C   0  0  0  0  0  0  0  0  0  0  0  0
    6.5270   -3.4671   -0.7730 O   0  0  0  0  0  0  0  0  0  0  0  0
    5.1166   -3.3934   -0.8509 C   0  0  2  0  0  0  0  0  0  0  0  0
    4.6843   -3.5210   -2.3219 C   0  0  0  0  0  0  0  0  0  0  0  0
    4.7140   -4.6321    0.0033 C   0  0  2  0  0  0  0  0  0  0  0  0
    3.2545   -4.6400    0.5673 C   0  0  0  0  0  0  0  0  0  0  0  0
    3.0103   -5.3743    1.9273 C   0  0  1  0  0  0  0  0  0  0  0  0
    2.1953   -4.4845    2.8947 C   0  0  0  0  0  0  0  0  0  0  0  0
    2.2815   -6.7075    1.8358 C   0  0  0  0  0  0  0  0  0  0  0  0
    1.2065   -6.8671    1.2277 O   0  0  0  0  0  0  0  0  0  0  0  0
    3.0159   -7.8006    2.6293 C   0  0  1  0  0  0  0  0  0  0  0  0
    2.2253   -8.1975    3.7299 O   0  0  0  0  0  0  0  0  0  0  0  0
    3.2658   -9.0612    1.7478 C   0  0  0  0  0  0  0  0  0  0  0  0
    4.3725   -8.9356    0.6451 C   0  0  0  0  0  0  0  0  0  0  0  0
    5.8162   -9.1297    1.1378 C   0  0  0  0  0  0  0  0  0  0  0  0
    4.2858   -7.0748    3.0820 C   0  0  0  0  0  0  0  0  0  0  0  0
    5.3323   -7.8109    3.9276 C   0  0  0  0  0  0  0  0  0  0  0  0
    4.3012   -5.8230    2.6031 C   0  0  0  0  0  0  0  0  0  0  0  0
    5.4253   -4.8100    2.5252 C   0  0  0  0  0  0  0  0  0  0  0  0
    5.8445   -4.7529    1.0369 C   0  0  2  0  0  0  0  0  0  0  0  0
    3.1342   -1.4690   -1.4780 H   0  0  0  0  0  0  0  0  0  0  0  0
    3.5560   -0.2895   -0.1586 H   0  0  0  0  0  0  0  0  0  0  0  0
   10.1103   -3.5055    0.6213 H   0  0  0  0  0  0  0  0  0  0  0  0
    9.0501   -2.1680    0.8763 H   0  0  0  0  0  0  0  0  0  0  0  0
    9.0926   -2.9581   -0.7135 H   0  0  0  0  0  0  0  0  0  0  0  0
    3.6017   -3.5631   -2.4330 H   0  0  0  0  0  0  0  0  0  0  0  0
    5.0765   -4.4325   -2.7659 H   0  0  0  0  0  0  0  0  0  0  0  0
    5.0475   -2.6912   -2.9227 H   0  0  0  0  0  0  0  0  0  0  0  0
    4.8067   -5.5162   -0.6332 H   0  0  0  0  0  0  0  0  0  0  0  0
    2.9285   -3.6088    0.7211 H   0  0  0  0  0  0  0  0  0  0  0  0
    2.5770   -5.0168   -0.2106 H   0  0  0  0  0  0  0  0  0  0  0  0
    2.0177   -4.9861    3.8492 H   0  0  0  0  0  0  0  0  0  0  0  0
    1.2187   -4.2232    2.4806 H   0  0  0  0  0  0  0  0  0  0  0  0
    2.7222   -3.5554    3.1146 H   0  0  0  0  0  0  0  0  0  0  0  0
    2.6362   -8.9417    4.1476 H   0  0  0  0  0  0  0  0  0  0  0  0
    3.4864   -9.9330    2.3789 H   0  0  0  0  0  0  0  0  0  0  0  0
    2.3207   -9.3308    1.2417 H   0  0  0  0  0  0  0  0  0  0  0  0
    4.1521   -9.7064   -0.1124 H   0  0  0  0  0  0  0  0  0  0  0  0
    4.2854   -7.9663    0.1376 H   0  0  0  0  0  0  0  0  0  0  0  0
    6.5409   -9.1821    0.3505 H   0  0  0  0  0  0  0  0  0  0  0  0
    5.8964  -10.0418    1.7195 H   0  0  0  0  0  0  0  0  0  0  0  0
    6.1221   -8.2819    1.7169 H   0  0  0  0  0  0  0  0  0  0  0  0
    4.9584   -8.0217    4.9100 H   0  0  0  0  0  0  0  0  0  0  0  0
    6.2369   -7.2313    3.9886 H   0  0  0  0  0  0  0  0  0  0  0  0
    5.6072   -8.7742    3.5145 H   0  0  0  0  0  0  0  0  0  0  0  0
    5.0676   -3.8384    2.8642 H   0  0  0  0  0  0  0  0  0  0  0  0
    6.2651   -5.0731    3.1561 H   0  0  0  0  0  0  0  0  0  0  0  0
    6.3603   -5.6866    0.8181 H   0  0  0  0  0  0  0  0  0  0  0  0
  1  2  2  0
  1 28  1  0
  1 29  1  0
  2 10  1  0
  2  3  1  0
  3  4  2  0
  3  5  1  0
  5  6  1  0
  6 27  1  0
  6  7  1  6
  6  9  1  0
  7  8  1  0
  8 30  1  0
  8 31  1  0
  8 32  1  0
  9 10  1  0
 10 11  1  6
 10 12  1  0
 11 33  1  0
 11 34  1  0
 11 35  1  0
 12 27  1  0
 12 13  1  0
 12 36  1  6
 13 14  1  0
 13 37  1  0
 13 38  1  0
 14 25  1  0
 14 15  1  1
 14 16  1  0
 15 39  1  0
 15 40  1  0
 15 41  1  0
 16 17  2  0
 16 18  1  0
 18 19  1  1
 18 20  1  0
 18 23  1  0
 19 42  1  0
 20 21  1  0
 20 43  1  0
 20 44  1  0
 21 22  1  0
 21 45  1  0
 21 46  1  0
 22 47  1  0
 22 48  1  0
 22 49  1  0
 23 24  1  0
 23 25  2  0
 24 50  1  0
 24 51  1  0
 24 52  1  0
 25 26  1  0
 26 27  1  0
 26 53  1  0
 26 54  1  0
 27 55  1  6
M  END
>  <i_m_ct_stereo_status>  (71) 
1

>  <s_m_source_file>  (71) 
/var/tmp/pbs.5076255.sched01/tmpgqtxr8g4/0xtbcsf6k.sdf

>  <i_m_source_file_index>  (71) 
24

>  <i_lp_mmshare_version>  (71) 
48012

>  <i_f3d_flags>  (71) 
0

>  <s_epik_input>  (71) 
Tz1DKE8xKUMoPVtDSDJdKVtDQF0oTzIpKFtDSDNdKVtDQEBIXShbQ0BIXTNbQ0BdMTJPW0NIM10pW0NIMl1bQ0BdNChbQ0gzXSlDKFtDSDJdMyk9QyhbQ0gzXSlbQ0BdKEM0PU8pKFtPSF0pW0NIMl1bQ0gyXVtDSDNd

>  <s_epik_cmdline>  (71) 
J2VwaWtfcHl0aG9uJywgJy1waHQnLCAnMi4wJywgJy1waCcsICc3LjAnLCAnLXRuJywgJzgnLCAnLW1hJywgJzIwMCcsICctaW1hZScsICc8aW5maWxlLm1hZT4nLCAnLW9tYWUnLCAnPG91dGZpbGUubWFlPic=

>  <r_lp_tautomer_probability>  (71) 
1

>  <r_epik_Ionization_Penalty>  (71) 
1.75729e-08

>  <r_epik_Ionization_Penalty_Charging>  (71) 
0

>  <r_epik_Ionization_Penalty_Neutral>  (71) 
1.75729e-08

>  <r_epik_State_Penalty>  (71) 
-0

>  <r_epik_Charging_Adjusted_Penalty>  (71) 
0

>  <i_epik_Tot_Q>  (71) 
0

>  <i_epik_Tot_abs_Q>  (71) 
0

>  <s_epik_Chemistry_Notes>  (71) 
This compound has an ester and may undergo hydrolysis at high or low pH.

>  <s_lp_Force_Field>  (71) 
OPLS3e

>  <r_lp_Energy>  (71) 
25.8211

>  <b_lp_Chiralities_Consistent>  (71) 
1

>  <s_lp_Variant>  (71) 
14:0-1

>  <s_i_glide_gridfile>  (71) 
pfpi4k_grid

>  <i_i_glide_lignum>  (71) 
24

>  <i_i_glide_rotatable_bonds>  (71) 
4

>  <r_i_docking_score>  (71) 
-2.91198

>  <r_i_glide_ligand_efficiency>  (71) 
-0.107851

>  <r_i_glide_ligand_efficiency_sa>  (71) 
-0.323554

>  <r_i_glide_ligand_efficiency_ln>  (71) 
-0.677861

>  <r_i_glide_gscore>  (71) 
-2.91198

>  <r_i_glide_lipo>  (71) 
-0.289728

>  <r_i_glide_hbond>  (71) 
0

>  <r_i_glide_metal>  (71) 
-0

>  <r_i_glide_rewards>  (71) 
-1.13312

>  <r_i_glide_evdw>  (71) 
-26.0042

>  <r_i_glide_ecoul>  (71) 
-2.0842

>  <r_i_glide_erotb>  (71) 
0.136601

>  <r_i_glide_esite>  (71) 
-0.0129013

>  <r_i_glide_emodel>  (71) 
-31.3551

>  <r_i_glide_energy>  (71) 
-28.0884

>  <r_i_glide_einternal>  (71) 
2.40678

>  <r_i_glide_intrahb_reward>  (71) 
-0

>  <i_i_glide_confnum>  (71) 
1

>  <i_i_glide_posenum>  (71) 
1

>  <r_i_glide_eff_state_penalty>  (71) 
0

>  <ligand_id>  (71) 
14

>  <original_smiles>  (71) 
C=C1C(=O)OC2(OC)OC1(C)C1CC3(C)C(=O)C(O)(CCC)C(C)=C3CC12

>  <smiles>  (71) 
[H]OC1(C([H])([H])C([H])([H])C([H])([H])[H])C(=O)C2(C([H])([H])[H])C(=C1C([H])([H])[H])C([H])([H])C1([H])C3(OC([H])([H])[H])OC(=O)C(=C([H])[H])C(C([H])([H])[H])(O3)C1([H])C2([H])[H]

$$$$
14:0:2
     RDKit          3D

 55 58  0  0  1  0  0  0  0  0999 V2000
    5.2042   -8.5892    4.9601 C   0  0  0  0  0  0  0  0  0  0  0  0
    6.0394   -7.8201    4.2461 C   0  0  0  0  0  0  0  0  0  0  0  0
    6.8228   -8.4644    3.1514 C   0  0  0  0  0  0  0  0  0  0  0  0
    6.6934   -9.6325    2.8096 O   0  0  0  0  0  0  0  0  0  0  0  0
    7.7491   -7.6658    2.5188 O   0  0  0  0  0  0  0  0  0  0  0  0
    7.8982   -6.3210    2.9100 C   0  0  2  0  0  0  0  0  0  0  0  0
    9.1314   -5.8220    2.5118 O   0  0  0  0  0  0  0  0  0  0  0  0
   10.2381   -6.2859    3.2789 C   0  0  0  0  0  0  0  0  0  0  0  0
    7.7163   -6.1577    4.2892 O   0  0  0  0  0  0  0  0  0  0  0  0
    6.3345   -6.3448    4.5137 C   0  0  2  0  0  0  0  0  0  0  0  0
    6.0124   -5.8971    5.9574 C   0  0  0  0  0  0  0  0  0  0  0  0
    5.7426   -5.3943    3.4459 C   0  0  2  0  0  0  0  0  0  0  0  0
    4.2597   -5.6531    3.0382 C   0  0  0  0  0  0  0  0  0  0  0  0
    3.8488   -5.2948    1.5736 C   0  0  1  0  0  0  0  0  0  0  0  0
    3.0517   -6.4562    0.9391 C   0  0  0  0  0  0  0  0  0  0  0  0
    3.0082   -4.0304    1.4348 C   0  0  0  0  0  0  0  0  0  0  0  0
    2.0398   -3.7778    2.1627 O   0  0  0  0  0  0  0  0  0  0  0  0
    3.5338   -3.1025    0.3317 C   0  0  1  0  0  0  0  0  0  0  0  0
    2.6163   -3.0552   -0.7513 O   0  0  0  0  0  0  0  0  0  0  0  0
    3.7372   -1.6496    0.8693 C   0  0  0  0  0  0  0  0  0  0  0  0
    4.8274   -1.4363    1.9514 C   0  0  0  0  0  0  0  0  0  0  0  0
    6.2693   -1.4180    1.4167 C   0  0  0  0  0  0  0  0  0  0  0  0
    4.8214   -3.8248   -0.0609 C   0  0  0  0  0  0  0  0  0  0  0  0
    5.7377   -3.2133   -1.1048 C   0  0  0  0  0  0  0  0  0  0  0  0
    5.0246   -4.9156    0.6960 C   0  0  0  0  0  0  0  0  0  0  0  0
    6.2597   -5.7765    0.8996 C   0  0  0  0  0  0  0  0  0  0  0  0
    6.7808   -5.4298    2.3111 C   0  0  2  0  0  0  0  0  0  0  0  0
    4.6323   -8.1973    5.7879 H   0  0  0  0  0  0  0  0  0  0  0  0
    5.0747   -9.6428    4.7427 H   0  0  0  0  0  0  0  0  0  0  0  0
   11.1521   -5.8761    2.8491 H   0  0  0  0  0  0  0  0  0  0  0  0
   10.3138   -7.3790    3.3093 H   0  0  0  0  0  0  0  0  0  0  0  0
   10.1948   -5.9160    4.3033 H   0  0  0  0  0  0  0  0  0  0  0  0
    4.9402   -5.9282    6.1596 H   0  0  0  0  0  0  0  0  0  0  0  0
    6.3462   -4.8736    6.1373 H   0  0  0  0  0  0  0  0  0  0  0  0
    6.5112   -6.5342    6.6941 H   0  0  0  0  0  0  0  0  0  0  0  0
    5.7903   -4.3758    3.8440 H   0  0  0  0  0  0  0  0  0  0  0  0
    4.0265   -6.7093    3.1919 H   0  0  0  0  0  0  0  0  0  0  0  0
    3.6093   -5.1543    3.7583 H   0  0  0  0  0  0  0  0  0  0  0  0
    2.7521   -6.2056   -0.0771 H   0  0  0  0  0  0  0  0  0  0  0  0
    2.1453   -6.6870    1.5069 H   0  0  0  0  0  0  0  0  0  0  0  0
    3.6522   -7.3658    0.8891 H   0  0  0  0  0  0  0  0  0  0  0  0
    2.0999   -2.2390   -0.7226 H   0  0  0  0  0  0  0  0  0  0  0  0
    3.8975   -0.9561    0.0417 H   0  0  0  0  0  0  0  0  0  0  0  0
    2.7847   -1.3228    1.2955 H   0  0  0  0  0  0  0  0  0  0  0  0
    4.6265   -0.4843    2.4472 H   0  0  0  0  0  0  0  0  0  0  0  0
    4.7362   -2.1856    2.7369 H   0  0  0  0  0  0  0  0  0  0  0  0
    6.9716   -1.1102    2.1912 H   0  0  0  0  0  0  0  0  0  0  0  0
    6.3673   -0.6784    0.6260 H   0  0  0  0  0  0  0  0  0  0  0  0
    6.5579   -2.3640    0.9658 H   0  0  0  0  0  0  0  0  0  0  0  0
    5.2741   -3.2614   -2.0863 H   0  0  0  0  0  0  0  0  0  0  0  0
    6.6800   -3.7540   -1.1705 H   0  0  0  0  0  0  0  0  0  0  0  0
    5.9595   -2.1862   -0.8219 H   0  0  0  0  0  0  0  0  0  0  0  0
    5.9736   -6.8304    0.8269 H   0  0  0  0  0  0  0  0  0  0  0  0
    7.0134   -5.5792    0.1412 H   0  0  0  0  0  0  0  0  0  0  0  0
    7.1916   -4.4264    2.2272 H   0  0  0  0  0  0  0  0  0  0  0  0
  1  2  2  0
  1 28  1  0
  1 29  1  0
  2 10  1  0
  2  3  1  0
  3  4  2  0
  3  5  1  0
  5  6  1  0
  6 27  1  0
  6  7  1  6
  6  9  1  0
  7  8  1  0
  8 30  1  0
  8 31  1  0
  8 32  1  0
  9 10  1  0
 10 11  1  1
 10 12  1  0
 11 33  1  0
 11 34  1  0
 11 35  1  0
 12 27  1  0
 12 13  1  0
 12 36  1  1
 13 14  1  0
 13 37  1  0
 13 38  1  0
 14 25  1  0
 14 15  1  6
 14 16  1  0
 15 39  1  0
 15 40  1  0
 15 41  1  0
 16 17  2  0
 16 18  1  0
 18 19  1  6
 18 20  1  0
 18 23  1  0
 19 42  1  0
 20 21  1  0
 20 43  1  0
 20 44  1  0
 21 22  1  0
 21 45  1  0
 21 46  1  0
 22 47  1  0
 22 48  1  0
 22 49  1  0
 23 24  1  0
 23 25  2  0
 24 50  1  0
 24 51  1  0
 24 52  1  0
 25 26  1  0
 26 27  1  0
 26 53  1  0
 26 54  1  0
 27 55  1  6
M  END
>  <i_m_ct_stereo_status>  (72) 
1

>  <s_m_source_file>  (72) 
/var/tmp/pbs.5076255.sched01/tmpgqtxr8g4/0xtbcsf6k.sdf

>  <i_m_source_file_index>  (72) 
24

>  <i_lp_mmshare_version>  (72) 
48012

>  <i_f3d_flags>  (72) 
0

>  <s_epik_input>  (72) 
Tz1DKE8xKUMoPVtDSDJdKVtDQF0oTzIpKFtDSDNdKVtDQEBIXShbQ0BIXTNbQ0BdMTJPW0NIM10pW0NIMl1bQ0BdNChbQ0gzXSlDKFtDSDJdMyk9QyhbQ0gzXSlbQ0BdKEM0PU8pKFtPSF0pW0NIMl1bQ0gyXVtDSDNd

>  <s_epik_cmdline>  (72) 
J2VwaWtfcHl0aG9uJywgJy1waHQnLCAnMi4wJywgJy1waCcsICc3LjAnLCAnLXRuJywgJzgnLCAnLW1hJywgJzIwMCcsICctaW1hZScsICc8aW5maWxlLm1hZT4nLCAnLW9tYWUnLCAnPG91dGZpbGUubWFlPic=

>  <r_lp_tautomer_probability>  (72) 
1

>  <r_epik_Ionization_Penalty>  (72) 
1.75729e-08

>  <r_epik_Ionization_Penalty_Charging>  (72) 
0

>  <r_epik_Ionization_Penalty_Neutral>  (72) 
1.75729e-08

>  <r_epik_State_Penalty>  (72) 
-0

>  <r_epik_Charging_Adjusted_Penalty>  (72) 
0

>  <i_epik_Tot_Q>  (72) 
0

>  <i_epik_Tot_abs_Q>  (72) 
0

>  <s_epik_Chemistry_Notes>  (72) 
This compound has an ester and may undergo hydrolysis at high or low pH.

>  <s_lp_Force_Field>  (72) 
OPLS3e

>  <r_lp_Energy>  (72) 
25.8211

>  <b_lp_Chiralities_Consistent>  (72) 
1

>  <s_lp_Variant>  (72) 
14:0-1

>  <s_i_glide_gridfile>  (72) 
pfpi4k_grid

>  <i_i_glide_lignum>  (72) 
24

>  <i_i_glide_rotatable_bonds>  (72) 
4

>  <r_i_docking_score>  (72) 
-2.37783

>  <r_i_glide_ligand_efficiency>  (72) 
-0.0880679

>  <r_i_glide_ligand_efficiency_sa>  (72) 
-0.264204

>  <r_i_glide_ligand_efficiency_ln>  (72) 
-0.55352

>  <r_i_glide_gscore>  (72) 
-2.37783

>  <r_i_glide_lipo>  (72) 
-0.561712

>  <r_i_glide_hbond>  (72) 
0

>  <r_i_glide_metal>  (72) 
-0

>  <r_i_glide_rewards>  (72) 
-0.886901

>  <r_i_glide_evdw>  (72) 
-18.0587

>  <r_i_glide_ecoul>  (72) 
-1.04198

>  <r_i_glide_erotb>  (72) 
0.136601

>  <r_i_glide_esite>  (72) 
-0.00659

>  <r_i_glide_emodel>  (72) 
-20.3285

>  <r_i_glide_energy>  (72) 
-19.1007

>  <r_i_glide_einternal>  (72) 
4.19671

>  <r_i_glide_intrahb_reward>  (72) 
-0

>  <i_i_glide_confnum>  (72) 
1

>  <i_i_glide_posenum>  (72) 
7

>  <r_i_glide_eff_state_penalty>  (72) 
0

>  <ligand_id>  (72) 
14

>  <original_smiles>  (72) 
C=C1C(=O)OC2(OC)OC1(C)C1CC3(C)C(=O)C(O)(CCC)C(C)=C3CC12

>  <smiles>  (72) 
[H]OC1(C([H])([H])C([H])([H])C([H])([H])[H])C(=O)C2(C([H])([H])[H])C(=C1C([H])([H])[H])C([H])([H])C1([H])C3(OC([H])([H])[H])OC(=O)C(=C([H])[H])C(C([H])([H])[H])(O3)C1([H])C2([H])[H]

$$$$
16:0:0
     RDKit          3D

 26 29  0  0  1  0  0  0  0  0999 V2000
    3.4563   -1.4539    0.6666 C   0  0  0  0  0  0  0  0  0  0  0  0
    4.4607   -0.9431    1.4019 N   0  0  0  0  0  0  0  0  0  0  0  0
    5.6350   -1.4041    0.8054 N   0  0  0  0  0  0  0  0  0  0  0  0
    5.1950   -2.1411   -0.2140 C   0  0  0  0  0  0  0  0  0  0  0  0
    3.8854   -2.2047   -0.3537 N   0  0  0  0  0  0  0  0  0  0  0  0
    3.3756   -3.0358   -1.4127 C   0  0  1  0  0  0  0  0  0  0  0  0
    2.6152   -2.3520   -2.5763 C   0  0  1  0  0  0  0  0  0  0  0  0
    3.2347   -1.0012   -2.9663 C   0  0  0  0  0  0  0  0  0  0  0  0
    4.5512   -1.4279   -3.6031 C   0  0  0  0  0  0  0  0  0  0  0  0
    4.5179   -2.9702   -3.5340 C   0  0  2  0  0  0  0  0  0  0  0  0
    3.0305   -3.2094   -3.7612 C   0  0  0  0  0  0  0  0  0  0  0  0
    4.6890   -3.4999   -2.0947 C   0  0  1  0  0  0  0  0  0  0  0  0
    5.8767   -2.9451   -1.2550 C   0  0  0  0  0  0  0  0  0  0  0  0
    2.4098   -1.2978    0.8919 H   0  0  0  0  0  0  0  0  0  0  0  0
    2.8224   -3.8760   -0.9899 H   0  0  0  0  0  0  0  0  0  0  0  0
    1.5423   -2.3094   -2.4158 H   0  0  0  0  0  0  0  0  0  0  0  0
    2.6153   -0.4722   -3.6940 H   0  0  0  0  0  0  0  0  0  0  0  0
    3.3940   -0.3268   -2.1281 H   0  0  0  0  0  0  0  0  0  0  0  0
    4.5873   -1.0768   -4.6376 H   0  0  0  0  0  0  0  0  0  0  0  0
    5.3767   -0.9786   -3.0601 H   0  0  0  0  0  0  0  0  0  0  0  0
    5.1669   -3.4721   -4.2502 H   0  0  0  0  0  0  0  0  0  0  0  0
    2.7368   -4.2560   -3.6619 H   0  0  0  0  0  0  0  0  0  0  0  0
    2.6663   -2.8330   -4.7187 H   0  0  0  0  0  0  0  0  0  0  0  0
    4.7275   -4.5899   -2.1138 H   0  0  0  0  0  0  0  0  0  0  0  0
    6.5756   -2.3287   -1.8197 H   0  0  0  0  0  0  0  0  0  0  0  0
    6.4230   -3.7564   -0.7726 H   0  0  0  0  0  0  0  0  0  0  0  0
  1  5  1  0
  1  2  2  0
  1 14  1  0
  2  3  1  0
  3  4  2  0
  4 13  1  0
  4  5  1  0
  5  6  1  0
  6 12  1  0
  6  7  1  0
  6 15  1  1
  7 11  1  0
  7  8  1  0
  7 16  1  1
  8  9  1  0
  8 17  1  0
  8 18  1  0
  9 10  1  0
  9 19  1  0
  9 20  1  0
 10 11  1  0
 10 12  1  0
 10 21  1  6
 11 22  1  0
 11 23  1  0
 12 13  1  0
 12 24  1  6
 13 25  1  0
 13 26  1  0
M  END
>  <i_m_ct_stereo_status>  (73) 
1

>  <s_m_source_file>  (73) 
/var/tmp/pbs.5076255.sched01/tmpgqtxr8g4/0xtbcsf6k.sdf

>  <i_m_source_file_index>  (73) 
27

>  <i_lp_mmshare_version>  (73) 
48012

>  <i_f3d_flags>  (73) 
0

>  <s_epik_input>  (73) 
bjFuW2NIXW4oYzEyKVtDQEhdM1tDQEhdNFtDSDJdW0NIMl1bQ0BIXShbQ0gyXTQpW0NASF0zW0NIMl0y

>  <s_epik_cmdline>  (73) 
J2VwaWtfcHl0aG9uJywgJy1waHQnLCAnMi4wJywgJy1waCcsICc3LjAnLCAnLXRuJywgJzgnLCAnLW1hJywgJzIwMCcsICctaW1hZScsICc8aW5maWxlLm1hZT4nLCAnLW9tYWUnLCAnPG91dGZpbGUubWFlPic=

>  <r_lp_tautomer_probability>  (73) 
1

>  <r_epik_Ionization_Penalty>  (73) 
0.000890905

>  <r_epik_Ionization_Penalty_Charging>  (73) 
0

>  <r_epik_Ionization_Penalty_Neutral>  (73) 
0.000890905

>  <r_epik_State_Penalty>  (73) 
0.000537083

>  <r_epik_Charging_Adjusted_Penalty>  (73) 
0.000537083

>  <i_epik_Tot_Q>  (73) 
0

>  <i_epik_Tot_abs_Q>  (73) 
0

>  <s_lp_Force_Field>  (73) 
OPLS3e

>  <r_lp_Energy>  (73) 
39.1852

>  <b_lp_Chiralities_Consistent>  (73) 
1

>  <s_lp_Variant>  (73) 
16:0-1

>  <s_i_glide_gridfile>  (73) 
pfpi4k_grid

>  <i_i_glide_lignum>  (73) 
27

>  <i_i_glide_rotatable_bonds>  (73) 
0

>  <r_i_docking_score>  (73) 
-3.94119

>  <r_i_glide_ligand_efficiency>  (73) 
-0.303168

>  <r_i_glide_ligand_efficiency_sa>  (73) 
-0.71285

>  <r_i_glide_ligand_efficiency_ln>  (73) 
-1.10554

>  <r_i_glide_gscore>  (73) 
-3.94119

>  <r_i_glide_lipo>  (73) 
-0.518907

>  <r_i_glide_hbond>  (73) 
0

>  <r_i_glide_metal>  (73) 
-0

>  <r_i_glide_rewards>  (73) 
-2.21434

>  <r_i_glide_evdw>  (73) 
-18.0487

>  <r_i_glide_ecoul>  (73) 
-1.37962

>  <r_i_glide_erotb>  (73) 
0

>  <r_i_glide_esite>  (73) 
-0.0985672

>  <r_i_glide_emodel>  (73) 
-23.9327

>  <r_i_glide_energy>  (73) 
-19.4283

>  <r_i_glide_einternal>  (73) 
0

>  <r_i_glide_intrahb_reward>  (73) 
-0

>  <i_i_glide_confnum>  (73) 
1

>  <i_i_glide_posenum>  (73) 
22

>  <r_i_glide_eff_state_penalty>  (73) 
0

>  <ligand_id>  (73) 
16

>  <original_smiles>  (73) 
c1nnc2n1C1C3CCC(C3)C1C2

>  <smiles>  (73) 
[H]c1nnc2n1C1([H])C3([H])C([H])([H])C([H])([H])C([H])(C3([H])[H])C1([H])C2([H])[H]

$$$$
16:0:1
     RDKit          3D

 26 29  0  0  1  0  0  0  0  0999 V2000
    2.2801   -4.6111   -0.3075 C   0  0  0  0  0  0  0  0  0  0  0  0
    1.8817   -5.5428    0.5757 N   0  0  0  0  0  0  0  0  0  0  0  0
    2.9854   -5.7675    1.4006 N   0  0  0  0  0  0  0  0  0  0  0  0
    3.9171   -4.9479    0.9122 C   0  0  0  0  0  0  0  0  0  0  0  0
    3.5413   -4.2147   -0.1174 N   0  0  0  0  0  0  0  0  0  0  0  0
    4.5265   -3.3545   -0.7120 C   0  0  1  0  0  0  0  0  0  0  0  0
    4.2980   -1.8246   -0.6298 C   0  0  1  0  0  0  0  0  0  0  0  0
    3.7026   -1.3858    0.7198 C   0  0  0  0  0  0  0  0  0  0  0  0
    4.8703   -1.6275    1.6947 C   0  0  0  0  0  0  0  0  0  0  0  0
    6.0026   -2.1494    0.7776 C   0  0  2  0  0  0  0  0  0  0  0  0
    5.7357   -1.3330   -0.4828 C   0  0  0  0  0  0  0  0  0  0  0  0
    5.7371   -3.5750    0.2368 C   0  0  1  0  0  0  0  0  0  0  0  0
    5.3324   -4.6732    1.2651 C   0  0  0  0  0  0  0  0  0  0  0  0
    1.6535   -4.2384   -1.1066 H   0  0  0  0  0  0  0  0  0  0  0  0
    4.7399   -3.6942   -1.7260 H   0  0  0  0  0  0  0  0  0  0  0  0
    3.7600   -1.4175   -1.4862 H   0  0  0  0  0  0  0  0  0  0  0  0
    3.4457   -0.3248    0.6921 H   0  0  0  0  0  0  0  0  0  0  0  0
    2.7952   -1.9260    0.9909 H   0  0  0  0  0  0  0  0  0  0  0  0
    5.1660   -0.6866    2.1627 H   0  0  0  0  0  0  0  0  0  0  0  0
    4.6002   -2.3120    2.4964 H   0  0  0  0  0  0  0  0  0  0  0  0
    6.9986   -2.0267    1.2051 H   0  0  0  0  0  0  0  0  0  0  0  0
    6.3700   -1.6194   -1.3230 H   0  0  0  0  0  0  0  0  0  0  0  0
    5.8116   -0.2563   -0.3204 H   0  0  0  0  0  0  0  0  0  0  0  0
    6.5972   -3.9129   -0.3432 H   0  0  0  0  0  0  0  0  0  0  0  0
    5.4209   -4.3604    2.3058 H   0  0  0  0  0  0  0  0  0  0  0  0
    5.9206   -5.5799    1.1188 H   0  0  0  0  0  0  0  0  0  0  0  0
  1  5  1  0
  1  2  2  0
  1 14  1  0
  2  3  1  0
  3  4  2  0
  4 13  1  0
  4  5  1  0
  5  6  1  0
  6 12  1  0
  6  7  1  0
  6 15  1  6
  7 11  1  0
  7  8  1  0
  7 16  1  6
  8  9  1  0
  8 17  1  0
  8 18  1  0
  9 10  1  0
  9 19  1  0
  9 20  1  0
 10 11  1  0
 10 12  1  0
 10 21  1  1
 11 22  1  0
 11 23  1  0
 12 13  1  0
 12 24  1  6
 13 25  1  0
 13 26  1  0
M  END
>  <i_m_ct_stereo_status>  (74) 
1

>  <s_m_source_file>  (74) 
/var/tmp/pbs.5076255.sched01/tmpgqtxr8g4/0xtbcsf6k.sdf

>  <i_m_source_file_index>  (74) 
27

>  <i_lp_mmshare_version>  (74) 
48012

>  <i_f3d_flags>  (74) 
0

>  <s_epik_input>  (74) 
bjFuW2NIXW4oYzEyKVtDQEhdM1tDQEhdNFtDSDJdW0NIMl1bQ0BIXShbQ0gyXTQpW0NASF0zW0NIMl0y

>  <s_epik_cmdline>  (74) 
J2VwaWtfcHl0aG9uJywgJy1waHQnLCAnMi4wJywgJy1waCcsICc3LjAnLCAnLXRuJywgJzgnLCAnLW1hJywgJzIwMCcsICctaW1hZScsICc8aW5maWxlLm1hZT4nLCAnLW9tYWUnLCAnPG91dGZpbGUubWFlPic=

>  <r_lp_tautomer_probability>  (74) 
1

>  <r_epik_Ionization_Penalty>  (74) 
0.000890905

>  <r_epik_Ionization_Penalty_Charging>  (74) 
0

>  <r_epik_Ionization_Penalty_Neutral>  (74) 
0.000890905

>  <r_epik_State_Penalty>  (74) 
0.000537083

>  <r_epik_Charging_Adjusted_Penalty>  (74) 
0.000537083

>  <i_epik_Tot_Q>  (74) 
0

>  <i_epik_Tot_abs_Q>  (74) 
0

>  <s_lp_Force_Field>  (74) 
OPLS3e

>  <r_lp_Energy>  (74) 
39.1852

>  <b_lp_Chiralities_Consistent>  (74) 
1

>  <s_lp_Variant>  (74) 
16:0-1

>  <s_i_glide_gridfile>  (74) 
pfpi4k_grid

>  <i_i_glide_lignum>  (74) 
27

>  <i_i_glide_rotatable_bonds>  (74) 
0

>  <r_i_docking_score>  (74) 
-3.74158

>  <r_i_glide_ligand_efficiency>  (74) 
-0.287814

>  <r_i_glide_ligand_efficiency_sa>  (74) 
-0.676747

>  <r_i_glide_ligand_efficiency_ln>  (74) 
-1.04955

>  <r_i_glide_gscore>  (74) 
-3.74158

>  <r_i_glide_lipo>  (74) 
-0.309213

>  <r_i_glide_hbond>  (74) 
0

>  <r_i_glide_metal>  (74) 
-0

>  <r_i_glide_rewards>  (74) 
-2.23814

>  <r_i_glide_evdw>  (74) 
-14.558

>  <r_i_glide_ecoul>  (74) 
-1.97065

>  <r_i_glide_erotb>  (74) 
0

>  <r_i_glide_esite>  (74) 
-0.170727

>  <r_i_glide_emodel>  (74) 
-20.8144

>  <r_i_glide_energy>  (74) 
-16.5287

>  <r_i_glide_einternal>  (74) 
0

>  <r_i_glide_intrahb_reward>  (74) 
-0

>  <i_i_glide_confnum>  (74) 
1

>  <i_i_glide_posenum>  (74) 
4

>  <r_i_glide_eff_state_penalty>  (74) 
0

>  <ligand_id>  (74) 
16

>  <original_smiles>  (74) 
c1nnc2n1C1C3CCC(C3)C1C2

>  <smiles>  (74) 
[H]c1nnc2n1C1([H])C3([H])C([H])([H])C([H])([H])C([H])(C3([H])[H])C1([H])C2([H])[H]

$$$$
16:0:2
     RDKit          3D

 26 29  0  0  1  0  0  0  0  0999 V2000
    2.9049   -2.9752    1.6986 C   0  0  0  0  0  0  0  0  0  0  0  0
    3.5587   -2.9739    2.8712 N   0  0  0  0  0  0  0  0  0  0  0  0
    4.8422   -3.4420    2.5846 N   0  0  0  0  0  0  0  0  0  0  0  0
    4.8057   -3.6741    1.2737 C   0  0  0  0  0  0  0  0  0  0  0  0
    3.6583   -3.4072    0.6812 N   0  0  0  0  0  0  0  0  0  0  0  0
    3.5597   -3.6981   -0.7239 C   0  0  1  0  0  0  0  0  0  0  0  0
    3.3621   -2.5154   -1.7031 C   0  0  1  0  0  0  0  0  0  0  0  0
    4.1654   -1.2730   -1.2847 C   0  0  0  0  0  0  0  0  0  0  0  0
    5.6103   -1.7194   -1.5435 C   0  0  0  0  0  0  0  0  0  0  0  0
    5.4585   -3.1469   -2.1144 C   0  0  2  0  0  0  0  0  0  0  0  0
    4.1658   -2.9925   -2.9122 C   0  0  0  0  0  0  0  0  0  0  0  0
    5.0079   -4.1660   -1.0416 C   0  0  1  0  0  0  0  0  0  0  0  0
    5.7952   -4.1982    0.3001 C   0  0  0  0  0  0  0  0  0  0  0  0
    1.8680   -2.6871    1.5949 H   0  0  0  0  0  0  0  0  0  0  0  0
    2.8321   -4.4944   -0.8789 H   0  0  0  0  0  0  0  0  0  0  0  0
    2.3160   -2.2970   -1.9184 H   0  0  0  0  0  0  0  0  0  0  0  0
    3.9132   -0.4291   -1.9286 H   0  0  0  0  0  0  0  0  0  0  0  0
    3.9902   -0.9580   -0.2555 H   0  0  0  0  0  0  0  0  0  0  0  0
    6.0439   -1.0688   -2.2991 H   0  0  0  0  0  0  0  0  0  0  0  0
    6.2319   -1.6539   -0.6528 H   0  0  0  0  0  0  0  0  0  0  0  0
    6.3192   -3.4795   -2.6967 H   0  0  0  0  0  0  0  0  0  0  0  0
    3.7996   -3.9328   -3.3278 H   0  0  0  0  0  0  0  0  0  0  0  0
    4.2306   -2.2532   -3.7131 H   0  0  0  0  0  0  0  0  0  0  0  0
    4.9843   -5.1654   -1.4781 H   0  0  0  0  0  0  0  0  0  0  0  0
    6.6996   -3.5897    0.3013 H   0  0  0  0  0  0  0  0  0  0  0  0
    6.0592   -5.2207    0.5722 H   0  0  0  0  0  0  0  0  0  0  0  0
  1  5  1  0
  1  2  2  0
  1 14  1  0
  2  3  1  0
  3  4  2  0
  4 13  1  0
  4  5  1  0
  5  6  1  0
  6 12  1  0
  6  7  1  0
  6 15  1  1
  7 11  1  0
  7  8  1  0
  7 16  1  6
  8  9  1  0
  8 17  1  0
  8 18  1  0
  9 10  1  0
  9 19  1  0
  9 20  1  0
 10 11  1  0
 10 12  1  0
 10 21  1  6
 11 22  1  0
 11 23  1  0
 12 13  1  0
 12 24  1  6
 13 25  1  0
 13 26  1  0
M  END
>  <i_m_ct_stereo_status>  (75) 
1

>  <s_m_source_file>  (75) 
/var/tmp/pbs.5076255.sched01/tmpgqtxr8g4/0xtbcsf6k.sdf

>  <i_m_source_file_index>  (75) 
27

>  <i_lp_mmshare_version>  (75) 
48012

>  <i_f3d_flags>  (75) 
0

>  <s_epik_input>  (75) 
bjFuW2NIXW4oYzEyKVtDQEhdM1tDQEhdNFtDSDJdW0NIMl1bQ0BIXShbQ0gyXTQpW0NASF0zW0NIMl0y

>  <s_epik_cmdline>  (75) 
J2VwaWtfcHl0aG9uJywgJy1waHQnLCAnMi4wJywgJy1waCcsICc3LjAnLCAnLXRuJywgJzgnLCAnLW1hJywgJzIwMCcsICctaW1hZScsICc8aW5maWxlLm1hZT4nLCAnLW9tYWUnLCAnPG91dGZpbGUubWFlPic=

>  <r_lp_tautomer_probability>  (75) 
1

>  <r_epik_Ionization_Penalty>  (75) 
0.000890905

>  <r_epik_Ionization_Penalty_Charging>  (75) 
0

>  <r_epik_Ionization_Penalty_Neutral>  (75) 
0.000890905

>  <r_epik_State_Penalty>  (75) 
0.000537083

>  <r_epik_Charging_Adjusted_Penalty>  (75) 
0.000537083

>  <i_epik_Tot_Q>  (75) 
0

>  <i_epik_Tot_abs_Q>  (75) 
0

>  <s_lp_Force_Field>  (75) 
OPLS3e

>  <r_lp_Energy>  (75) 
39.1852

>  <b_lp_Chiralities_Consistent>  (75) 
1

>  <s_lp_Variant>  (75) 
16:0-1

>  <s_i_glide_gridfile>  (75) 
pfpi4k_grid

>  <i_i_glide_lignum>  (75) 
27

>  <i_i_glide_rotatable_bonds>  (75) 
0

>  <r_i_docking_score>  (75) 
-3.58088

>  <r_i_glide_ligand_efficiency>  (75) 
-0.275452

>  <r_i_glide_ligand_efficiency_sa>  (75) 
-0.647681

>  <r_i_glide_ligand_efficiency_ln>  (75) 
-1.00447

>  <r_i_glide_gscore>  (75) 
-3.58088

>  <r_i_glide_lipo>  (75) 
-0.266615

>  <r_i_glide_hbond>  (75) 
0

>  <r_i_glide_metal>  (75) 
-0

>  <r_i_glide_rewards>  (75) 
-2.25316

>  <r_i_glide_evdw>  (75) 
-16.3636

>  <r_i_glide_ecoul>  (75) 
-1.56356

>  <r_i_glide_erotb>  (75) 
0

>  <r_i_glide_esite>  (75) 
-0.00839486

>  <r_i_glide_emodel>  (75) 
-22.0234

>  <r_i_glide_energy>  (75) 
-17.9272

>  <r_i_glide_einternal>  (75) 
0

>  <r_i_glide_intrahb_reward>  (75) 
-0

>  <i_i_glide_confnum>  (75) 
1

>  <i_i_glide_posenum>  (75) 
35

>  <r_i_glide_eff_state_penalty>  (75) 
0

>  <ligand_id>  (75) 
16

>  <original_smiles>  (75) 
c1nnc2n1C1C3CCC(C3)C1C2

>  <smiles>  (75) 
[H]c1nnc2n1C1([H])C3([H])C([H])([H])C([H])([H])C([H])(C3([H])[H])C1([H])C2([H])[H]

$$$$
18:0:0
     RDKit          3D

 30 32  0  0  1  0  0  0  0  0999 V2000
    2.8387   -4.9519    4.5298 C   0  0  0  0  0  0  0  0  0  0  0  0
    2.3573   -5.3842    3.1576 C   0  0  0  0  0  0  0  0  0  0  0  0
    2.9877   -4.8471    2.0845 N   0  0  0  0  0  0  0  0  0  0  0  0
    2.6046   -5.1989    0.8177 C   0  0  0  0  0  0  0  0  0  0  0  0
    3.2559   -4.6495   -0.3157 N   0  0  0  0  0  0  0  0  0  0  0  0
    4.0959   -3.6021   -0.3952 C   0  0  0  0  0  0  0  0  0  0  0  0
    4.4527   -2.9205    0.5691 O   0  0  0  0  0  0  0  0  0  0  0  0
    4.5658   -3.3128   -1.7872 C   0  0  2  0  0  0  0  0  0  0  0  0
    5.8271   -2.4807   -1.9329 C   0  0  0  0  0  0  0  0  0  0  0  0
    4.4872   -1.8757   -2.2769 C   0  0  1  0  0  0  0  0  0  0  0  0
    4.1403   -1.5773   -3.7182 C   0  0  0  0  0  0  0  0  0  0  0  0
    1.5934   -6.0721    0.5338 N   0  0  0  0  0  0  0  0  0  0  0  0
    0.9992   -6.5792    1.6151 N   0  0  0  0  0  0  0  0  0  0  0  0
   -0.0521   -7.4492    1.6213 C   0  0  0  0  0  0  0  0  0  0  0  0
   -0.4178   -7.6986    2.8949 N   0  0  0  0  0  0  0  0  0  0  0  0
    0.4648   -6.9992    3.7464 C   0  0  0  0  0  0  0  0  0  0  0  0
    1.3112   -6.2983    2.9233 C   0  0  0  0  0  0  0  0  0  0  0  0
    3.2119   -5.8072    5.0941 H   0  0  0  0  0  0  0  0  0  0  0  0
    2.0436   -4.4591    5.0907 H   0  0  0  0  0  0  0  0  0  0  0  0
    3.6600   -4.2421    4.4257 H   0  0  0  0  0  0  0  0  0  0  0  0
    4.3801   -4.0839   -2.5360 H   0  0  0  0  0  0  0  0  0  0  0  0
    6.3225   -2.1303   -1.0282 H   0  0  0  0  0  0  0  0  0  0  0  0
    6.4982   -2.7229   -2.7547 H   0  0  0  0  0  0  0  0  0  0  0  0
    4.1019   -1.1338   -1.5799 H   0  0  0  0  0  0  0  0  0  0  0  0
    4.5030   -2.3823   -4.3520 H   0  0  0  0  0  0  0  0  0  0  0  0
    4.6044   -0.6437   -4.0372 H   0  0  0  0  0  0  0  0  0  0  0  0
    3.0588   -1.4910   -3.8401 H   0  0  0  0  0  0  0  0  0  0  0  0
   -0.5264   -7.8439    0.7339 H   0  0  0  0  0  0  0  0  0  0  0  0
    0.4118   -7.0313    4.8322 H   0  0  0  0  0  0  0  0  0  0  0  0
    3.0330   -5.0997   -1.2053 H   0  0  0  0  0  0  0  0  0  0  0  0
  1  2  1  0
  1 18  1  0
  1 19  1  0
  1 20  1  0
  2 17  1  0
  2  3  2  0
  3  4  1  0
  4  5  1  0
  4 12  2  0
  5  6  1  0
  5 30  1  0
  6  7  2  0
  6  8  1  0
  8 10  1  0
  8  9  1  0
  8 21  1  6
  9 10  1  0
  9 22  1  0
  9 23  1  0
 10 11  1  0
 10 24  1  1
 11 25  1  0
 11 26  1  0
 11 27  1  0
 12 13  1  0
 13 17  1  0
 13 14  1  0
 14 15  2  0
 14 28  1  0
 15 16  1  0
 16 17  2  0
 16 29  1  0
M  END
>  <i_m_ct_stereo_status>  (76) 
1

>  <s_m_source_file>  (76) 
/var/tmp/pbs.5076255.sched01/tmpgqtxr8g4/0xtbcsf6k.sdf

>  <i_m_source_file_index>  (76) 
29

>  <i_lp_mmshare_version>  (76) 
48012

>  <i_f3d_flags>  (76) 
0

>  <s_epik_input>  (76) 
W2NIXTFuW2NIXWMobjEyKWMoW0NIM10pbi9jKFtuSF0yKT1OL0MoPU8pW0NAQEhdM1tDSDJdW0NASF0zW0NIM10=

>  <s_epik_cmdline>  (76) 
J2VwaWtfcHl0aG9uJywgJy1waHQnLCAnMi4wJywgJy1waCcsICc3LjAnLCAnLXRuJywgJzgnLCAnLW1hJywgJzIwMCcsICctaW1hZScsICc8aW5maWxlLm1hZT4nLCAnLW9tYWUnLCAnPG91dGZpbGUubWFlPic=

>  <r_epik_Ionization_Penalty>  (76) 
0.00646409

>  <r_epik_Ionization_Penalty_Charging>  (76) 
0

>  <r_epik_Ionization_Penalty_Neutral>  (76) 
0.00646409

>  <r_epik_State_Penalty>  (76) 
0.00476401

>  <r_epik_Charging_Adjusted_Penalty>  (76) 
0.00476401

>  <i_epik_Tot_Q>  (76) 
0

>  <i_epik_Tot_abs_Q>  (76) 
0

>  <s_lp_Force_Field>  (76) 
OPLS3e

>  <r_lp_Energy>  (76) 
28.9662

>  <b_lp_Chiralities_Consistent>  (76) 
1

>  <s_lp_Variant>  (76) 
18:0-1

>  <s_i_glide_gridfile>  (76) 
pfpi4k_grid

>  <i_i_glide_lignum>  (76) 
29

>  <i_i_glide_rotatable_bonds>  (76) 
3

>  <r_i_docking_score>  (76) 
-3.43641

>  <r_i_glide_ligand_efficiency>  (76) 
-0.202142

>  <r_i_glide_ligand_efficiency_sa>  (76) 
-0.519764

>  <r_i_glide_ligand_efficiency_ln>  (76) 
-0.896484

>  <r_i_glide_gscore>  (76) 
-3.43641

>  <r_i_glide_lipo>  (76) 
-0.177699

>  <r_i_glide_hbond>  (76) 
-0.413978

>  <r_i_glide_metal>  (76) 
-0

>  <r_i_glide_rewards>  (76) 
-1.85157

>  <r_i_glide_evdw>  (76) 
-20.0901

>  <r_i_glide_ecoul>  (76) 
-4.73601

>  <r_i_glide_erotb>  (76) 
0.959484

>  <r_i_glide_esite>  (76) 
-0.237742

>  <r_i_glide_emodel>  (76) 
-30.9854

>  <r_i_glide_energy>  (76) 
-24.8261

>  <r_i_glide_einternal>  (76) 
0.52685

>  <r_i_glide_intrahb_reward>  (76) 
-0

>  <i_i_glide_confnum>  (76) 
4

>  <i_i_glide_posenum>  (76) 
22

>  <r_i_glide_eff_state_penalty>  (76) 
0

>  <ligand_id>  (76) 
18

>  <original_smiles>  (76) 
Cc1nc(=NC(=O)C2CC2C)[nH]n2cncc12

>  <smiles>  (76) 
[H]c1nc([H])n2nc(N([H])C(=O)C3([H])C([H])([H])C3([H])C([H])([H])[H])nc(C([H])([H])[H])c12

$$$$
18:0:1
     RDKit          3D

 30 32  0  0  1  0  0  0  0  0999 V2000
   -0.5824   -7.7338    1.7145 C   0  0  0  0  0  0  0  0  0  0  0  0
    0.5840   -6.7843    1.9637 C   0  0  0  0  0  0  0  0  0  0  0  0
    1.2100   -6.2497    0.8827 N   0  0  0  0  0  0  0  0  0  0  0  0
    2.2656   -5.3824    1.0849 C   0  0  0  0  0  0  0  0  0  0  0  0
    2.8753   -4.8162   -0.0686 N   0  0  0  0  0  0  0  0  0  0  0  0
    3.5240   -3.6390   -0.1472 C   0  0  0  0  0  0  0  0  0  0  0  0
    3.5769   -2.8270    0.7800 O   0  0  0  0  0  0  0  0  0  0  0  0
    4.1695   -3.3652   -1.4649 C   0  0  2  0  0  0  0  0  0  0  0  0
    5.3264   -2.3781   -1.4725 C   0  0  0  0  0  0  0  0  0  0  0  0
    3.9953   -1.9796   -2.0591 C   0  0  1  0  0  0  0  0  0  0  0  0
    3.8412   -1.8088   -3.5521 C   0  0  0  0  0  0  0  0  0  0  0  0
    2.7544   -5.0262    2.3086 N   0  0  0  0  0  0  0  0  0  0  0  0
    2.1107   -5.5712    3.3244 N   0  0  0  0  0  0  0  0  0  0  0  0
    2.3955   -5.3657    4.6352 C   0  0  0  0  0  0  0  0  0  0  0  0
    1.5360   -6.0815    5.3935 N   0  0  0  0  0  0  0  0  0  0  0  0
    0.6718   -6.7843    4.5234 C   0  0  0  0  0  0  0  0  0  0  0  0
    1.0525   -6.4366    3.2499 C   0  0  0  0  0  0  0  0  0  0  0  0
   -1.5040   -7.3659    2.1656 H   0  0  0  0  0  0  0  0  0  0  0  0
   -0.3761   -8.7255    2.1193 H   0  0  0  0  0  0  0  0  0  0  0  0
   -0.7623   -7.8553    0.6449 H   0  0  0  0  0  0  0  0  0  0  0  0
    4.2179   -4.1990   -2.1669 H   0  0  0  0  0  0  0  0  0  0  0  0
    5.6224   -1.9048   -0.5350 H   0  0  0  0  0  0  0  0  0  0  0  0
    6.1461   -2.5655   -2.1633 H   0  0  0  0  0  0  0  0  0  0  0  0
    3.4133   -1.2595   -1.4838 H   0  0  0  0  0  0  0  0  0  0  0  0
    4.3960   -2.5896   -4.0708 H   0  0  0  0  0  0  0  0  0  0  0  0
    4.2269   -0.8367   -3.8600 H   0  0  0  0  0  0  0  0  0  0  0  0
    2.7887   -1.8791   -3.8307 H   0  0  0  0  0  0  0  0  0  0  0  0
    3.1879   -4.7223    4.9809 H   0  0  0  0  0  0  0  0  0  0  0  0
   -0.1141   -7.4529    4.8607 H   0  0  0  0  0  0  0  0  0  0  0  0
    2.8174   -5.3565   -0.9256 H   0  0  0  0  0  0  0  0  0  0  0  0
  1  2  1  0
  1 18  1  0
  1 19  1  0
  1 20  1  0
  2 17  1  0
  2  3  2  0
  3  4  1  0
  4  5  1  0
  4 12  2  0
  5  6  1  0
  5 30  1  0
  6  7  2  0
  6  8  1  0
  8 10  1  0
  8  9  1  0
  8 21  1  6
  9 10  1  0
  9 22  1  0
  9 23  1  0
 10 11  1  0
 10 24  1  1
 11 25  1  0
 11 26  1  0
 11 27  1  0
 12 13  1  0
 13 17  1  0
 13 14  1  0
 14 15  2  0
 14 28  1  0
 15 16  1  0
 16 17  2  0
 16 29  1  0
M  END
>  <i_m_ct_stereo_status>  (77) 
1

>  <s_m_source_file>  (77) 
/var/tmp/pbs.5076255.sched01/tmpgqtxr8g4/0xtbcsf6k.sdf

>  <i_m_source_file_index>  (77) 
29

>  <i_lp_mmshare_version>  (77) 
48012

>  <i_f3d_flags>  (77) 
0

>  <s_epik_input>  (77) 
W2NIXTFuW2NIXWMobjEyKWMoW0NIM10pbi9jKFtuSF0yKT1OL0MoPU8pW0NAQEhdM1tDSDJdW0NASF0zW0NIM10=

>  <s_epik_cmdline>  (77) 
J2VwaWtfcHl0aG9uJywgJy1waHQnLCAnMi4wJywgJy1waCcsICc3LjAnLCAnLXRuJywgJzgnLCAnLW1hJywgJzIwMCcsICctaW1hZScsICc8aW5maWxlLm1hZT4nLCAnLW9tYWUnLCAnPG91dGZpbGUubWFlPic=

>  <r_epik_Ionization_Penalty>  (77) 
0.00646409

>  <r_epik_Ionization_Penalty_Charging>  (77) 
0

>  <r_epik_Ionization_Penalty_Neutral>  (77) 
0.00646409

>  <r_epik_State_Penalty>  (77) 
0.00476401

>  <r_epik_Charging_Adjusted_Penalty>  (77) 
0.00476401

>  <i_epik_Tot_Q>  (77) 
0

>  <i_epik_Tot_abs_Q>  (77) 
0

>  <s_lp_Force_Field>  (77) 
OPLS3e

>  <r_lp_Energy>  (77) 
28.9662

>  <b_lp_Chiralities_Consistent>  (77) 
1

>  <s_lp_Variant>  (77) 
18:0-1

>  <s_i_glide_gridfile>  (77) 
pfpi4k_grid

>  <i_i_glide_lignum>  (77) 
29

>  <i_i_glide_rotatable_bonds>  (77) 
3

>  <r_i_docking_score>  (77) 
-3.41997

>  <r_i_glide_ligand_efficiency>  (77) 
-0.201175

>  <r_i_glide_ligand_efficiency_sa>  (77) 
-0.517277

>  <r_i_glide_ligand_efficiency_ln>  (77) 
-0.892195

>  <r_i_glide_gscore>  (77) 
-3.41997

>  <r_i_glide_lipo>  (77) 
-0.210904

>  <r_i_glide_hbond>  (77) 
-0.469472

>  <r_i_glide_metal>  (77) 
-0

>  <r_i_glide_rewards>  (77) 
-1.83236

>  <r_i_glide_evdw>  (77) 
-18.627

>  <r_i_glide_ecoul>  (77) 
-5.63343

>  <r_i_glide_erotb>  (77) 
0.959484

>  <r_i_glide_esite>  (77) 
-0.090354

>  <r_i_glide_emodel>  (77) 
-29.0195

>  <r_i_glide_energy>  (77) 
-24.2604

>  <r_i_glide_einternal>  (77) 
3.03482

>  <r_i_glide_intrahb_reward>  (77) 
-0

>  <i_i_glide_confnum>  (77) 
3

>  <i_i_glide_posenum>  (77) 
10

>  <r_i_glide_eff_state_penalty>  (77) 
0

>  <ligand_id>  (77) 
18

>  <original_smiles>  (77) 
Cc1nc(=NC(=O)C2CC2C)[nH]n2cncc12

>  <smiles>  (77) 
[H]c1nc([H])n2nc(N([H])C(=O)C3([H])C([H])([H])C3([H])C([H])([H])[H])nc(C([H])([H])[H])c12

$$$$
18:0:2
     RDKit          3D

 30 32  0  0  1  0  0  0  0  0999 V2000
    2.7568   -3.0341   -1.2110 C   0  0  0  0  0  0  0  0  0  0  0  0
    3.4061   -4.0740   -0.3107 C   0  0  0  0  0  0  0  0  0  0  0  0
    2.5893   -4.9770    0.2817 N   0  0  0  0  0  0  0  0  0  0  0  0
    3.1327   -5.9674    1.0675 C   0  0  0  0  0  0  0  0  0  0  0  0
    2.2958   -6.9411    1.6756 N   0  0  0  0  0  0  0  0  0  0  0  0
    0.9544   -7.0253    1.6914 C   0  0  0  0  0  0  0  0  0  0  0  0
    0.2034   -6.2627    1.0824 O   0  0  0  0  0  0  0  0  0  0  0  0
    0.4353   -8.1346    2.5471 C   0  0  2  0  0  0  0  0  0  0  0  0
   -0.8959   -8.7455    2.1529 C   0  0  0  0  0  0  0  0  0  0  0  0
   -0.8166   -7.8614    3.3694 C   0  0  1  0  0  0  0  0  0  0  0  0
   -0.9792   -8.4623    4.7447 C   0  0  0  0  0  0  0  0  0  0  0  0
    4.4632   -6.1033    1.3323 N   0  0  0  0  0  0  0  0  0  0  0  0
    5.2265   -5.1768    0.7516 N   0  0  0  0  0  0  0  0  0  0  0  0
    6.5804   -5.0588    0.8567 C   0  0  0  0  0  0  0  0  0  0  0  0
    7.0043   -4.0073    0.1211 N   0  0  0  0  0  0  0  0  0  0  0  0
    5.8696   -3.4294   -0.4824 C   0  0  0  0  0  0  0  0  0  0  0  0
    4.7850   -4.1658   -0.0662 C   0  0  0  0  0  0  0  0  0  0  0  0
    3.1215   -3.1089   -2.2362 H   0  0  0  0  0  0  0  0  0  0  0  0
    2.9363   -2.0245   -0.8374 H   0  0  0  0  0  0  0  0  0  0  0  0
    1.6786   -3.1902   -1.2425 H   0  0  0  0  0  0  0  0  0  0  0  0
    1.1726   -8.7969    3.0033 H   0  0  0  0  0  0  0  0  0  0  0  0
   -1.3882   -8.3440    1.2722 H   0  0  0  0  0  0  0  0  0  0  0  0
   -1.0271   -9.8175    2.3020 H   0  0  0  0  0  0  0  0  0  0  0  0
   -1.2857   -6.8835    3.2782 H   0  0  0  0  0  0  0  0  0  0  0  0
   -0.4681   -9.4232    4.7980 H   0  0  0  0  0  0  0  0  0  0  0  0
   -2.0354   -8.6424    4.9462 H   0  0  0  0  0  0  0  0  0  0  0  0
   -0.5646   -7.7964    5.5040 H   0  0  0  0  0  0  0  0  0  0  0  0
    7.2047   -5.7168    1.4392 H   0  0  0  0  0  0  0  0  0  0  0  0
    5.8950   -2.5628   -1.1386 H   0  0  0  0  0  0  0  0  0  0  0  0
    2.7821   -7.6379    2.2187 H   0  0  0  0  0  0  0  0  0  0  0  0
  1  2  1  0
  1 18  1  0
  1 19  1  0
  1 20  1  0
  2 17  1  0
  2  3  2  0
  3  4  1  0
  4  5  1  0
  4 12  2  0
  5  6  1  0
  5 30  1  0
  6  7  2  0
  6  8  1  0
  8 10  1  0
  8  9  1  0
  8 21  1  1
  9 10  1  0
  9 22  1  0
  9 23  1  0
 10 11  1  0
 10 24  1  6
 11 25  1  0
 11 26  1  0
 11 27  1  0
 12 13  1  0
 13 17  1  0
 13 14  1  0
 14 15  2  0
 14 28  1  0
 15 16  1  0
 16 17  2  0
 16 29  1  0
M  END
>  <i_m_ct_stereo_status>  (78) 
1

>  <s_m_source_file>  (78) 
/var/tmp/pbs.5076255.sched01/tmpgqtxr8g4/0xtbcsf6k.sdf

>  <i_m_source_file_index>  (78) 
29

>  <i_lp_mmshare_version>  (78) 
48012

>  <i_f3d_flags>  (78) 
0

>  <s_epik_input>  (78) 
W2NIXTFuW2NIXWMobjEyKWMoW0NIM10pbi9jKFtuSF0yKT1OL0MoPU8pW0NAQEhdM1tDSDJdW0NASF0zW0NIM10=

>  <s_epik_cmdline>  (78) 
J2VwaWtfcHl0aG9uJywgJy1waHQnLCAnMi4wJywgJy1waCcsICc3LjAnLCAnLXRuJywgJzgnLCAnLW1hJywgJzIwMCcsICctaW1hZScsICc8aW5maWxlLm1hZT4nLCAnLW9tYWUnLCAnPG91dGZpbGUubWFlPic=

>  <r_epik_Ionization_Penalty>  (78) 
0.00646409

>  <r_epik_Ionization_Penalty_Charging>  (78) 
0

>  <r_epik_Ionization_Penalty_Neutral>  (78) 
0.00646409

>  <r_epik_State_Penalty>  (78) 
0.00476401

>  <r_epik_Charging_Adjusted_Penalty>  (78) 
0.00476401

>  <i_epik_Tot_Q>  (78) 
0

>  <i_epik_Tot_abs_Q>  (78) 
0

>  <s_lp_Force_Field>  (78) 
OPLS3e

>  <r_lp_Energy>  (78) 
28.9662

>  <b_lp_Chiralities_Consistent>  (78) 
1

>  <s_lp_Variant>  (78) 
18:0-1

>  <s_i_glide_gridfile>  (78) 
pfpi4k_grid

>  <i_i_glide_lignum>  (78) 
29

>  <i_i_glide_rotatable_bonds>  (78) 
3

>  <r_i_docking_score>  (78) 
-3.29348

>  <r_i_glide_ligand_efficiency>  (78) 
-0.193734

>  <r_i_glide_ligand_efficiency_sa>  (78) 
-0.498146

>  <r_i_glide_ligand_efficiency_ln>  (78) 
-0.859197

>  <r_i_glide_gscore>  (78) 
-3.29348

>  <r_i_glide_lipo>  (78) 
-0.107888

>  <r_i_glide_hbond>  (78) 
-0.179824

>  <r_i_glide_metal>  (78) 
-0

>  <r_i_glide_rewards>  (78) 
-2.0875

>  <r_i_glide_evdw>  (78) 
-20.8692

>  <r_i_glide_ecoul>  (78) 
-5.06664

>  <r_i_glide_erotb>  (78) 
0.959484

>  <r_i_glide_esite>  (78) 
-0.0742979

>  <r_i_glide_emodel>  (78) 
-32.0094

>  <r_i_glide_energy>  (78) 
-25.9358

>  <r_i_glide_einternal>  (78) 
0.215807

>  <r_i_glide_intrahb_reward>  (78) 
-0

>  <i_i_glide_confnum>  (78) 
1

>  <i_i_glide_posenum>  (78) 
26

>  <r_i_glide_eff_state_penalty>  (78) 
0

>  <ligand_id>  (78) 
18

>  <original_smiles>  (78) 
Cc1nc(=NC(=O)C2CC2C)[nH]n2cncc12

>  <smiles>  (78) 
[H]c1nc([H])n2nc(N([H])C(=O)C3([H])C([H])([H])C3([H])C([H])([H])[H])nc(C([H])([H])[H])c12

$$$$
19:1:0
     RDKit          3D

 42 44  0  0  1  0  0  0  0  0999 V2000
  -10.4111   -2.8637   -6.7941 C   0  0  0  0  0  0  0  0  0  0  0  0
   -9.4134   -3.9018   -6.3371 C   0  0  0  0  0  0  0  0  0  0  0  0
   -8.8194   -4.8256   -7.1262 C   0  0  0  0  0  0  0  0  0  0  0  0
   -9.0945   -5.1017   -8.6508 C   0  0  0  0  0  0  0  0  0  0  0  0
   -9.3525   -6.6136   -9.0363 C   0  0  2  0  0  0  0  0  0  0  0  0
   -9.6858   -7.2350   -7.6946 C   0  0  0  0  0  0  0  0  0  0  0  0
   -8.3262   -7.1823   -7.1259 N   0  0  2  0  0  0  0  0  0  0  0  0
   -7.8590   -5.8863   -6.6226 C   0  0  2  0  0  0  0  0  0  0  0  0
   -7.4684   -6.1220   -5.1875 C   0  0  0  0  0  0  0  0  0  0  0  0
   -6.6797   -7.5000   -5.0312 C   0  0  0  0  0  0  0  0  0  0  0  0
   -5.7867   -8.0717   -6.1970 C   0  0  0  0  0  0  0  0  0  0  0  0
   -6.4930   -8.6768   -7.4798 C   0  0  0  0  0  0  0  0  0  0  0  0
   -7.3729   -7.5934   -8.1098 C   0  0  1  0  0  0  0  0  0  0  0  0
   -8.1388   -7.5307   -9.4443 C   0  0  1  0  0  0  0  0  0  0  0  0
   -8.4573   -8.9091  -10.0821 C   0  0  0  0  0  0  0  0  0  0  0  0
   -9.8882   -9.4904  -10.0185 C   0  0  0  0  0  0  0  0  0  0  0  0
  -10.1332   -1.8604   -6.4667 H   0  0  0  0  0  0  0  0  0  0  0  0
  -11.3876   -3.0665   -6.3828 H   0  0  0  0  0  0  0  0  0  0  0  0
  -10.4133   -2.8596   -7.8638 H   0  0  0  0  0  0  0  0  0  0  0  0
   -9.2071   -3.8872   -5.2730 H   0  0  0  0  0  0  0  0  0  0  0  0
  -10.0427   -4.6507   -8.9207 H   0  0  0  0  0  0  0  0  0  0  0  0
   -8.2831   -4.6850   -9.2418 H   0  0  0  0  0  0  0  0  0  0  0  0
  -10.1774   -6.6608   -9.7427 H   0  0  0  0  0  0  0  0  0  0  0  0
  -10.4579   -6.6136   -7.1955 H   0  0  0  0  0  0  0  0  0  0  0  0
  -10.0099   -8.2889   -7.6790 H   0  0  0  0  0  0  0  0  0  0  0  0
   -6.9385   -5.4857   -7.0263 H   0  0  0  0  0  0  0  0  0  0  0  0
   -6.8655   -5.2990   -4.8021 H   0  0  0  0  0  0  0  0  0  0  0  0
   -8.4075   -6.1245   -4.6389 H   0  0  0  0  0  0  0  0  0  0  0  0
   -6.0309   -7.4083   -4.1500 H   0  0  0  0  0  0  0  0  0  0  0  0
   -7.3570   -8.2876   -4.8016 H   0  0  0  0  0  0  0  0  0  0  0  0
   -5.0490   -7.3231   -6.4799 H   0  0  0  0  0  0  0  0  0  0  0  0
   -5.2019   -8.8870   -5.7722 H   0  0  0  0  0  0  0  0  0  0  0  0
   -5.7177   -8.9670   -8.1904 H   0  0  0  0  0  0  0  0  0  0  0  0
   -7.0721   -9.5802   -7.2443 H   0  0  0  0  0  0  0  0  0  0  0  0
   -6.6006   -6.8922   -8.3044 H   0  0  0  0  0  0  0  0  0  0  0  0
   -7.5315   -6.9707  -10.1620 H   0  0  0  0  0  0  0  0  0  0  0  0
   -8.1980   -8.8064  -11.1234 H   0  0  0  0  0  0  0  0  0  0  0  0
   -7.7540   -9.6478   -9.7053 H   0  0  0  0  0  0  0  0  0  0  0  0
   -9.9868  -10.3443  -10.6929 H   0  0  0  0  0  0  0  0  0  0  0  0
  -10.6364   -8.7649  -10.3522 H   0  0  0  0  0  0  0  0  0  0  0  0
  -10.1645   -9.8333   -9.0123 H   0  0  0  0  0  0  0  0  0  0  0  0
   -8.2764   -7.8514   -6.3547 H   0  0  0  0  0  0  0  0  0  0  0  0
  1  2  1  0
  1 17  1  0
  1 18  1  0
  1 19  1  0
  2  3  2  3
  2 20  1  0
  3  8  1  0
  3  4  1  0
  4  5  1  0
  4 21  1  0
  4 22  1  0
  5 14  1  0
  5  6  1  0
  5 23  1  6
  6  7  1  0
  6 24  1  0
  6 25  1  0
  7 13  1  0
  7  8  1  0
  7 42  1  1
  8  9  1  0
  8 26  1  6
  9 10  1  0
  9 27  1  0
  9 28  1  0
 10 11  1  0
 10 29  1  0
 10 30  1  0
 11 12  1  0
 11 31  1  0
 11 32  1  0
 12 13  1  0
 12 33  1  0
 12 34  1  0
 13 14  1  0
 13 35  1  6
 14 15  1  0
 14 36  1  6
 15 16  1  0
 15 37  1  0
 15 38  1  0
 16 39  1  0
 16 40  1  0
 16 41  1  0
M  CHG  1   7   1
M  END
>  <i_m_ct_stereo_status>  (79) 
1

>  <s_m_source_file>  (79) 
/var/tmp/pbs.5076255.sched01/tmpgqtxr8g4/0xtbcsf6k.sdf

>  <i_m_source_file_index>  (79) 
31

>  <i_lp_mmshare_version>  (79) 
48012

>  <i_f3d_flags>  (79) 
0

>  <s_epik_input>  (79) 
W0NIM10vW0NIXT1DKC9bQ0gyXVtDQEhdMTIpW0NAQEhdM04oW0NIMl0xKVtDQEhdKFtDQEhdMltDSDJdW0NIM10pW0NIMl1bQ0gyXVtDSDJdW0NIMl0z

>  <s_epik_cmdline>  (79) 
J2VwaWtfcHl0aG9uJywgJy1waHQnLCAnMi4wJywgJy1waCcsICc3LjAnLCAnLXRuJywgJzgnLCAnLW1hJywgJzIwMCcsICctaW1hZScsICc8aW5maWxlLm1hZT4nLCAnLW9tYWUnLCAnPG91dGZpbGUubWFlPic=

>  <r_epik_Ionization_Penalty>  (79) 
0.000450936

>  <r_epik_Ionization_Penalty_Charging>  (79) 
0.000450936

>  <r_epik_Ionization_Penalty_Neutral>  (79) 
0

>  <r_epik_State_Penalty>  (79) 
0.000278609

>  <r_epik_Charging_Adjusted_Penalty>  (79) 
0.000729544

>  <i_epik_Tot_Q>  (79) 
1

>  <i_epik_Tot_abs_Q>  (79) 
1

>  <s_lp_Force_Field>  (79) 
OPLS3e

>  <r_lp_Energy>  (79) 
77.9137

>  <b_lp_Chiralities_Consistent>  (79) 
1

>  <s_lp_Variant>  (79) 
19:0-2

>  <s_i_glide_gridfile>  (79) 
pfpi4k_grid

>  <i_i_glide_lignum>  (79) 
31

>  <i_i_glide_rotatable_bonds>  (79) 
1

>  <r_i_docking_score>  (79) 
-5.14599

>  <r_i_glide_ligand_efficiency>  (79) 
-0.321625

>  <r_i_glide_ligand_efficiency_sa>  (79) 
-0.810443

>  <r_i_glide_ligand_efficiency_ln>  (79) 
-1.36405

>  <r_i_glide_gscore>  (79) 
-5.14599

>  <r_i_glide_lipo>  (79) 
-2.24071

>  <r_i_glide_hbond>  (79) 
0

>  <r_i_glide_metal>  (79) 
-0

>  <r_i_glide_rewards>  (79) 
-2.60941

>  <r_i_glide_evdw>  (79) 
-6.46779

>  <r_i_glide_ecoul>  (79) 
0.183445

>  <r_i_glide_erotb>  (79) 
0

>  <r_i_glide_esite>  (79) 
0

>  <r_i_glide_emodel>  (79) 
-7.02629

>  <r_i_glide_energy>  (79) 
-6.28435

>  <r_i_glide_einternal>  (79) 
6.86008

>  <r_i_glide_intrahb_reward>  (79) 
-0

>  <i_i_glide_confnum>  (79) 
2

>  <i_i_glide_posenum>  (79) 
40

>  <r_i_glide_eff_state_penalty>  (79) 
0

>  <ligand_id>  (79) 
19

>  <original_smiles>  (79) 
CC=C1CC2CN3C1CCCCC3C2CC

>  <smiles>  (79) 
[H]C(=C1C([H])([H])C2([H])C([H])(C([H])([H])C([H])([H])[H])C3([H])C([H])([H])C([H])([H])C([H])([H])C([H])([H])C1([H])[N+]3([H])C2([H])[H])C([H])([H])[H]

$$$$
19:1:1
     RDKit          3D

 42 44  0  0  1  0  0  0  0  0999 V2000
   -6.7358   -5.5888   -5.2718 C   0  0  0  0  0  0  0  0  0  0  0  0
   -5.9049   -6.8533   -5.4084 C   0  0  0  0  0  0  0  0  0  0  0  0
   -6.0749   -7.8532   -6.2874 C   0  0  0  0  0  0  0  0  0  0  0  0
   -7.2390   -7.9802   -7.3399 C   0  0  0  0  0  0  0  0  0  0  0  0
   -7.9715   -9.4035   -7.3296 C   0  0  2  0  0  0  0  0  0  0  0  0
   -7.5624  -10.0152   -6.0063 C   0  0  0  0  0  0  0  0  0  0  0  0
   -6.1452  -10.2862   -6.3468 N   0  0  2  0  0  0  0  0  0  0  0  0
   -5.2310   -9.1342   -6.2997 C   0  0  2  0  0  0  0  0  0  0  0  0
   -4.1066   -9.5624   -5.3482 C   0  0  0  0  0  0  0  0  0  0  0  0
   -3.6935  -11.0797   -5.5871 C   0  0  0  0  0  0  0  0  0  0  0  0
   -3.7646  -11.7250   -7.0315 C   0  0  0  0  0  0  0  0  0  0  0  0
   -5.1711  -12.0914   -7.6180 C   0  0  0  0  0  0  0  0  0  0  0  0
   -6.0389  -10.8094   -7.7080 C   0  0  1  0  0  0  0  0  0  0  0  0
   -7.4352  -10.5358   -8.3088 C   0  0  1  0  0  0  0  0  0  0  0  0
   -8.3744  -11.7721   -8.5208 C   0  0  0  0  0  0  0  0  0  0  0  0
   -8.4865  -12.8737   -7.4092 C   0  0  0  0  0  0  0  0  0  0  0  0
   -6.0849   -4.7187   -5.2981 H   0  0  0  0  0  0  0  0  0  0  0  0
   -7.2530   -5.5775   -4.3166 H   0  0  0  0  0  0  0  0  0  0  0  0
   -7.4798   -5.4646   -6.0547 H   0  0  0  0  0  0  0  0  0  0  0  0
   -5.0998   -6.9407   -4.6900 H   0  0  0  0  0  0  0  0  0  0  0  0
   -7.9989   -7.2241   -7.1447 H   0  0  0  0  0  0  0  0  0  0  0  0
   -6.8455   -7.7665   -8.3313 H   0  0  0  0  0  0  0  0  0  0  0  0
   -9.0460   -9.2839   -7.4325 H   0  0  0  0  0  0  0  0  0  0  0  0
   -7.6571   -9.3423   -5.1478 H   0  0  0  0  0  0  0  0  0  0  0  0
   -8.0877  -10.8866   -5.7072 H   0  0  0  0  0  0  0  0  0  0  0  0
   -4.6611   -8.9323   -7.2035 H   0  0  0  0  0  0  0  0  0  0  0  0
   -3.2487   -8.9157   -5.5047 H   0  0  0  0  0  0  0  0  0  0  0  0
   -4.4159   -9.4370   -4.3087 H   0  0  0  0  0  0  0  0  0  0  0  0
   -2.6655  -11.1874   -5.2404 H   0  0  0  0  0  0  0  0  0  0  0  0
   -4.2675  -11.7087   -4.9013 H   0  0  0  0  0  0  0  0  0  0  0  0
   -3.2094  -11.1320   -7.7561 H   0  0  0  0  0  0  0  0  0  0  0  0
   -3.2428  -12.6840   -6.9663 H   0  0  0  0  0  0  0  0  0  0  0  0
   -5.0700  -12.5181   -8.6201 H   0  0  0  0  0  0  0  0  0  0  0  0
   -5.5352  -12.8629   -6.9564 H   0  0  0  0  0  0  0  0  0  0  0  0
   -5.4383  -10.2219   -8.4082 H   0  0  0  0  0  0  0  0  0  0  0  0
   -7.3109  -10.0690   -9.2947 H   0  0  0  0  0  0  0  0  0  0  0  0
   -9.3688  -11.3995   -8.7549 H   0  0  0  0  0  0  0  0  0  0  0  0
   -8.0298  -12.2545   -9.4378 H   0  0  0  0  0  0  0  0  0  0  0  0
   -9.1631  -13.6781   -7.7474 H   0  0  0  0  0  0  0  0  0  0  0  0
   -8.9076  -12.4956   -6.4866 H   0  0  0  0  0  0  0  0  0  0  0  0
   -7.5348  -13.3572   -7.2228 H   0  0  0  0  0  0  0  0  0  0  0  0
   -5.7875  -10.9856   -5.7030 H   0  0  0  0  0  0  0  0  0  0  0  0
  1  2  1  0
  1 17  1  0
  1 18  1  0
  1 19  1  0
  2  3  2  3
  2 20  1  0
  3  8  1  0
  3  4  1  0
  4  5  1  0
  4 21  1  0
  4 22  1  0
  5 14  1  0
  5  6  1  0
  5 23  1  1
  6  7  1  0
  6 24  1  0
  6 25  1  0
  7 13  1  0
  7  8  1  0
  7 42  1  1
  8  9  1  0
  8 26  1  6
  9 10  1  0
  9 27  1  0
  9 28  1  0
 10 11  1  0
 10 29  1  0
 10 30  1  0
 11 12  1  0
 11 31  1  0
 11 32  1  0
 12 13  1  0
 12 33  1  0
 12 34  1  0
 13 14  1  0
 13 35  1  6
 14 15  1  0
 14 36  1  6
 15 16  1  0
 15 37  1  0
 15 38  1  0
 16 39  1  0
 16 40  1  0
 16 41  1  0
M  CHG  1   7   1
M  END
>  <i_m_ct_stereo_status>  (80) 
1

>  <s_m_source_file>  (80) 
/var/tmp/pbs.5076255.sched01/tmpgqtxr8g4/0xtbcsf6k.sdf

>  <i_m_source_file_index>  (80) 
31

>  <i_lp_mmshare_version>  (80) 
48012

>  <i_f3d_flags>  (80) 
0

>  <s_epik_input>  (80) 
W0NIM10vW0NIXT1DKC9bQ0gyXVtDQEhdMTIpW0NAQEhdM04oW0NIMl0xKVtDQEhdKFtDQEhdMltDSDJdW0NIM10pW0NIMl1bQ0gyXVtDSDJdW0NIMl0z

>  <s_epik_cmdline>  (80) 
J2VwaWtfcHl0aG9uJywgJy1waHQnLCAnMi4wJywgJy1waCcsICc3LjAnLCAnLXRuJywgJzgnLCAnLW1hJywgJzIwMCcsICctaW1hZScsICc8aW5maWxlLm1hZT4nLCAnLW9tYWUnLCAnPG91dGZpbGUubWFlPic=

>  <r_epik_Ionization_Penalty>  (80) 
0.000450936

>  <r_epik_Ionization_Penalty_Charging>  (80) 
0.000450936

>  <r_epik_Ionization_Penalty_Neutral>  (80) 
0

>  <r_epik_State_Penalty>  (80) 
0.000278609

>  <r_epik_Charging_Adjusted_Penalty>  (80) 
0.000729544

>  <i_epik_Tot_Q>  (80) 
1

>  <i_epik_Tot_abs_Q>  (80) 
1

>  <s_lp_Force_Field>  (80) 
OPLS3e

>  <r_lp_Energy>  (80) 
77.9137

>  <b_lp_Chiralities_Consistent>  (80) 
1

>  <s_lp_Variant>  (80) 
19:0-2

>  <s_i_glide_gridfile>  (80) 
pfpi4k_grid

>  <i_i_glide_lignum>  (80) 
31

>  <i_i_glide_rotatable_bonds>  (80) 
1

>  <r_i_docking_score>  (80) 
-5.13848

>  <r_i_glide_ligand_efficiency>  (80) 
-0.321155

>  <r_i_glide_ligand_efficiency_sa>  (80) 
-0.809259

>  <r_i_glide_ligand_efficiency_ln>  (80) 
-1.36206

>  <r_i_glide_gscore>  (80) 
-5.13848

>  <r_i_glide_lipo>  (80) 
-1.8269

>  <r_i_glide_hbond>  (80) 
0

>  <r_i_glide_metal>  (80) 
-0

>  <r_i_glide_rewards>  (80) 
-2.35654

>  <r_i_glide_evdw>  (80) 
-17.2009

>  <r_i_glide_ecoul>  (80) 
-0.63328

>  <r_i_glide_erotb>  (80) 
0

>  <r_i_glide_esite>  (80) 
0

>  <r_i_glide_emodel>  (80) 
-19.2659

>  <r_i_glide_energy>  (80) 
-17.8342

>  <r_i_glide_einternal>  (80) 
5.03175

>  <r_i_glide_intrahb_reward>  (80) 
-0

>  <i_i_glide_confnum>  (80) 
1

>  <i_i_glide_posenum>  (80) 
25

>  <r_i_glide_eff_state_penalty>  (80) 
0

>  <ligand_id>  (80) 
19

>  <original_smiles>  (80) 
CC=C1CC2CN3C1CCCCC3C2CC

>  <smiles>  (80) 
[H]C(=C1C([H])([H])C2([H])C([H])(C([H])([H])C([H])([H])[H])C3([H])C([H])([H])C([H])([H])C([H])([H])C([H])([H])C1([H])[N+]3([H])C2([H])[H])C([H])([H])[H]

$$$$
20:0:0
     RDKit          3D

 39 42  0  0  1  0  0  0  0  0999 V2000
    7.3728   -6.8461    2.1115 C   0  0  0  0  0  0  0  0  0  0  0  0
    6.4949   -5.8980    1.3107 C   0  0  0  0  0  0  0  0  0  0  0  0
    7.0145   -4.8761    0.8648 O   0  0  0  0  0  0  0  0  0  0  0  0
    5.1875   -6.1761    1.1176 N   0  0  0  0  0  0  0  0  0  0  0  0
    4.2837   -5.2503    0.3817 C   0  0  0  0  0  0  0  0  0  0  0  0
    2.9132   -5.9047    0.5531 C   0  0  0  0  0  0  0  0  0  0  0  0
    1.8408   -5.4472    0.1565 O   0  0  0  0  0  0  0  0  0  0  0  0
    3.1445   -7.1298    1.2779 C   0  0  0  0  0  0  0  0  0  0  0  0
    4.4268   -7.2761    1.5363 C   0  0  0  0  0  0  0  0  0  0  0  0
    4.5886   -8.4306    2.5082 C   0  0  2  0  0  0  0  0  0  0  0  0
    5.6274   -9.5584    2.5681 C   0  0  0  0  0  0  0  0  0  0  0  0
    4.8036  -10.7080    3.2318 C   0  0  0  0  0  0  0  0  0  0  0  0
    3.2969  -10.4080    3.0197 C   0  0  0  0  0  0  0  0  0  0  0  0
    3.3486   -9.2321    2.0689 C   0  0  1  0  0  0  0  0  0  0  0  0
    2.2184   -8.2092    1.7855 C   0  0  1  0  0  0  0  0  0  0  0  0
    1.4085   -7.8441    3.0273 C   0  0  0  0  0  0  0  0  0  0  0  0
    0.2999   -8.6309    3.4034 C   0  0  0  0  0  0  0  0  0  0  0  0
   -0.4357   -8.2594    4.5473 C   0  0  0  0  0  0  0  0  0  0  0  0
   -0.0261   -7.1273    5.2762 C   0  0  0  0  0  0  0  0  0  0  0  0
    1.0411   -6.3815    4.9390 N   0  0  0  0  0  0  0  0  0  0  0  0
    1.7433   -6.7422    3.8469 C   0  0  0  0  0  0  0  0  0  0  0  0
    6.9298   -7.0311    3.0846 H   0  0  0  0  0  0  0  0  0  0  0  0
    8.3613   -6.4166    2.2717 H   0  0  0  0  0  0  0  0  0  0  0  0
    7.4948   -7.7770    1.5681 H   0  0  0  0  0  0  0  0  0  0  0  0
    4.2950   -4.2357    0.7869 H   0  0  0  0  0  0  0  0  0  0  0  0
    4.5440   -5.2067   -0.6768 H   0  0  0  0  0  0  0  0  0  0  0  0
    4.4158   -8.0446    3.5138 H   0  0  0  0  0  0  0  0  0  0  0  0
    6.0026   -9.8556    1.5924 H   0  0  0  0  0  0  0  0  0  0  0  0
    6.4848   -9.3046    3.1887 H   0  0  0  0  0  0  0  0  0  0  0  0
    5.0878  -11.6777    2.8193 H   0  0  0  0  0  0  0  0  0  0  0  0
    5.0008  -10.7519    4.3006 H   0  0  0  0  0  0  0  0  0  0  0  0
    2.7722  -11.2643    2.5859 H   0  0  0  0  0  0  0  0  0  0  0  0
    2.8106  -10.1382    3.9571 H   0  0  0  0  0  0  0  0  0  0  0  0
    3.5838   -9.6698    1.0972 H   0  0  0  0  0  0  0  0  0  0  0  0
    1.5469   -8.5435    0.9893 H   0  0  0  0  0  0  0  0  0  0  0  0
    0.0210   -9.5022    2.8294 H   0  0  0  0  0  0  0  0  0  0  0  0
   -1.2913   -8.8434    4.8641 H   0  0  0  0  0  0  0  0  0  0  0  0
   -0.5673   -6.8029    6.1526 H   0  0  0  0  0  0  0  0  0  0  0  0
    2.5920   -6.1072    3.6438 H   0  0  0  0  0  0  0  0  0  0  0  0
  1  2  1  0
  1 22  1  0
  1 23  1  0
  1 24  1  0
  2  3  2  0
  2  4  1  0
  4  9  1  0
  4  5  1  0
  5  6  1  0
  5 25  1  0
  5 26  1  0
  6  7  2  0
  6  8  1  0
  8 15  1  0
  8  9  2  0
  9 10  1  0
 10 14  1  0
 10 11  1  0
 10 27  1  1
 11 12  1  0
 11 28  1  0
 11 29  1  0
 12 13  1  0
 12 30  1  0
 12 31  1  0
 13 14  1  0
 13 32  1  0
 13 33  1  0
 14 15  1  0
 14 34  1  6
 15 16  1  0
 15 35  1  6
 16 21  1  0
 16 17  2  0
 17 18  1  0
 17 36  1  0
 18 19  2  0
 18 37  1  0
 19 20  1  0
 19 38  1  0
 20 21  2  0
 21 39  1  0
M  END
>  <i_m_ct_stereo_status>  (81) 
1

>  <s_m_source_file>  (81) 
/var/tmp/pbs.5076255.sched01/tmpgqtxr8g4/0xtbcsf6k.sdf

>  <i_m_source_file_index>  (81) 
32

>  <i_lp_mmshare_version>  (81) 
48012

>  <i_f3d_flags>  (81) 
0

>  <s_epik_input>  (81) 
Tz1DMVtDSDJdTihDKD1PKVtDSDNdKUMoPUMxMilbQ0BIXTNbQ0BASF0oW0NIMl1bQ0gyXVtDSDJdMylbQ0BIXTJjNFtjSF1bY0hdW2NIXW5bY0hdNA==

>  <s_epik_cmdline>  (81) 
J2VwaWtfcHl0aG9uJywgJy1waHQnLCAnMi4wJywgJy1waCcsICc3LjAnLCAnLXRuJywgJzgnLCAnLW1hJywgJzIwMCcsICctaW1hZScsICc8aW5maWxlLm1hZT4nLCAnLW9tYWUnLCAnPG91dGZpbGUubWFlPic=

>  <r_epik_Ionization_Penalty>  (81) 
0.00329904

>  <r_epik_Ionization_Penalty_Charging>  (81) 
0

>  <r_epik_Ionization_Penalty_Neutral>  (81) 
0.00329904

>  <r_epik_State_Penalty>  (81) 
0.00233124

>  <r_epik_Charging_Adjusted_Penalty>  (81) 
0.00233124

>  <i_epik_Tot_Q>  (81) 
0

>  <i_epik_Tot_abs_Q>  (81) 
0

>  <s_lp_Force_Field>  (81) 
OPLS3e

>  <r_lp_Energy>  (81) 
31.6947

>  <b_lp_Chiralities_Consistent>  (81) 
1

>  <s_lp_Variant>  (81) 
20:0-1

>  <s_i_glide_gridfile>  (81) 
pfpi4k_grid

>  <i_i_glide_lignum>  (81) 
32

>  <i_i_glide_rotatable_bonds>  (81) 
2

>  <r_i_docking_score>  (81) 
-3.31242

>  <r_i_glide_ligand_efficiency>  (81) 
-0.157734

>  <r_i_glide_ligand_efficiency_sa>  (81) 
-0.435177

>  <r_i_glide_ligand_efficiency_ln>  (81) 
-0.818989

>  <r_i_glide_gscore>  (81) 
-3.31242

>  <r_i_glide_lipo>  (81) 
-0.187743

>  <r_i_glide_hbond>  (81) 
-0.0754948

>  <r_i_glide_metal>  (81) 
-0

>  <r_i_glide_rewards>  (81) 
-1.73688

>  <r_i_glide_evdw>  (81) 
-22.9153

>  <r_i_glide_ecoul>  (81) 
-2.47414

>  <r_i_glide_erotb>  (81) 
0.226961

>  <r_i_glide_esite>  (81) 
-0.0223731

>  <r_i_glide_emodel>  (81) 
-30.8173

>  <r_i_glide_energy>  (81) 
-25.3895

>  <r_i_glide_einternal>  (81) 
0.48099

>  <r_i_glide_intrahb_reward>  (81) 
-0

>  <i_i_glide_confnum>  (81) 
3

>  <i_i_glide_posenum>  (81) 
13

>  <r_i_glide_eff_state_penalty>  (81) 
0

>  <ligand_id>  (81) 
20

>  <original_smiles>  (81) 
CC(=O)N1CC(=O)C2=C1C1CCCC1C2c1cccnc1

>  <smiles>  (81) 
[H]c1nc([H])c(C2([H])C3=C(N(C(=O)C([H])([H])[H])C([H])([H])C3=O)C3([H])C([H])([H])C([H])([H])C([H])([H])C23[H])c([H])c1[H]

$$$$
20:0:1
     RDKit          3D

 39 42  0  0  1  0  0  0  0  0999 V2000
    7.3049   -5.6070    1.2362 C   0  0  0  0  0  0  0  0  0  0  0  0
    6.3849   -6.7344    1.7230 C   0  0  0  0  0  0  0  0  0  0  0  0
    6.8483   -7.6261    2.4338 O   0  0  0  0  0  0  0  0  0  0  0  0
    5.0799   -6.6718    1.3598 N   0  0  0  0  0  0  0  0  0  0  0  0
    4.4697   -5.5665    0.5605 C   0  0  0  0  0  0  0  0  0  0  0  0
    2.9784   -5.8855    0.6064 C   0  0  0  0  0  0  0  0  0  0  0  0
    2.1031   -5.1919    0.1048 O   0  0  0  0  0  0  0  0  0  0  0  0
    2.8662   -7.1203    1.3321 C   0  0  0  0  0  0  0  0  0  0  0  0
    4.0516   -7.5479    1.7246 C   0  0  0  0  0  0  0  0  0  0  0  0
    3.8823   -8.7321    2.6490 C   0  0  2  0  0  0  0  0  0  0  0  0
    4.6496  -10.0435    2.7683 C   0  0  0  0  0  0  0  0  0  0  0  0
    3.5233  -10.9733    3.3410 C   0  0  0  0  0  0  0  0  0  0  0  0
    2.1341  -10.3509    3.0096 C   0  0  0  0  0  0  0  0  0  0  0  0
    2.5368   -9.2246    2.0948 C   0  0  1  0  0  0  0  0  0  0  0  0
    1.6986   -7.9745    1.7144 C   0  0  1  0  0  0  0  0  0  0  0  0
    0.8335   -7.4728    2.8607 C   0  0  0  0  0  0  0  0  0  0  0  0
    1.3865   -6.9706    4.0629 C   0  0  0  0  0  0  0  0  0  0  0  0
    0.5251   -6.5631    5.0938 C   0  0  0  0  0  0  0  0  0  0  0  0
   -0.8584   -6.6259    4.8699 C   0  0  0  0  0  0  0  0  0  0  0  0
   -1.4041   -7.0706    3.7214 N   0  0  0  0  0  0  0  0  0  0  0  0
   -0.5741   -7.5158    2.7527 C   0  0  0  0  0  0  0  0  0  0  0  0
    7.2229   -5.4695    0.1675 H   0  0  0  0  0  0  0  0  0  0  0  0
    8.3485   -5.7988    1.4597 H   0  0  0  0  0  0  0  0  0  0  0  0
    7.0425   -4.6581    1.6871 H   0  0  0  0  0  0  0  0  0  0  0  0
    4.6496   -4.5777    0.9775 H   0  0  0  0  0  0  0  0  0  0  0  0
    4.8102   -5.5741   -0.4729 H   0  0  0  0  0  0  0  0  0  0  0  0
    3.7718   -8.3509    3.6552 H   0  0  0  0  0  0  0  0  0  0  0  0
    5.0468  -10.3976    1.8273 H   0  0  0  0  0  0  0  0  0  0  0  0
    5.4808   -9.9427    3.4584 H   0  0  0  0  0  0  0  0  0  0  0  0
    3.6281  -11.9869    2.9457 H   0  0  0  0  0  0  0  0  0  0  0  0
    3.6027  -11.0473    4.4235 H   0  0  0  0  0  0  0  0  0  0  0  0
    1.4751  -11.0699    2.5155 H   0  0  0  0  0  0  0  0  0  0  0  0
    1.6238   -9.9956    3.9068 H   0  0  0  0  0  0  0  0  0  0  0  0
    2.7603   -9.7140    1.1454 H   0  0  0  0  0  0  0  0  0  0  0  0
    1.0809   -8.1570    0.8440 H   0  0  0  0  0  0  0  0  0  0  0  0
    2.4444   -6.8597    4.2305 H   0  0  0  0  0  0  0  0  0  0  0  0
    0.9269   -6.1742    6.0261 H   0  0  0  0  0  0  0  0  0  0  0  0
   -1.5432   -6.2564    5.6150 H   0  0  0  0  0  0  0  0  0  0  0  0
   -1.0508   -7.8776    1.8529 H   0  0  0  0  0  0  0  0  0  0  0  0
  1  2  1  0
  1 22  1  0
  1 23  1  0
  1 24  1  0
  2  3  2  0
  2  4  1  0
  4  9  1  0
  4  5  1  0
  5  6  1  0
  5 25  1  0
  5 26  1  0
  6  7  2  0
  6  8  1  0
  8 15  1  0
  8  9  2  0
  9 10  1  0
 10 14  1  0
 10 11  1  0
 10 27  1  1
 11 12  1  0
 11 28  1  0
 11 29  1  0
 12 13  1  0
 12 30  1  0
 12 31  1  0
 13 14  1  0
 13 32  1  0
 13 33  1  0
 14 15  1  0
 14 34  1  6
 15 16  1  0
 15 35  1  6
 16 21  1  0
 16 17  2  0
 17 18  1  0
 17 36  1  0
 18 19  2  0
 18 37  1  0
 19 20  1  0
 19 38  1  0
 20 21  2  0
 21 39  1  0
M  END
>  <i_m_ct_stereo_status>  (82) 
1

>  <s_m_source_file>  (82) 
/var/tmp/pbs.5076255.sched01/tmpgqtxr8g4/0xtbcsf6k.sdf

>  <i_m_source_file_index>  (82) 
32

>  <i_lp_mmshare_version>  (82) 
48012

>  <i_f3d_flags>  (82) 
0

>  <s_epik_input>  (82) 
Tz1DMVtDSDJdTihDKD1PKVtDSDNdKUMoPUMxMilbQ0BIXTNbQ0BASF0oW0NIMl1bQ0gyXVtDSDJdMylbQ0BIXTJjNFtjSF1bY0hdW2NIXW5bY0hdNA==

>  <s_epik_cmdline>  (82) 
J2VwaWtfcHl0aG9uJywgJy1waHQnLCAnMi4wJywgJy1waCcsICc3LjAnLCAnLXRuJywgJzgnLCAnLW1hJywgJzIwMCcsICctaW1hZScsICc8aW5maWxlLm1hZT4nLCAnLW9tYWUnLCAnPG91dGZpbGUubWFlPic=

>  <r_epik_Ionization_Penalty>  (82) 
0.00329904

>  <r_epik_Ionization_Penalty_Charging>  (82) 
0

>  <r_epik_Ionization_Penalty_Neutral>  (82) 
0.00329904

>  <r_epik_State_Penalty>  (82) 
0.00233124

>  <r_epik_Charging_Adjusted_Penalty>  (82) 
0.00233124

>  <i_epik_Tot_Q>  (82) 
0

>  <i_epik_Tot_abs_Q>  (82) 
0

>  <s_lp_Force_Field>  (82) 
OPLS3e

>  <r_lp_Energy>  (82) 
31.6947

>  <b_lp_Chiralities_Consistent>  (82) 
1

>  <s_lp_Variant>  (82) 
20:0-1

>  <s_i_glide_gridfile>  (82) 
pfpi4k_grid

>  <i_i_glide_lignum>  (82) 
32

>  <i_i_glide_rotatable_bonds>  (82) 
2

>  <r_i_docking_score>  (82) 
-3.31028

>  <r_i_glide_ligand_efficiency>  (82) 
-0.157632

>  <r_i_glide_ligand_efficiency_sa>  (82) 
-0.434895

>  <r_i_glide_ligand_efficiency_ln>  (82) 
-0.818459

>  <r_i_glide_gscore>  (82) 
-3.31028

>  <r_i_glide_lipo>  (82) 
-0.28891

>  <r_i_glide_hbond>  (82) 
-0.0673815

>  <r_i_glide_metal>  (82) 
-0

>  <r_i_glide_rewards>  (82) 
-1.70134

>  <r_i_glide_evdw>  (82) 
-24.2426

>  <r_i_glide_ecoul>  (82) 
-1.65478

>  <r_i_glide_erotb>  (82) 
0.226961

>  <r_i_glide_esite>  (82) 
-0.0192567

>  <r_i_glide_emodel>  (82) 
-30.1106

>  <r_i_glide_energy>  (82) 
-25.8974

>  <r_i_glide_einternal>  (82) 
1.33998

>  <r_i_glide_intrahb_reward>  (82) 
-0

>  <i_i_glide_confnum>  (82) 
3

>  <i_i_glide_posenum>  (82) 
36

>  <r_i_glide_eff_state_penalty>  (82) 
0

>  <ligand_id>  (82) 
20

>  <original_smiles>  (82) 
CC(=O)N1CC(=O)C2=C1C1CCCC1C2c1cccnc1

>  <smiles>  (82) 
[H]c1nc([H])c(C2([H])C3=C(N(C(=O)C([H])([H])[H])C([H])([H])C3=O)C3([H])C([H])([H])C([H])([H])C([H])([H])C23[H])c([H])c1[H]

$$$$
20:0:2
     RDKit          3D

 39 42  0  0  1  0  0  0  0  0999 V2000
    2.4122  -11.0249    4.8563 C   0  0  0  0  0  0  0  0  0  0  0  0
    1.1490  -10.8386    4.0365 C   0  0  0  0  0  0  0  0  0  0  0  0
    0.8029  -11.7460    3.2844 O   0  0  0  0  0  0  0  0  0  0  0  0
    0.4712   -9.6722    4.0892 N   0  0  0  0  0  0  0  0  0  0  0  0
   -0.5984   -9.3381    3.1148 C   0  0  0  0  0  0  0  0  0  0  0  0
   -0.9790   -7.9101    3.4945 C   0  0  0  0  0  0  0  0  0  0  0  0
   -1.7755   -7.1996    2.8817 O   0  0  0  0  0  0  0  0  0  0  0  0
   -0.1819   -7.5842    4.6452 C   0  0  0  0  0  0  0  0  0  0  0  0
    0.5989   -8.5910    4.9683 C   0  0  0  0  0  0  0  0  0  0  0  0
    1.5779   -8.1349    6.0312 C   0  0  2  0  0  0  0  0  0  0  0  0
    2.0710   -8.8241    7.3108 C   0  0  0  0  0  0  0  0  0  0  0  0
    2.3814   -7.5935    8.2217 C   0  0  0  0  0  0  0  0  0  0  0  0
    1.5793   -6.3771    7.6852 C   0  0  0  0  0  0  0  0  0  0  0  0
    0.6957   -7.0311    6.6454 C   0  0  1  0  0  0  0  0  0  0  0  0
   -0.0463   -6.3363    5.4758 C   0  0  1  0  0  0  0  0  0  0  0  0
    0.7622   -5.1940    4.8615 C   0  0  0  0  0  0  0  0  0  0  0  0
    1.7766   -5.4098    3.8992 C   0  0  0  0  0  0  0  0  0  0  0  0
    2.4731   -4.2945    3.3881 C   0  0  0  0  0  0  0  0  0  0  0  0
    2.1348   -3.0152    3.8641 C   0  0  0  0  0  0  0  0  0  0  0  0
    1.1839   -2.7983    4.7930 N   0  0  0  0  0  0  0  0  0  0  0  0
    0.5232   -3.8713    5.2787 C   0  0  0  0  0  0  0  0  0  0  0  0
    3.0980  -10.2047    4.6726 H   0  0  0  0  0  0  0  0  0  0  0  0
    2.9041  -11.9583    4.5871 H   0  0  0  0  0  0  0  0  0  0  0  0
    2.1579  -11.0701    5.9062 H   0  0  0  0  0  0  0  0  0  0  0  0
   -0.2491   -9.3952    2.0841 H   0  0  0  0  0  0  0  0  0  0  0  0
   -1.4649   -9.9877    3.2262 H   0  0  0  0  0  0  0  0  0  0  0  0
    2.4280   -7.6773    5.5227 H   0  0  0  0  0  0  0  0  0  0  0  0
    1.3361   -9.4863    7.7637 H   0  0  0  0  0  0  0  0  0  0  0  0
    2.9769   -9.4040    7.1436 H   0  0  0  0  0  0  0  0  0  0  0  0
    2.1550   -7.8107    9.2664 H   0  0  0  0  0  0  0  0  0  0  0  0
    3.4409   -7.3507    8.1763 H   0  0  0  0  0  0  0  0  0  0  0  0
    0.9990   -5.8888    8.4730 H   0  0  0  0  0  0  0  0  0  0  0  0
    2.2372   -5.6372    7.2281 H   0  0  0  0  0  0  0  0  0  0  0  0
   -0.0863   -7.5362    7.2135 H   0  0  0  0  0  0  0  0  0  0  0  0
   -1.0375   -5.9809    5.7636 H   0  0  0  0  0  0  0  0  0  0  0  0
    2.0323   -6.3960    3.5475 H   0  0  0  0  0  0  0  0  0  0  0  0
    3.2515   -4.4127    2.6449 H   0  0  0  0  0  0  0  0  0  0  0  0
    2.6420   -2.1353    3.4956 H   0  0  0  0  0  0  0  0  0  0  0  0
   -0.2290   -3.6633    6.0247 H   0  0  0  0  0  0  0  0  0  0  0  0
  1  2  1  0
  1 22  1  0
  1 23  1  0
  1 24  1  0
  2  3  2  0
  2  4  1  0
  4  9  1  0
  4  5  1  0
  5  6  1  0
  5 25  1  0
  5 26  1  0
  6  7  2  0
  6  8  1  0
  8 15  1  0
  8  9  2  0
  9 10  1  0
 10 14  1  0
 10 11  1  0
 10 27  1  6
 11 12  1  0
 11 28  1  0
 11 29  1  0
 12 13  1  0
 12 30  1  0
 12 31  1  0
 13 14  1  0
 13 32  1  0
 13 33  1  0
 14 15  1  0
 14 34  1  1
 15 16  1  0
 15 35  1  1
 16 21  1  0
 16 17  2  0
 17 18  1  0
 17 36  1  0
 18 19  2  0
 18 37  1  0
 19 20  1  0
 19 38  1  0
 20 21  2  0
 21 39  1  0
M  END
>  <i_m_ct_stereo_status>  (83) 
1

>  <s_m_source_file>  (83) 
/var/tmp/pbs.5076255.sched01/tmpgqtxr8g4/0xtbcsf6k.sdf

>  <i_m_source_file_index>  (83) 
32

>  <i_lp_mmshare_version>  (83) 
48012

>  <i_f3d_flags>  (83) 
0

>  <s_epik_input>  (83) 
Tz1DMVtDSDJdTihDKD1PKVtDSDNdKUMoPUMxMilbQ0BIXTNbQ0BASF0oW0NIMl1bQ0gyXVtDSDJdMylbQ0BIXTJjNFtjSF1bY0hdW2NIXW5bY0hdNA==

>  <s_epik_cmdline>  (83) 
J2VwaWtfcHl0aG9uJywgJy1waHQnLCAnMi4wJywgJy1waCcsICc3LjAnLCAnLXRuJywgJzgnLCAnLW1hJywgJzIwMCcsICctaW1hZScsICc8aW5maWxlLm1hZT4nLCAnLW9tYWUnLCAnPG91dGZpbGUubWFlPic=

>  <r_epik_Ionization_Penalty>  (83) 
0.00329904

>  <r_epik_Ionization_Penalty_Charging>  (83) 
0

>  <r_epik_Ionization_Penalty_Neutral>  (83) 
0.00329904

>  <r_epik_State_Penalty>  (83) 
0.00233124

>  <r_epik_Charging_Adjusted_Penalty>  (83) 
0.00233124

>  <i_epik_Tot_Q>  (83) 
0

>  <i_epik_Tot_abs_Q>  (83) 
0

>  <s_lp_Force_Field>  (83) 
OPLS3e

>  <r_lp_Energy>  (83) 
31.6947

>  <b_lp_Chiralities_Consistent>  (83) 
1

>  <s_lp_Variant>  (83) 
20:0-1

>  <s_i_glide_gridfile>  (83) 
pfpi4k_grid

>  <i_i_glide_lignum>  (83) 
32

>  <i_i_glide_rotatable_bonds>  (83) 
2

>  <r_i_docking_score>  (83) 
-3.06314

>  <r_i_glide_ligand_efficiency>  (83) 
-0.145864

>  <r_i_glide_ligand_efficiency_sa>  (83) 
-0.402427

>  <r_i_glide_ligand_efficiency_ln>  (83) 
-0.757356

>  <r_i_glide_gscore>  (83) 
-3.06314

>  <r_i_glide_lipo>  (83) 
-0.00155955

>  <r_i_glide_hbond>  (83) 
-0.130889

>  <r_i_glide_metal>  (83) 
-0

>  <r_i_glide_rewards>  (83) 
-1.59737

>  <r_i_glide_evdw>  (83) 
-22.6882

>  <r_i_glide_ecoul>  (83) 
-2.09888

>  <r_i_glide_erotb>  (83) 
0.226961

>  <r_i_glide_esite>  (83) 
-0.111039

>  <r_i_glide_emodel>  (83) 
-29.674

>  <r_i_glide_energy>  (83) 
-24.7871

>  <r_i_glide_einternal>  (83) 
0.384549

>  <r_i_glide_intrahb_reward>  (83) 
-0

>  <i_i_glide_confnum>  (83) 
3

>  <i_i_glide_posenum>  (83) 
9

>  <r_i_glide_eff_state_penalty>  (83) 
0

>  <ligand_id>  (83) 
20

>  <original_smiles>  (83) 
CC(=O)N1CC(=O)C2=C1C1CCCC1C2c1cccnc1

>  <smiles>  (83) 
[H]c1nc([H])c(C2([H])C3=C(N(C(=O)C([H])([H])[H])C([H])([H])C3=O)C3([H])C([H])([H])C([H])([H])C([H])([H])C23[H])c([H])c1[H]

$$$$
22:0:0
     RDKit          3D

 62 65  0  0  1  0  0  0  0  0999 V2000
    2.4925   -9.2978    4.3175 C   0  0  0  0  0  0  0  0  0  0  0  0
    2.8315   -8.6884    2.9404 C   0  0  0  0  0  0  0  0  0  0  0  0
    3.2153   -9.8128    1.9642 C   0  0  0  0  0  0  0  0  0  0  0  0
    1.6441   -7.8750    2.3814 C   0  0  0  0  0  0  0  0  0  0  0  0
    1.8928   -6.4475    2.8562 C   0  0  0  0  0  0  0  0  0  0  0  0
    1.0784   -5.5412    2.6959 O   0  0  0  0  0  0  0  0  0  0  0  0
    3.2177   -6.3458    3.6152 C   0  0  1  0  0  0  0  0  0  0  0  0
    3.8865   -7.6140    3.1171 C   0  0  0  0  0  0  0  0  0  0  0  0
    5.1606   -7.6556    2.6773 C   0  0  0  0  0  0  0  0  0  0  0  0
    6.0670   -6.4443    2.6356 C   0  0  0  0  0  0  0  0  0  0  0  0
    5.2980   -5.0914    2.5762 C   0  0  2  0  0  0  0  0  0  0  0  0
    4.1375   -5.0681    3.6354 C   0  0  2  0  0  0  0  0  0  0  0  0
    4.7891   -5.0882    5.0484 C   0  0  0  0  0  0  0  0  0  0  0  0
    3.3865   -3.7169    3.6068 C   0  0  0  0  0  0  0  0  0  0  0  0
    3.1186   -3.1178    2.2319 C   0  0  0  0  0  0  0  0  0  0  0  0
    4.3821   -3.0757    1.3463 C   0  0  2  0  0  0  0  0  0  0  0  0
    4.2815   -2.1392    0.0803 C   0  0  1  0  0  0  0  0  0  0  0  0
    3.1952   -2.5817   -0.9325 C   0  0  0  0  0  0  0  0  0  0  0  0
    3.9693   -0.6622    0.5036 C   0  0  0  0  0  0  0  0  0  0  0  0
    2.6218   -0.3841    0.8805 O   0  0  0  0  0  0  0  0  0  0  0  0
    5.6564   -2.1439   -0.6625 C   0  0  1  0  0  0  0  0  0  0  0  0
    6.6711   -1.4512    0.0422 O   0  0  0  0  0  0  0  0  0  0  0  0
    6.1988   -3.5531   -0.9488 C   0  0  0  0  0  0  0  0  0  0  0  0
    6.2876   -4.4095    0.3292 C   0  0  0  0  0  0  0  0  0  0  0  0
    4.9629   -4.5245    1.1381 C   0  0  1  0  0  0  0  0  0  0  0  0
    4.0009   -5.4672    0.3597 C   0  0  0  0  0  0  0  0  0  0  0  0
    1.7148  -10.0615    4.2378 H   0  0  0  0  0  0  0  0  0  0  0  0
    2.1398   -8.5509    5.0339 H   0  0  0  0  0  0  0  0  0  0  0  0
    3.3764   -9.7716    4.7548 H   0  0  0  0  0  0  0  0  0  0  0  0
    2.3750  -10.4918    1.8414 H   0  0  0  0  0  0  0  0  0  0  0  0
    4.0518  -10.4056    2.3344 H   0  0  0  0  0  0  0  0  0  0  0  0
    3.4742   -9.4335    0.9754 H   0  0  0  0  0  0  0  0  0  0  0  0
    1.6316   -7.8819    1.2901 H   0  0  0  0  0  0  0  0  0  0  0  0
    0.6780   -8.2459    2.7252 H   0  0  0  0  0  0  0  0  0  0  0  0
    2.9265   -6.5313    4.6470 H   0  0  0  0  0  0  0  0  0  0  0  0
    5.5755   -8.5709    2.2799 H   0  0  0  0  0  0  0  0  0  0  0  0
    6.6834   -6.4759    3.5347 H   0  0  0  0  0  0  0  0  0  0  0  0
    6.7663   -6.5588    1.8124 H   0  0  0  0  0  0  0  0  0  0  0  0
    6.0305   -4.3757    2.9501 H   0  0  0  0  0  0  0  0  0  0  0  0
    5.5249   -4.2932    5.1702 H   0  0  0  0  0  0  0  0  0  0  0  0
    5.2913   -6.0340    5.2564 H   0  0  0  0  0  0  0  0  0  0  0  0
    4.0383   -4.9516    5.8303 H   0  0  0  0  0  0  0  0  0  0  0  0
    2.4466   -3.7930    4.1456 H   0  0  0  0  0  0  0  0  0  0  0  0
    3.9662   -2.9669    4.1526 H   0  0  0  0  0  0  0  0  0  0  0  0
    2.2825   -3.5891    1.7232 H   0  0  0  0  0  0  0  0  0  0  0  0
    2.7782   -2.1182    2.4768 H   0  0  0  0  0  0  0  0  0  0  0  0
    5.1189   -2.5722    1.9654 H   0  0  0  0  0  0  0  0  0  0  0  0
    3.0577   -1.8221   -1.7050 H   0  0  0  0  0  0  0  0  0  0  0  0
    2.2315   -2.7423   -0.4540 H   0  0  0  0  0  0  0  0  0  0  0  0
    3.4454   -3.4972   -1.4630 H   0  0  0  0  0  0  0  0  0  0  0  0
    4.6015   -0.3805    1.3458 H   0  0  0  0  0  0  0  0  0  0  0  0
    4.2275    0.0202   -0.3033 H   0  0  0  0  0  0  0  0  0  0  0  0
    2.0063   -0.6374    0.1791 H   0  0  0  0  0  0  0  0  0  0  0  0
    5.5512   -1.6211   -1.6146 H   0  0  0  0  0  0  0  0  0  0  0  0
    6.7574   -1.8420    0.9043 H   0  0  0  0  0  0  0  0  0  0  0  0
    5.5829   -4.0479   -1.6966 H   0  0  0  0  0  0  0  0  0  0  0  0
    7.1865   -3.4771   -1.4098 H   0  0  0  0  0  0  0  0  0  0  0  0
    6.6269   -5.4011    0.0344 H   0  0  0  0  0  0  0  0  0  0  0  0
    7.0781   -4.0006    0.9622 H   0  0  0  0  0  0  0  0  0  0  0  0
    4.0927   -5.3650   -0.7182 H   0  0  0  0  0  0  0  0  0  0  0  0
    2.9558   -5.2927    0.5916 H   0  0  0  0  0  0  0  0  0  0  0  0
    4.1983   -6.5197    0.5469 H   0  0  0  0  0  0  0  0  0  0  0  0
  1  2  1  0
  1 27  1  0
  1 28  1  0
  1 29  1  0
  2  8  1  0
  2  3  1  0
  2  4  1  0
  3 30  1  0
  3 31  1  0
  3 32  1  0
  4  5  1  0
  4 33  1  0
  4 34  1  0
  5  6  2  0
  5  7  1  0
  7 12  1  0
  7  8  1  0
  7 35  1  1
  8  9  2  0
  9 10  1  0
  9 36  1  0
 10 11  1  0
 10 37  1  0
 10 38  1  0
 11 25  1  0
 11 12  1  0
 11 39  1  1
 12 13  1  1
 12 14  1  0
 13 40  1  0
 13 41  1  0
 13 42  1  0
 14 15  1  0
 14 43  1  0
 14 44  1  0
 15 16  1  0
 15 45  1  0
 15 46  1  0
 16 25  1  0
 16 17  1  0
 16 47  1  1
 17 18  1  6
 17 19  1  0
 17 21  1  0
 18 48  1  0
 18 49  1  0
 18 50  1  0
 19 20  1  0
 19 51  1  0
 19 52  1  0
 20 53  1  0
 21 22  1  0
 21 23  1  0
 21 54  1  6
 22 55  1  0
 23 24  1  0
 23 56  1  0
 23 57  1  0
 24 25  1  0
 24 58  1  0
 24 59  1  0
 25 26  1  6
 26 60  1  0
 26 61  1  0
 26 62  1  0
M  END
>  <i_m_ct_stereo_status>  (84) 
1

>  <s_m_source_file>  (84) 
/var/tmp/pbs.5076255.sched01/tmpgqtxr8g4/0xtbcsf6k.sdf

>  <i_m_source_file_index>  (84) 
35

>  <i_lp_mmshare_version>  (84) 
48012

>  <i_f3d_flags>  (84) 
0

>  <s_epik_input>  (84) 
Tz1DMVtDSDJdQyhbQ0gzXSkoW0NIM10pQyhbQ0BIXTFbQ0BAXTIzW0NIM10pPVtDSF1bQ0gyXVtDQEhdMltDQEBdNChbQ0gzXSlbQ0BIXShbQ0gyXVtDSDJdMylbQ0BAXShbQ0gzXSkoW0NIMl1bT0hdKVtDQEBIXShbT0hdKVtDSDJdW0NIMl00

>  <s_epik_cmdline>  (84) 
J2VwaWtfcHl0aG9uJywgJy1waHQnLCAnMi4wJywgJy1waCcsICc3LjAnLCAnLXRuJywgJzgnLCAnLW1hJywgJzIwMCcsICctaW1hZScsICc8aW5maWxlLm1hZT4nLCAnLW9tYWUnLCAnPG91dGZpbGUubWFlPic=

>  <r_lp_tautomer_probability>  (84) 
1

>  <r_epik_Ionization_Penalty>  (84) 
1.69622e-06

>  <r_epik_Ionization_Penalty_Charging>  (84) 
0

>  <r_epik_Ionization_Penalty_Neutral>  (84) 
1.69622e-06

>  <r_epik_State_Penalty>  (84) 
-0

>  <r_epik_Charging_Adjusted_Penalty>  (84) 
0

>  <i_epik_Tot_Q>  (84) 
0

>  <i_epik_Tot_abs_Q>  (84) 
0

>  <s_lp_Force_Field>  (84) 
OPLS3e

>  <r_lp_Energy>  (84) 
55.7401

>  <b_lp_Chiralities_Consistent>  (84) 
1

>  <s_lp_Variant>  (84) 
22:0-1

>  <s_i_glide_gridfile>  (84) 
pfpi4k_grid

>  <i_i_glide_lignum>  (84) 
35

>  <i_i_glide_rotatable_bonds>  (84) 
3

>  <r_i_docking_score>  (84) 
-3.21339

>  <r_i_glide_ligand_efficiency>  (84) 
-0.123592

>  <r_i_glide_ligand_efficiency_sa>  (84) 
-0.366141

>  <r_i_glide_ligand_efficiency_ln>  (84) 
-0.754655

>  <r_i_glide_gscore>  (84) 
-3.21339

>  <r_i_glide_lipo>  (84) 
-0.33583

>  <r_i_glide_hbond>  (84) 
-0.220141

>  <r_i_glide_metal>  (84) 
-0

>  <r_i_glide_rewards>  (84) 
-0.950931

>  <r_i_glide_evdw>  (84) 
-17.8019

>  <r_i_glide_ecoul>  (84) 
-6.33977

>  <r_i_glide_erotb>  (84) 
0.147559

>  <r_i_glide_esite>  (84) 
-0.0129901

>  <r_i_glide_emodel>  (84) 
-29.1358

>  <r_i_glide_energy>  (84) 
-24.1417

>  <r_i_glide_einternal>  (84) 
1.84401

>  <r_i_glide_intrahb_reward>  (84) 
-0

>  <i_i_glide_confnum>  (84) 
3

>  <i_i_glide_posenum>  (84) 
26

>  <r_i_glide_eff_state_penalty>  (84) 
0

>  <ligand_id>  (84) 
22

>  <original_smiles>  (84) 
CC1(C)CC(=O)C2C1=CCC1C2(C)CCC2C(C)(CO)C(O)CCC21C

>  <smiles>  (84) 
[H]OC([H])([H])C1(C([H])([H])[H])C([H])(O[H])C([H])([H])C([H])([H])C2(C([H])([H])[H])C3([H])C([H])([H])C([H])=C4C([H])(C(=O)C([H])([H])C4(C([H])([H])[H])C([H])([H])[H])C3(C([H])([H])[H])C([H])([H])C([H])([H])C12[H]

$$$$
22:0:1
     RDKit          3D

 62 65  0  0  1  0  0  0  0  0999 V2000
    1.8665   -8.3540    4.8626 C   0  0  0  0  0  0  0  0  0  0  0  0
    2.8067   -8.0944    3.6673 C   0  0  0  0  0  0  0  0  0  0  0  0
    3.7940   -9.2702    3.5291 C   0  0  0  0  0  0  0  0  0  0  0  0
    2.0148   -7.8970    2.3544 C   0  0  0  0  0  0  0  0  0  0  0  0
    1.7855   -6.3881    2.2566 C   0  0  0  0  0  0  0  0  0  0  0  0
    1.0604   -5.8702    1.4099 O   0  0  0  0  0  0  0  0  0  0  0  0
    2.4803   -5.6582    3.4048 C   0  0  1  0  0  0  0  0  0  0  0  0
    3.4634   -6.7296    3.8317 C   0  0  0  0  0  0  0  0  0  0  0  0
    4.7671   -6.4918    4.0703 C   0  0  0  0  0  0  0  0  0  0  0  0
    5.3949   -5.1176    3.9436 C   0  0  0  0  0  0  0  0  0  0  0  0
    4.6166   -4.1609    2.9907 C   0  0  2  0  0  0  0  0  0  0  0  0
    3.0785   -4.2007    3.3024 C   0  0  2  0  0  0  0  0  0  0  0  0
    2.8648   -3.6085    4.7253 C   0  0  0  0  0  0  0  0  0  0  0  0
    2.2999   -3.2223    2.3868 C   0  0  0  0  0  0  0  0  0  0  0  0
    2.7339   -3.1626    0.9135 C   0  0  0  0  0  0  0  0  0  0  0  0
    4.2658   -2.9877    0.7639 C   0  0  2  0  0  0  0  0  0  0  0  0
    4.7665   -2.5404   -0.6689 C   0  0  1  0  0  0  0  0  0  0  0  0
    4.4247   -3.5801   -1.7665 C   0  0  0  0  0  0  0  0  0  0  0  0
    4.0777   -1.2036   -1.0808 C   0  0  0  0  0  0  0  0  0  0  0  0
    4.5218   -0.6750   -2.3190 O   0  0  0  0  0  0  0  0  0  0  0  0
    6.3066   -2.3145   -0.6322 C   0  0  1  0  0  0  0  0  0  0  0  0
    6.6637   -1.1537    0.0947 O   0  0  0  0  0  0  0  0  0  0  0  0
    7.0732   -3.4888   -0.0231 C   0  0  0  0  0  0  0  0  0  0  0  0
    6.5599   -3.8775    1.3709 C   0  0  0  0  0  0  0  0  0  0  0  0
    5.0352   -4.1717    1.4628 C   0  0  1  0  0  0  0  0  0  0  0  0
    4.7648   -5.5576    0.8057 C   0  0  0  0  0  0  0  0  0  0  0  0
    1.3554   -9.3147    4.7660 H   0  0  0  0  0  0  0  0  0  0  0  0
    1.0952   -7.5873    4.9618 H   0  0  0  0  0  0  0  0  0  0  0  0
    2.4288   -8.3710    5.7969 H   0  0  0  0  0  0  0  0  0  0  0  0
    3.2504  -10.1969    3.3281 H   0  0  0  0  0  0  0  0  0  0  0  0
    4.3676   -9.4242    4.4438 H   0  0  0  0  0  0  0  0  0  0  0  0
    4.4938   -9.1220    2.7046 H   0  0  0  0  0  0  0  0  0  0  0  0
    2.5914   -8.2261    1.4877 H   0  0  0  0  0  0  0  0  0  0  0  0
    1.0727   -8.4428    2.3490 H   0  0  0  0  0  0  0  0  0  0  0  0
    1.7073   -5.6205    4.1690 H   0  0  0  0  0  0  0  0  0  0  0  0
    5.4406   -7.2968    4.3229 H   0  0  0  0  0  0  0  0  0  0  0  0
    5.4324   -4.6876    4.9454 H   0  0  0  0  0  0  0  0  0  0  0  0
    6.4323   -5.2394    3.6451 H   0  0  0  0  0  0  0  0  0  0  0  0
    4.9371   -3.1716    3.3205 H   0  0  0  0  0  0  0  0  0  0  0  0
    3.3145   -2.6176    4.8245 H   0  0  0  0  0  0  0  0  0  0  0  0
    3.2906   -4.2408    5.5034 H   0  0  0  0  0  0  0  0  0  0  0  0
    1.8040   -3.5017    4.9510 H   0  0  0  0  0  0  0  0  0  0  0  0
    1.2371   -3.4312    2.4783 H   0  0  0  0  0  0  0  0  0  0  0  0
    2.4073   -2.2061    2.7662 H   0  0  0  0  0  0  0  0  0  0  0  0
    2.3730   -4.0137    0.3461 H   0  0  0  0  0  0  0  0  0  0  0  0
    2.2136   -2.3096    0.4908 H   0  0  0  0  0  0  0  0  0  0  0  0
    4.4816   -2.1136    1.3783 H   0  0  0  0  0  0  0  0  0  0  0  0
    4.6351   -3.1932   -2.7642 H   0  0  0  0  0  0  0  0  0  0  0  0
    3.3696   -3.8494   -1.7452 H   0  0  0  0  0  0  0  0  0  0  0  0
    5.0067   -4.4942   -1.6897 H   0  0  0  0  0  0  0  0  0  0  0  0
    3.0112   -1.3477   -1.1986 H   0  0  0  0  0  0  0  0  0  0  0  0
    4.2093   -0.4367   -0.3155 H   0  0  0  0  0  0  0  0  0  0  0  0
    3.9420    0.0359   -2.5413 H   0  0  0  0  0  0  0  0  0  0  0  0
    6.6648   -2.1722   -1.6537 H   0  0  0  0  0  0  0  0  0  0  0  0
    6.3623   -1.2560    0.9867 H   0  0  0  0  0  0  0  0  0  0  0  0
    6.9968   -4.3303   -0.6971 H   0  0  0  0  0  0  0  0  0  0  0  0
    8.1387   -3.2567    0.0267 H   0  0  0  0  0  0  0  0  0  0  0  0
    7.1343   -4.7469    1.6898 H   0  0  0  0  0  0  0  0  0  0  0  0
    6.8115   -3.0738    2.0624 H   0  0  0  0  0  0  0  0  0  0  0  0
    5.4016   -5.7537   -0.0512 H   0  0  0  0  0  0  0  0  0  0  0  0
    3.7438   -5.6704    0.4536 H   0  0  0  0  0  0  0  0  0  0  0  0
    4.9621   -6.3853    1.4813 H   0  0  0  0  0  0  0  0  0  0  0  0
  1  2  1  0
  1 27  1  0
  1 28  1  0
  1 29  1  0
  2  8  1  0
  2  3  1  0
  2  4  1  0
  3 30  1  0
  3 31  1  0
  3 32  1  0
  4  5  1  0
  4 33  1  0
  4 34  1  0
  5  6  2  0
  5  7  1  0
  7 12  1  0
  7  8  1  0
  7 35  1  1
  8  9  2  0
  9 10  1  0
  9 36  1  0
 10 11  1  0
 10 37  1  0
 10 38  1  0
 11 25  1  0
 11 12  1  0
 11 39  1  1
 12 13  1  1
 12 14  1  0
 13 40  1  0
 13 41  1  0
 13 42  1  0
 14 15  1  0
 14 43  1  0
 14 44  1  0
 15 16  1  0
 15 45  1  0
 15 46  1  0
 16 25  1  0
 16 17  1  0
 16 47  1  1
 17 18  1  6
 17 19  1  0
 17 21  1  0
 18 48  1  0
 18 49  1  0
 18 50  1  0
 19 20  1  0
 19 51  1  0
 19 52  1  0
 20 53  1  0
 21 22  1  0
 21 23  1  0
 21 54  1  6
 22 55  1  0
 23 24  1  0
 23 56  1  0
 23 57  1  0
 24 25  1  0
 24 58  1  0
 24 59  1  0
 25 26  1  6
 26 60  1  0
 26 61  1  0
 26 62  1  0
M  END
>  <i_m_ct_stereo_status>  (85) 
1

>  <s_m_source_file>  (85) 
/var/tmp/pbs.5076255.sched01/tmpgqtxr8g4/0xtbcsf6k.sdf

>  <i_m_source_file_index>  (85) 
35

>  <i_lp_mmshare_version>  (85) 
48012

>  <i_f3d_flags>  (85) 
0

>  <s_epik_input>  (85) 
Tz1DMVtDSDJdQyhbQ0gzXSkoW0NIM10pQyhbQ0BIXTFbQ0BAXTIzW0NIM10pPVtDSF1bQ0gyXVtDQEhdMltDQEBdNChbQ0gzXSlbQ0BIXShbQ0gyXVtDSDJdMylbQ0BAXShbQ0gzXSkoW0NIMl1bT0hdKVtDQEBIXShbT0hdKVtDSDJdW0NIMl00

>  <s_epik_cmdline>  (85) 
J2VwaWtfcHl0aG9uJywgJy1waHQnLCAnMi4wJywgJy1waCcsICc3LjAnLCAnLXRuJywgJzgnLCAnLW1hJywgJzIwMCcsICctaW1hZScsICc8aW5maWxlLm1hZT4nLCAnLW9tYWUnLCAnPG91dGZpbGUubWFlPic=

>  <r_lp_tautomer_probability>  (85) 
1

>  <r_epik_Ionization_Penalty>  (85) 
1.69622e-06

>  <r_epik_Ionization_Penalty_Charging>  (85) 
0

>  <r_epik_Ionization_Penalty_Neutral>  (85) 
1.69622e-06

>  <r_epik_State_Penalty>  (85) 
-0

>  <r_epik_Charging_Adjusted_Penalty>  (85) 
0

>  <i_epik_Tot_Q>  (85) 
0

>  <i_epik_Tot_abs_Q>  (85) 
0

>  <s_lp_Force_Field>  (85) 
OPLS3e

>  <r_lp_Energy>  (85) 
55.7401

>  <b_lp_Chiralities_Consistent>  (85) 
1

>  <s_lp_Variant>  (85) 
22:0-1

>  <s_i_glide_gridfile>  (85) 
pfpi4k_grid

>  <i_i_glide_lignum>  (85) 
35

>  <i_i_glide_rotatable_bonds>  (85) 
3

>  <r_i_docking_score>  (85) 
-3.09498

>  <r_i_glide_ligand_efficiency>  (85) 
-0.119038

>  <r_i_glide_ligand_efficiency_sa>  (85) 
-0.352648

>  <r_i_glide_ligand_efficiency_ln>  (85) 
-0.726845

>  <r_i_glide_gscore>  (85) 
-3.09498

>  <r_i_glide_lipo>  (85) 
-0.350829

>  <r_i_glide_hbond>  (85) 
-0.150947

>  <r_i_glide_metal>  (85) 
-0

>  <r_i_glide_rewards>  (85) 
-0.950931

>  <r_i_glide_evdw>  (85) 
-17.786

>  <r_i_glide_ecoul>  (85) 
-5.83191

>  <r_i_glide_erotb>  (85) 
0.147559

>  <r_i_glide_esite>  (85) 
-0.0257436

>  <r_i_glide_emodel>  (85) 
-29.058

>  <r_i_glide_energy>  (85) 
-23.6179

>  <r_i_glide_einternal>  (85) 
0.428328

>  <r_i_glide_intrahb_reward>  (85) 
-0

>  <i_i_glide_confnum>  (85) 
1

>  <i_i_glide_posenum>  (85) 
24

>  <r_i_glide_eff_state_penalty>  (85) 
0

>  <ligand_id>  (85) 
22

>  <original_smiles>  (85) 
CC1(C)CC(=O)C2C1=CCC1C2(C)CCC2C(C)(CO)C(O)CCC21C

>  <smiles>  (85) 
[H]OC([H])([H])C1(C([H])([H])[H])C([H])(O[H])C([H])([H])C([H])([H])C2(C([H])([H])[H])C3([H])C([H])([H])C([H])=C4C([H])(C(=O)C([H])([H])C4(C([H])([H])[H])C([H])([H])[H])C3(C([H])([H])[H])C([H])([H])C([H])([H])C12[H]

$$$$
22:0:2
     RDKit          3D

 62 65  0  0  1  0  0  0  0  0999 V2000
    2.2222   -9.0184    4.2893 C   0  0  0  0  0  0  0  0  0  0  0  0
    3.1718   -8.6021    3.1453 C   0  0  0  0  0  0  0  0  0  0  0  0
    4.2509   -9.6891    2.9585 C   0  0  0  0  0  0  0  0  0  0  0  0
    2.4032   -8.3568    1.8272 C   0  0  0  0  0  0  0  0  0  0  0  0
    2.0568   -6.8671    1.8341 C   0  0  0  0  0  0  0  0  0  0  0  0
    1.3101   -6.3324    1.0149 O   0  0  0  0  0  0  0  0  0  0  0  0
    2.6734   -6.1820    3.0529 C   0  0  1  0  0  0  0  0  0  0  0  0
    3.7202   -7.2088    3.4320 C   0  0  0  0  0  0  0  0  0  0  0  0
    4.9954   -6.8952    3.7315 C   0  0  0  0  0  0  0  0  0  0  0  0
    5.5226   -5.4748    3.7312 C   0  0  0  0  0  0  0  0  0  0  0  0
    4.7048   -4.5079    2.8225 C   0  0  2  0  0  0  0  0  0  0  0  0
    3.1706   -4.6820    3.0789 C   0  0  2  0  0  0  0  0  0  0  0  0
    2.8648   -4.2163    4.5297 C   0  0  0  0  0  0  0  0  0  0  0  0
    2.3555   -3.6988    2.2066 C   0  0  0  0  0  0  0  0  0  0  0  0
    2.8155   -3.4994    0.7589 C   0  0  0  0  0  0  0  0  0  0  0  0
    4.3284   -3.2018    0.6740 C   0  0  2  0  0  0  0  0  0  0  0  0
    4.8312   -2.6161   -0.7026 C   0  0  1  0  0  0  0  0  0  0  0  0
    4.6053   -3.5933   -1.8828 C   0  0  0  0  0  0  0  0  0  0  0  0
    4.0494   -1.3096   -1.0402 C   0  0  0  0  0  0  0  0  0  0  0  0
    4.5203   -0.6510   -2.2012 O   0  0  0  0  0  0  0  0  0  0  0  0
    6.3481   -2.2812   -0.5948 C   0  0  1  0  0  0  0  0  0  0  0  0
    6.5949   -1.1711    0.2434 O   0  0  0  0  0  0  0  0  0  0  0  0
    7.1887   -3.4365   -0.0445 C   0  0  0  0  0  0  0  0  0  0  0  0
    6.6642   -3.9593    1.2999 C   0  0  0  0  0  0  0  0  0  0  0  0
    5.1658   -4.3741    1.3136 C   0  0  1  0  0  0  0  0  0  0  0  0
    5.0186   -5.7238    0.5498 C   0  0  0  0  0  0  0  0  0  0  0  0
    1.7903  -10.0059    4.1062 H   0  0  0  0  0  0  0  0  0  0  0  0
    1.3916   -8.3197    4.4155 H   0  0  0  0  0  0  0  0  0  0  0  0
    2.7580   -9.0614    5.2380 H   0  0  0  0  0  0  0  0  0  0  0  0
    3.7868  -10.6353    2.6705 H   0  0  0  0  0  0  0  0  0  0  0  0
    4.8050   -9.8661    3.8804 H   0  0  0  0  0  0  0  0  0  0  0  0
    4.9614   -9.4261    2.1735 H   0  0  0  0  0  0  0  0  0  0  0  0
    3.0284   -8.5840    0.9608 H   0  0  0  0  0  0  0  0  0  0  0  0
    1.5068   -8.9738    1.7479 H   0  0  0  0  0  0  0  0  0  0  0  0
    1.8783   -6.2536    3.7916 H   0  0  0  0  0  0  0  0  0  0  0  0
    5.7170   -7.6699    3.9484 H   0  0  0  0  0  0  0  0  0  0  0  0
    5.4939   -5.1193    4.7630 H   0  0  0  0  0  0  0  0  0  0  0  0
    6.5739   -5.4992    3.4580 H   0  0  0  0  0  0  0  0  0  0  0  0
    4.9439   -3.5264    3.2346 H   0  0  0  0  0  0  0  0  0  0  0  0
    3.2329   -3.2039    4.7187 H   0  0  0  0  0  0  0  0  0  0  0  0
    3.3115   -4.8751    5.2743 H   0  0  0  0  0  0  0  0  0  0  0  0
    1.7903   -4.2088    4.7203 H   0  0  0  0  0  0  0  0  0  0  0  0
    1.3264   -4.0219    2.2311 H   0  0  0  0  0  0  0  0  0  0  0  0
    2.3555   -2.7063    2.6630 H   0  0  0  0  0  0  0  0  0  0  0  0
    2.5360   -4.3350    0.1258 H   0  0  0  0  0  0  0  0  0  0  0  0
    2.2291   -2.6673    0.3803 H   0  0  0  0  0  0  0  0  0  0  0  0
    4.4628   -2.3622    1.3559 H   0  0  0  0  0  0  0  0  0  0  0  0
    4.8127   -3.1167   -2.8433 H   0  0  0  0  0  0  0  0  0  0  0  0
    3.5717   -3.9389   -1.9167 H   0  0  0  0  0  0  0  0  0  0  0  0
    5.2539   -4.4623   -1.8494 H   0  0  0  0  0  0  0  0  0  0  0  0
    2.9985   -1.5257   -1.2129 H   0  0  0  0  0  0  0  0  0  0  0  0
    4.0889   -0.5973   -0.2154 H   0  0  0  0  0  0  0  0  0  0  0  0
    3.9011    0.0397   -2.4019 H   0  0  0  0  0  0  0  0  0  0  0  0
    6.7162   -2.0284   -1.5912 H   0  0  0  0  0  0  0  0  0  0  0  0
    5.8999   -0.5406    0.1188 H   0  0  0  0  0  0  0  0  0  0  0  0
    7.2103   -4.2491   -0.7571 H   0  0  0  0  0  0  0  0  0  0  0  0
    8.2294   -3.1221    0.0576 H   0  0  0  0  0  0  0  0  0  0  0  0
    7.2941   -4.8062    1.5729 H   0  0  0  0  0  0  0  0  0  0  0  0
    6.8286   -3.1860    2.0472 H   0  0  0  0  0  0  0  0  0  0  0  0
    5.6935   -5.8072   -0.2955 H   0  0  0  0  0  0  0  0  0  0  0  0
    4.0206   -5.8849    0.1552 H   0  0  0  0  0  0  0  0  0  0  0  0
    5.2585   -6.5829    1.1704 H   0  0  0  0  0  0  0  0  0  0  0  0
  1  2  1  0
  1 27  1  0
  1 28  1  0
  1 29  1  0
  2  8  1  0
  2  3  1  0
  2  4  1  0
  3 30  1  0
  3 31  1  0
  3 32  1  0
  4  5  1  0
  4 33  1  0
  4 34  1  0
  5  6  2  0
  5  7  1  0
  7 12  1  0
  7  8  1  0
  7 35  1  1
  8  9  2  0
  9 10  1  0
  9 36  1  0
 10 11  1  0
 10 37  1  0
 10 38  1  0
 11 25  1  0
 11 12  1  0
 11 39  1  1
 12 13  1  1
 12 14  1  0
 13 40  1  0
 13 41  1  0
 13 42  1  0
 14 15  1  0
 14 43  1  0
 14 44  1  0
 15 16  1  0
 15 45  1  0
 15 46  1  0
 16 25  1  0
 16 17  1  0
 16 47  1  1
 17 18  1  6
 17 19  1  0
 17 21  1  0
 18 48  1  0
 18 49  1  0
 18 50  1  0
 19 20  1  0
 19 51  1  0
 19 52  1  0
 20 53  1  0
 21 22  1  0
 21 23  1  0
 21 54  1  6
 22 55  1  0
 23 24  1  0
 23 56  1  0
 23 57  1  0
 24 25  1  0
 24 58  1  0
 24 59  1  0
 25 26  1  6
 26 60  1  0
 26 61  1  0
 26 62  1  0
M  END
>  <i_m_ct_stereo_status>  (86) 
1

>  <s_m_source_file>  (86) 
/var/tmp/pbs.5076255.sched01/tmpgqtxr8g4/0xtbcsf6k.sdf

>  <i_m_source_file_index>  (86) 
35

>  <i_lp_mmshare_version>  (86) 
48012

>  <i_f3d_flags>  (86) 
0

>  <s_epik_input>  (86) 
Tz1DMVtDSDJdQyhbQ0gzXSkoW0NIM10pQyhbQ0BIXTFbQ0BAXTIzW0NIM10pPVtDSF1bQ0gyXVtDQEhdMltDQEBdNChbQ0gzXSlbQ0BIXShbQ0gyXVtDSDJdMylbQ0BAXShbQ0gzXSkoW0NIMl1bT0hdKVtDQEBIXShbT0hdKVtDSDJdW0NIMl00

>  <s_epik_cmdline>  (86) 
J2VwaWtfcHl0aG9uJywgJy1waHQnLCAnMi4wJywgJy1waCcsICc3LjAnLCAnLXRuJywgJzgnLCAnLW1hJywgJzIwMCcsICctaW1hZScsICc8aW5maWxlLm1hZT4nLCAnLW9tYWUnLCAnPG91dGZpbGUubWFlPic=

>  <r_lp_tautomer_probability>  (86) 
1

>  <r_epik_Ionization_Penalty>  (86) 
1.69622e-06

>  <r_epik_Ionization_Penalty_Charging>  (86) 
0

>  <r_epik_Ionization_Penalty_Neutral>  (86) 
1.69622e-06

>  <r_epik_State_Penalty>  (86) 
-0

>  <r_epik_Charging_Adjusted_Penalty>  (86) 
0

>  <i_epik_Tot_Q>  (86) 
0

>  <i_epik_Tot_abs_Q>  (86) 
0

>  <s_lp_Force_Field>  (86) 
OPLS3e

>  <r_lp_Energy>  (86) 
55.7401

>  <b_lp_Chiralities_Consistent>  (86) 
1

>  <s_lp_Variant>  (86) 
22:0-1

>  <s_i_glide_gridfile>  (86) 
pfpi4k_grid

>  <i_i_glide_lignum>  (86) 
35

>  <i_i_glide_rotatable_bonds>  (86) 
3

>  <r_i_docking_score>  (86) 
-2.99517

>  <r_i_glide_ligand_efficiency>  (86) 
-0.115199

>  <r_i_glide_ligand_efficiency_sa>  (86) 
-0.341276

>  <r_i_glide_ligand_efficiency_ln>  (86) 
-0.703406

>  <r_i_glide_gscore>  (86) 
-2.99517

>  <r_i_glide_lipo>  (86) 
-0.414318

>  <r_i_glide_hbond>  (86) 
-0.0932252

>  <r_i_glide_metal>  (86) 
-0

>  <r_i_glide_rewards>  (86) 
-0.950931

>  <r_i_glide_evdw>  (86) 
-20.5586

>  <r_i_glide_ecoul>  (86) 
-4.24818

>  <r_i_glide_erotb>  (86) 
0.147559

>  <r_i_glide_esite>  (86) 
-0.0191006

>  <r_i_glide_emodel>  (86) 
-29.5503

>  <r_i_glide_energy>  (86) 
-24.8067

>  <r_i_glide_einternal>  (86) 
1.28163

>  <r_i_glide_intrahb_reward>  (86) 
-0

>  <i_i_glide_confnum>  (86) 
4

>  <i_i_glide_posenum>  (86) 
25

>  <r_i_glide_eff_state_penalty>  (86) 
0

>  <ligand_id>  (86) 
22

>  <original_smiles>  (86) 
CC1(C)CC(=O)C2C1=CCC1C2(C)CCC2C(C)(CO)C(O)CCC21C

>  <smiles>  (86) 
[H]OC([H])([H])C1(C([H])([H])[H])C([H])(O[H])C([H])([H])C([H])([H])C2(C([H])([H])[H])C3([H])C([H])([H])C([H])=C4C([H])(C(=O)C([H])([H])C4(C([H])([H])[H])C([H])([H])[H])C3(C([H])([H])[H])C([H])([H])C([H])([H])C12[H]

$$$$
23:0:0
     RDKit          3D

 69 73  0  0  1  0  0  0  0  0999 V2000
    2.5003    3.5525    2.6008 C   0  0  0  0  0  0  0  0  0  0  0  0
    1.4985    4.3087    3.4899 C   0  0  0  0  0  0  0  0  0  0  0  0
    1.5596    5.5322    3.6077 O   0  0  0  0  0  0  0  0  0  0  0  0
    0.5543    3.5641    4.1177 O   0  0  0  0  0  0  0  0  0  0  0  0
    0.4236    2.1277    4.2703 C   0  0  1  0  0  0  0  0  0  0  0  0
    0.5182    1.4350    2.8763 C   0  0  0  0  0  0  0  0  0  0  0  0
   -0.6688    1.7355    1.9534 C   0  0  0  0  0  0  0  0  0  0  0  0
    1.4903    0.6702    2.2895 C   0  0  0  0  0  0  0  0  0  0  0  0
    2.8482    0.3298    2.7434 C   0  0  1  0  0  0  0  0  0  0  0  0
    2.9994   -1.0545    3.4479 C   0  0  2  0  0  0  0  0  0  0  0  0
    3.3702   -0.9377    4.9481 C   0  0  1  0  0  0  0  0  0  0  0  0
    3.6942    0.5157    5.2979 C   0  0  0  0  0  0  0  0  0  0  0  0
    2.8697    1.5893    5.5096 C   0  0  0  0  0  0  0  0  0  0  0  0
    3.6177    2.9075    5.7956 C   0  0  0  0  0  0  0  0  0  0  0  0
    3.6846    3.2337    7.1705 O   0  0  0  0  0  0  0  0  0  0  0  0
    1.2858    1.6099    5.5426 C   0  0  1  0  0  0  0  0  0  0  0  0
    0.9684    2.4815    6.6190 O   0  0  0  0  0  0  0  0  0  0  0  0
    0.5124    0.3454    6.0729 C   0  0  1  0  0  0  0  0  0  0  0  0
   -0.9782    0.5820    5.7277 C   0  0  1  0  0  0  0  0  0  0  0  0
   -1.7764    0.6144    6.9103 O   0  0  0  0  0  0  0  0  0  0  0  0
   -1.0545    1.8712    4.8648 C   0  0  1  0  0  0  0  0  0  0  0  0
   -1.7629    3.0760    5.5546 C   0  0  0  0  0  0  0  0  0  0  0  0
    0.9719   -0.9353    5.4094 C   0  0  2  0  0  0  0  0  0  0  0  0
    1.0951   -2.3676    5.8548 C   0  0  0  0  0  0  0  0  0  0  0  0
    0.1900   -2.7661    7.0118 C   0  0  0  0  0  0  0  0  0  0  0  0
    1.2106   -3.5511    4.9025 C   0  0  0  0  0  0  0  0  0  0  0  0
    2.2947   -1.4240    5.9561 C   0  0  1  0  0  0  0  0  0  0  0  0
    2.8187   -1.2721    7.3933 C   0  0  0  0  0  0  0  0  0  0  0  0
    3.8286   -0.7393    2.2133 C   0  0  0  0  0  0  0  0  0  0  0  0
    3.5329   -1.4345    0.9038 C   0  0  0  0  0  0  0  0  0  0  0  0
    5.3270   -0.5425    2.3868 C   0  0  0  0  0  0  0  0  0  0  0  0
    1.9827    2.9793    1.8170 H   0  0  0  0  0  0  0  0  0  0  0  0
    3.0007    2.8733    3.2190 H   0  0  0  0  0  0  0  0  0  0  0  0
    3.2868    4.1928    2.1353 H   0  0  0  0  0  0  0  0  0  0  0  0
   -1.0499    2.7315    2.1482 H   0  0  0  0  0  0  0  0  0  0  0  0
   -1.5024    1.0228    2.0358 H   0  0  0  0  0  0  0  0  0  0  0  0
   -0.3447    1.7409    0.9152 H   0  0  0  0  0  0  0  0  0  0  0  0
    1.2728    0.3149    1.3014 H   0  0  0  0  0  0  0  0  0  0  0  0
    3.3913    1.1786    2.8766 H   0  0  0  0  0  0  0  0  0  0  0  0
    2.2453   -1.8086    3.2343 H   0  0  0  0  0  0  0  0  0  0  0  0
    4.2610   -1.5495    5.1264 H   0  0  0  0  0  0  0  0  0  0  0  0
    4.7611    0.6965    5.3426 H   0  0  0  0  0  0  0  0  0  0  0  0
    4.6273    2.8697    5.4074 H   0  0  0  0  0  0  0  0  0  0  0  0
    3.1489    3.7748    5.3266 H   0  0  0  0  0  0  0  0  0  0  0  0
    3.8675    4.1690    7.2321 H   0  0  0  0  0  0  0  0  0  0  0  0
    1.3453    3.3271    6.4137 H   0  0  0  0  0  0  0  0  0  0  0  0
    0.6419    0.2488    7.1574 H   0  0  0  0  0  0  0  0  0  0  0  0
   -1.3440   -0.2446    5.1084 H   0  0  0  0  0  0  0  0  0  0  0  0
   -1.5231    1.3867    7.3804 H   0  0  0  0  0  0  0  0  0  0  0  0
   -1.7850    1.6411    4.0901 H   0  0  0  0  0  0  0  0  0  0  0  0
   -1.2650    3.4505    6.4420 H   0  0  0  0  0  0  0  0  0  0  0  0
   -2.7763    2.8218    5.8425 H   0  0  0  0  0  0  0  0  0  0  0  0
   -1.8530    3.9228    4.8667 H   0  0  0  0  0  0  0  0  0  0  0  0
    0.7144   -0.9097    4.3700 H   0  0  0  0  0  0  0  0  0  0  0  0
    0.6839   -3.5346    7.6173 H   0  0  0  0  0  0  0  0  0  0  0  0
   -0.7499   -3.1713    6.6262 H   0  0  0  0  0  0  0  0  0  0  0  0
   -0.0391   -1.9165    7.6371 H   0  0  0  0  0  0  0  0  0  0  0  0
    1.3122   -4.4740    5.4630 H   0  0  0  0  0  0  0  0  0  0  0  0
    2.0995   -3.4912    4.2926 H   0  0  0  0  0  0  0  0  0  0  0  0
    0.3329   -3.6225    4.2601 H   0  0  0  0  0  0  0  0  0  0  0  0
    2.0202   -1.3647    8.1111 H   0  0  0  0  0  0  0  0  0  0  0  0
    3.2946   -0.3130    7.5886 H   0  0  0  0  0  0  0  0  0  0  0  0
    3.5420   -2.0672    7.5783 H   0  0  0  0  0  0  0  0  0  0  0  0
    4.0501   -2.3917    0.8342 H   0  0  0  0  0  0  0  0  0  0  0  0
    3.8625   -0.8017    0.0699 H   0  0  0  0  0  0  0  0  0  0  0  0
    2.4763   -1.6006    0.7942 H   0  0  0  0  0  0  0  0  0  0  0  0
    5.8488   -1.5011    2.4324 H   0  0  0  0  0  0  0  0  0  0  0  0
    5.5398   -0.0015    3.3020 H   0  0  0  0  0  0  0  0  0  0  0  0
    5.7377    0.0423    1.5552 H   0  0  0  0  0  0  0  0  0  0  0  0
  1  2  1  0
  1 32  1  0
  1 33  1  0
  1 34  1  0
  2  3  2  0
  2  4  1  0
  5  4  1  6
  5 16  1  0
  5 21  1  0
  5  6  1  0
  6  7  1  0
  6  8  2  3
  7 35  1  0
  7 36  1  0
  7 37  1  0
  8  9  1  0
  8 38  1  0
  9 29  1  0
  9 10  1  0
  9 39  1  1
 10 11  1  0
 10 29  1  0
 10 40  1  6
 11 27  1  0
 11 12  1  0
 11 41  1  6
 12 13  2  0
 12 42  1  0
 13 14  1  0
 13 16  1  0
 14 15  1  0
 14 43  1  0
 14 44  1  0
 15 45  1  0
 16 17  1  1
 16 18  1  0
 17 46  1  0
 18 19  1  0
 18 23  1  0
 18 47  1  1
 19 20  1  0
 19 21  1  0
 19 48  1  6
 20 49  1  0
 21 22  1  0
 21 50  1  6
 22 51  1  0
 22 52  1  0
 22 53  1  0
 23 27  1  0
 23 24  1  0
 23 54  1  6
 24 25  1  0
 24 26  1  0
 24 27  1  0
 25 55  1  0
 25 56  1  0
 25 57  1  0
 26 58  1  0
 26 59  1  0
 26 60  1  0
 27 28  1  1
 28 61  1  0
 28 62  1  0
 28 63  1  0
 29 30  1  0
 29 31  1  0
 30 64  1  0
 30 65  1  0
 30 66  1  0
 31 67  1  0
 31 68  1  0
 31 69  1  0
M  END
>  <i_m_ct_stereo_status>  (87) 
1

>  <s_m_source_file>  (87) 
/var/tmp/pbs.5076255.sched01/tmpgqtxr8g4/0xtbcsf6k.sdf

>  <i_m_source_file_index>  (87) 
36

>  <i_lp_mmshare_version>  (87) 
48012

>  <i_f3d_flags>  (87) 
0

>  <s_epik_input>  (87) 
W0NIM11DKD1PKU9bQ0BdMTJbQ0BAXTMoW09IXSlbQ0BASF0oW0NAQEhdKFtPSF0pW0NASF0yW0NIM10pW0NASF00W0NAQF0oW0NIM10pKEM0KFtDSDNdKVtDSDNdKVtDQEhdKFtDSF09QzNbQ0gyXVtPSF0pW0NASF01W0NAQEhdKEM1KFtDSDNdKVtDSDNdKS9bQ0hdPUNcMVtDSDNd

>  <s_epik_cmdline>  (87) 
J2VwaWtfcHl0aG9uJywgJy1waHQnLCAnMi4wJywgJy1waCcsICc3LjAnLCAnLXRuJywgJzgnLCAnLW1hJywgJzIwMCcsICctaW1hZScsICc8aW5maWxlLm1hZT4nLCAnLW9tYWUnLCAnPG91dGZpbGUubWFlPic=

>  <r_lp_tautomer_probability>  (87) 
1

>  <r_epik_Ionization_Penalty>  (87) 
6.85217e-07

>  <r_epik_Ionization_Penalty_Charging>  (87) 
0

>  <r_epik_Ionization_Penalty_Neutral>  (87) 
6.85217e-07

>  <r_epik_State_Penalty>  (87) 
-0

>  <r_epik_Charging_Adjusted_Penalty>  (87) 
0

>  <i_epik_Tot_Q>  (87) 
0

>  <i_epik_Tot_abs_Q>  (87) 
0

>  <s_epik_Chemistry_Notes>  (87) 
This compound has an ester and may undergo hydrolysis at high or low pH.

>  <s_lp_Force_Field>  (87) 
OPLS3e

>  <r_lp_Energy>  (87) 
133.056

>  <b_lp_Chiralities_Consistent>  (87) 
1

>  <s_lp_Variant>  (87) 
23:0-1

>  <s_i_glide_gridfile>  (87) 
pfpi4k_grid

>  <i_i_glide_lignum>  (87) 
36

>  <i_i_glide_rotatable_bonds>  (87) 
6

>  <r_i_docking_score>  (87) 
-2.49671

>  <r_i_glide_ligand_efficiency>  (87) 
-0.080539

>  <r_i_glide_ligand_efficiency_sa>  (87) 
-0.253004

>  <r_i_glide_ligand_efficiency_ln>  (87) 
-0.563084

>  <r_i_glide_gscore>  (87) 
-2.49671

>  <r_i_glide_lipo>  (87) 
-0.160973

>  <r_i_glide_hbond>  (87) 
0

>  <r_i_glide_metal>  (87) 
-0

>  <r_i_glide_rewards>  (87) 
-0.473339

>  <r_i_glide_evdw>  (87) 
-21.4039

>  <r_i_glide_ecoul>  (87) 
-6.22328

>  <r_i_glide_erotb>  (87) 
0.214485

>  <r_i_glide_esite>  (87) 
-0.0731974

>  <r_i_glide_emodel>  (87) 
-26.8993

>  <r_i_glide_energy>  (87) 
-27.6271

>  <r_i_glide_einternal>  (87) 
6.26126

>  <r_i_glide_intrahb_reward>  (87) 
-0

>  <i_i_glide_confnum>  (87) 
5

>  <i_i_glide_posenum>  (87) 
14

>  <r_i_glide_eff_state_penalty>  (87) 
0

>  <ligand_id>  (87) 
23

>  <original_smiles>  (87) 
CC(=O)OC12C(C)=CC3C(C4C=C(CO)C1(O)C(C(O)C2C)C1C(C)(C)C41C)C3(C)C

>  <smiles>  (87) 
[H]OC([H])([H])C1=C([H])C2([H])C3([H])C([H])(C([H])=C(C([H])([H])[H])C4(OC(=O)C([H])([H])[H])C1(O[H])C([H])(C([H])(O[H])C4([H])C([H])([H])[H])C1([H])C(C([H])([H])[H])(C([H])([H])[H])C21C([H])([H])[H])C3(C([H])([H])[H])C([H])([H])[H]

$$$$
23:0:1
     RDKit          3D

 69 73  0  0  1  0  0  0  0  0999 V2000
    2.7192    3.5248    2.5556 C   0  0  0  0  0  0  0  0  0  0  0  0
    1.7348    4.2172    3.4389 C   0  0  0  0  0  0  0  0  0  0  0  0
    1.7771    5.4822    3.5548 O   0  0  0  0  0  0  0  0  0  0  0  0
    0.8235    3.5175    4.1032 O   0  0  0  0  0  0  0  0  0  0  0  0
    0.7044    2.0635    4.2361 C   0  0  1  0  0  0  0  0  0  0  0  0
    0.7187    1.4015    2.7996 C   0  0  0  0  0  0  0  0  0  0  0  0
   -0.4755    1.7065    1.9376 C   0  0  0  0  0  0  0  0  0  0  0  0
    1.7191    0.6546    2.1500 C   0  0  0  0  0  0  0  0  0  0  0  0
    3.0794    0.3234    2.5304 C   0  0  1  0  0  0  0  0  0  0  0  0
    3.2604   -1.0446    3.2127 C   0  0  2  0  0  0  0  0  0  0  0  0
    3.6969   -0.9984    4.7022 C   0  0  1  0  0  0  0  0  0  0  0  0
    4.0297    0.4616    5.0718 C   0  0  0  0  0  0  0  0  0  0  0  0
    3.2149    1.5175    5.3557 C   0  0  0  0  0  0  0  0  0  0  0  0
    3.9438    2.8380    5.6502 C   0  0  0  0  0  0  0  0  0  0  0  0
    4.0111    3.1744    7.0215 O   0  0  0  0  0  0  0  0  0  0  0  0
    1.6234    1.5235    5.4482 C   0  0  1  0  0  0  0  0  0  0  0  0
    1.3561    2.3548    6.5751 O   0  0  0  0  0  0  0  0  0  0  0  0
    0.8828    0.2238    5.9659 C   0  0  1  0  0  0  0  0  0  0  0  0
   -0.6181    0.4577    5.6882 C   0  0  1  0  0  0  0  0  0  0  0  0
   -1.3525    0.4712    6.9168 O   0  0  0  0  0  0  0  0  0  0  0  0
   -0.7488    1.7650    4.8662 C   0  0  1  0  0  0  0  0  0  0  0  0
   -1.4369    2.9491    5.6081 C   0  0  0  0  0  0  0  0  0  0  0  0
    1.3319   -1.0284    5.2570 C   0  0  2  0  0  0  0  0  0  0  0  0
    1.4851   -2.4799    5.6556 C   0  0  0  0  0  0  0  0  0  0  0  0
    0.6325   -2.9110    6.8457 C   0  0  0  0  0  0  0  0  0  0  0  0
    1.5767   -3.6300    4.6706 C   0  0  0  0  0  0  0  0  0  0  0  0
    2.6836   -1.5179    5.7293 C   0  0  1  0  0  0  0  0  0  0  0  0
    3.2545   -1.3960    7.1587 C   0  0  0  0  0  0  0  0  0  0  0  0
    4.0407   -0.6976    1.9516 C   0  0  0  0  0  0  0  0  0  0  0  0
    3.7085   -1.3781    0.6329 C   0  0  0  0  0  0  0  0  0  0  0  0
    5.5528   -0.5070    2.0760 C   0  0  0  0  0  0  0  0  0  0  0  0
    2.2257    2.9418    1.7791 H   0  0  0  0  0  0  0  0  0  0  0  0
    3.2461    2.8498    3.1683 H   0  0  0  0  0  0  0  0  0  0  0  0
    3.4645    4.1817    2.1101 H   0  0  0  0  0  0  0  0  0  0  0  0
   -0.8691    2.7001    2.1618 H   0  0  0  0  0  0  0  0  0  0  0  0
   -1.2955    0.9890    2.0455 H   0  0  0  0  0  0  0  0  0  0  0  0
   -0.2065    1.7207    0.8791 H   0  0  0  0  0  0  0  0  0  0  0  0
    1.4501    0.3273    1.1700 H   0  0  0  0  0  0  0  0  0  0  0  0
    3.6532    1.1726    2.7119 H   0  0  0  0  0  0  0  0  0  0  0  0
    2.5237   -1.8464    3.0031 H   0  0  0  0  0  0  0  0  0  0  0  0
    4.6142   -1.5944    4.8293 H   0  0  0  0  0  0  0  0  0  0  0  0
    5.0952    0.6444    5.0859 H   0  0  0  0  0  0  0  0  0  0  0  0
    4.9739    2.7841    5.3109 H   0  0  0  0  0  0  0  0  0  0  0  0
    3.4958    3.6878    5.1587 H   0  0  0  0  0  0  0  0  0  0  0  0
    4.1922    4.0882    7.0879 H   0  0  0  0  0  0  0  0  0  0  0  0
    1.9607    2.1327    7.2551 H   0  0  0  0  0  0  0  0  0  0  0  0
    1.0457    0.0785    7.0398 H   0  0  0  0  0  0  0  0  0  0  0  0
   -1.0153   -0.3517    5.0728 H   0  0  0  0  0  0  0  0  0  0  0  0
   -1.0657    1.2087    7.4075 H   0  0  0  0  0  0  0  0  0  0  0  0
   -1.4985    1.5531    4.1165 H   0  0  0  0  0  0  0  0  0  0  0  0
   -0.9064    3.3042    6.4881 H   0  0  0  0  0  0  0  0  0  0  0  0
   -2.4367    2.6733    5.9386 H   0  0  0  0  0  0  0  0  0  0  0  0
   -1.5668    3.8108    4.9521 H   0  0  0  0  0  0  0  0  0  0  0  0
    1.0256   -0.9819    4.2145 H   0  0  0  0  0  0  0  0  0  0  0  0
    1.1552   -3.6841    7.4118 H   0  0  0  0  0  0  0  0  0  0  0  0
   -0.3184   -3.3117    6.4906 H   0  0  0  0  0  0  0  0  0  0  0  0
    0.4098   -2.0736    7.5105 H   0  0  0  0  0  0  0  0  0  0  0  0
    1.7092   -4.5651    5.2023 H   0  0  0  0  0  0  0  0  0  0  0  0
    2.4422   -3.5509    4.0260 H   0  0  0  0  0  0  0  0  0  0  0  0
    0.6740   -3.6908    4.0681 H   0  0  0  0  0  0  0  0  0  0  0  0
    2.4844   -1.5107    7.9226 H   0  0  0  0  0  0  0  0  0  0  0  0
    3.7324   -0.4318    7.3667 H   0  0  0  0  0  0  0  0  0  0  0  0
    3.9978   -2.1852    7.3047 H   0  0  0  0  0  0  0  0  0  0  0  0
    4.2283   -2.3281    0.5232 H   0  0  0  0  0  0  0  0  0  0  0  0
    4.0019   -0.7308   -0.1794 H   0  0  0  0  0  0  0  0  0  0  0  0
    2.6430   -1.5593    0.5538 H   0  0  0  0  0  0  0  0  0  0  0  0
    6.0887   -1.4608    2.0761 H   0  0  0  0  0  0  0  0  0  0  0  0
    5.8025    0.0167    2.9999 H   0  0  0  0  0  0  0  0  0  0  0  0
    5.9083    0.0948    1.2429 H   0  0  0  0  0  0  0  0  0  0  0  0
  1  2  1  0
  1 32  1  0
  1 33  1  0
  1 34  1  0
  2  3  2  0
  2  4  1  0
  5  4  1  6
  5 16  1  0
  5 21  1  0
  5  6  1  0
  6  7  1  0
  6  8  2  3
  7 35  1  0
  7 36  1  0
  7 37  1  0
  8  9  1  0
  8 38  1  0
  9 29  1  0
  9 10  1  0
  9 39  1  1
 10 11  1  0
 10 29  1  0
 10 40  1  6
 11 27  1  0
 11 12  1  0
 11 41  1  6
 12 13  2  0
 12 42  1  0
 13 14  1  0
 13 16  1  0
 14 15  1  0
 14 43  1  0
 14 44  1  0
 15 45  1  0
 16 17  1  1
 16 18  1  0
 17 46  1  0
 18 19  1  0
 18 23  1  0
 18 47  1  1
 19 20  1  0
 19 21  1  0
 19 48  1  6
 20 49  1  0
 21 22  1  0
 21 50  1  6
 22 51  1  0
 22 52  1  0
 22 53  1  0
 23 27  1  0
 23 24  1  0
 23 54  1  6
 24 25  1  0
 24 26  1  0
 24 27  1  0
 25 55  1  0
 25 56  1  0
 25 57  1  0
 26 58  1  0
 26 59  1  0
 26 60  1  0
 27 28  1  1
 28 61  1  0
 28 62  1  0
 28 63  1  0
 29 30  1  0
 29 31  1  0
 30 64  1  0
 30 65  1  0
 30 66  1  0
 31 67  1  0
 31 68  1  0
 31 69  1  0
M  END
>  <i_m_ct_stereo_status>  (88) 
1

>  <s_m_source_file>  (88) 
/var/tmp/pbs.5076255.sched01/tmpgqtxr8g4/0xtbcsf6k.sdf

>  <i_m_source_file_index>  (88) 
36

>  <i_lp_mmshare_version>  (88) 
48012

>  <i_f3d_flags>  (88) 
0

>  <s_epik_input>  (88) 
W0NIM11DKD1PKU9bQ0BdMTJbQ0BAXTMoW09IXSlbQ0BASF0oW0NAQEhdKFtPSF0pW0NASF0yW0NIM10pW0NASF00W0NAQF0oW0NIM10pKEM0KFtDSDNdKVtDSDNdKVtDQEhdKFtDSF09QzNbQ0gyXVtPSF0pW0NASF01W0NAQEhdKEM1KFtDSDNdKVtDSDNdKS9bQ0hdPUNcMVtDSDNd

>  <s_epik_cmdline>  (88) 
J2VwaWtfcHl0aG9uJywgJy1waHQnLCAnMi4wJywgJy1waCcsICc3LjAnLCAnLXRuJywgJzgnLCAnLW1hJywgJzIwMCcsICctaW1hZScsICc8aW5maWxlLm1hZT4nLCAnLW9tYWUnLCAnPG91dGZpbGUubWFlPic=

>  <r_lp_tautomer_probability>  (88) 
1

>  <r_epik_Ionization_Penalty>  (88) 
6.85217e-07

>  <r_epik_Ionization_Penalty_Charging>  (88) 
0

>  <r_epik_Ionization_Penalty_Neutral>  (88) 
6.85217e-07

>  <r_epik_State_Penalty>  (88) 
-0

>  <r_epik_Charging_Adjusted_Penalty>  (88) 
0

>  <i_epik_Tot_Q>  (88) 
0

>  <i_epik_Tot_abs_Q>  (88) 
0

>  <s_epik_Chemistry_Notes>  (88) 
This compound has an ester and may undergo hydrolysis at high or low pH.

>  <s_lp_Force_Field>  (88) 
OPLS3e

>  <r_lp_Energy>  (88) 
133.056

>  <b_lp_Chiralities_Consistent>  (88) 
1

>  <s_lp_Variant>  (88) 
23:0-1

>  <s_i_glide_gridfile>  (88) 
pfpi4k_grid

>  <i_i_glide_lignum>  (88) 
36

>  <i_i_glide_rotatable_bonds>  (88) 
6

>  <r_i_docking_score>  (88) 
-2.37553

>  <r_i_glide_ligand_efficiency>  (88) 
-0.0766301

>  <r_i_glide_ligand_efficiency_sa>  (88) 
-0.240724

>  <r_i_glide_ligand_efficiency_ln>  (88) 
-0.535756

>  <r_i_glide_gscore>  (88) 
-2.37553

>  <r_i_glide_lipo>  (88) 
-0.18736

>  <r_i_glide_hbond>  (88) 
0

>  <r_i_glide_metal>  (88) 
-0

>  <r_i_glide_rewards>  (88) 
-0.473339

>  <r_i_glide_evdw>  (88) 
-21.5895

>  <r_i_glide_ecoul>  (88) 
-5.2439

>  <r_i_glide_erotb>  (88) 
0.214485

>  <r_i_glide_esite>  (88) 
-0.0632595

>  <r_i_glide_emodel>  (88) 
-26.2593

>  <r_i_glide_energy>  (88) 
-26.8334

>  <r_i_glide_einternal>  (88) 
6.13668

>  <r_i_glide_intrahb_reward>  (88) 
-0

>  <i_i_glide_confnum>  (88) 
3

>  <i_i_glide_posenum>  (88) 
1

>  <r_i_glide_eff_state_penalty>  (88) 
0

>  <ligand_id>  (88) 
23

>  <original_smiles>  (88) 
CC(=O)OC12C(C)=CC3C(C4C=C(CO)C1(O)C(C(O)C2C)C1C(C)(C)C41C)C3(C)C

>  <smiles>  (88) 
[H]OC([H])([H])C1=C([H])C2([H])C3([H])C([H])(C([H])=C(C([H])([H])[H])C4(OC(=O)C([H])([H])[H])C1(O[H])C([H])(C([H])(O[H])C4([H])C([H])([H])[H])C1([H])C(C([H])([H])[H])(C([H])([H])[H])C21C([H])([H])[H])C3(C([H])([H])[H])C([H])([H])[H]

$$$$
23:0:2
     RDKit          3D

 69 73  0  0  1  0  0  0  0  0999 V2000
    5.5182   -3.9063   -3.4966 C   0  0  0  0  0  0  0  0  0  0  0  0
    4.7198   -3.2312   -2.4418 C   0  0  0  0  0  0  0  0  0  0  0  0
    3.8897   -2.3786   -2.8076 O   0  0  0  0  0  0  0  0  0  0  0  0
    4.9919   -3.6849   -1.1646 O   0  0  0  0  0  0  0  0  0  0  0  0
    4.1891   -3.4194    0.0200 C   0  0  1  0  0  0  0  0  0  0  0  0
    2.8683   -4.3129   -0.0957 C   0  0  0  0  0  0  0  0  0  0  0  0
    1.8173   -3.8254   -1.1233 C   0  0  0  0  0  0  0  0  0  0  0  0
    2.5255   -5.4920    0.4809 C   0  0  0  0  0  0  0  0  0  0  0  0
    3.2136   -6.4348    1.3687 C   0  0  1  0  0  0  0  0  0  0  0  0
    2.9783   -6.2378    2.8662 C   0  0  2  0  0  0  0  0  0  0  0  0
    4.1829   -5.7583    3.7020 C   0  0  1  0  0  0  0  0  0  0  0  0
    5.4243   -5.7927    2.8084 C   0  0  0  0  0  0  0  0  0  0  0  0
    5.8030   -4.9491    1.8019 C   0  0  0  0  0  0  0  0  0  0  0  0
    7.0616   -5.3949    1.0467 C   0  0  0  0  0  0  0  0  0  0  0  0
    8.2326   -4.6834    1.4286 O   0  0  0  0  0  0  0  0  0  0  0  0
    5.1308   -3.5766    1.3575 C   0  0  1  0  0  0  0  0  0  0  0  0
    6.2519   -2.7275    1.1321 O   0  0  0  0  0  0  0  0  0  0  0  0
    4.4107   -2.7054    2.4564 C   0  0  1  0  0  0  0  0  0  0  0  0
    3.6522   -1.6030    1.6779 C   0  0  1  0  0  0  0  0  0  0  0  0
    4.0919   -0.3147    2.1022 O   0  0  0  0  0  0  0  0  0  0  0  0
    3.8154   -1.8828    0.1576 C   0  0  1  0  0  0  0  0  0  0  0  0
    4.7133   -0.7887   -0.5412 C   0  0  0  0  0  0  0  0  0  0  0  0
    3.4344   -3.4866    3.2998 C   0  0  2  0  0  0  0  0  0  0  0  0
    2.9443   -3.4182    4.7282 C   0  0  0  0  0  0  0  0  0  0  0  0
    3.1079   -2.0571    5.4055 C   0  0  0  0  0  0  0  0  0  0  0  0
    1.6601   -4.0695    5.2304 C   0  0  0  0  0  0  0  0  0  0  0  0
    4.1004   -4.3585    4.3344 C   0  0  1  0  0  0  0  0  0  0  0  0
    5.3915   -4.0331    5.1189 C   0  0  0  0  0  0  0  0  0  0  0  0
    2.6772   -7.5757    2.2347 C   0  0  0  0  0  0  0  0  0  0  0  0
    1.2263   -8.0160    2.0801 C   0  0  0  0  0  0  0  0  0  0  0  0
    3.5611   -8.7566    2.6132 C   0  0  0  0  0  0  0  0  0  0  0  0
    5.3422   -4.9860   -3.3855 H   0  0  0  0  0  0  0  0  0  0  0  0
    6.5794   -3.6460   -3.3933 H   0  0  0  0  0  0  0  0  0  0  0  0
    5.1406   -3.6028   -4.4745 H   0  0  0  0  0  0  0  0  0  0  0  0
    2.2128   -3.3789   -1.9817 H   0  0  0  0  0  0  0  0  0  0  0  0
    1.1577   -3.0896   -0.7250 H   0  0  0  0  0  0  0  0  0  0  0  0
    1.2006   -4.6558   -1.4868 H   0  0  0  0  0  0  0  0  0  0  0  0
    1.5647   -5.8955    0.1917 H   0  0  0  0  0  0  0  0  0  0  0  0
    4.1645   -6.7582    0.9081 H   0  0  0  0  0  0  0  0  0  0  0  0
    2.0265   -5.7751    3.1591 H   0  0  0  0  0  0  0  0  0  0  0  0
    4.3112   -6.4757    4.5144 H   0  0  0  0  0  0  0  0  0  0  0  0
    6.0212   -6.6774    2.9876 H   0  0  0  0  0  0  0  0  0  0  0  0
    7.2793   -6.4539    1.2206 H   0  0  0  0  0  0  0  0  0  0  0  0
    6.9007   -5.2850   -0.0175 H   0  0  0  0  0  0  0  0  0  0  0  0
    8.4458   -4.8850    2.3181 H   0  0  0  0  0  0  0  0  0  0  0  0
    6.7950   -3.1272    0.4838 H   0  0  0  0  0  0  0  0  0  0  0  0
    5.1504   -2.2657    3.1441 H   0  0  0  0  0  0  0  0  0  0  0  0
    2.5860   -1.6434    1.9385 H   0  0  0  0  0  0  0  0  0  0  0  0
    3.7710   -0.1358    2.9624 H   0  0  0  0  0  0  0  0  0  0  0  0
    2.8320   -1.7028   -0.2559 H   0  0  0  0  0  0  0  0  0  0  0  0
    5.7350   -0.7657   -0.1728 H   0  0  0  0  0  0  0  0  0  0  0  0
    4.2745    0.1805   -0.3503 H   0  0  0  0  0  0  0  0  0  0  0  0
    4.7633   -0.8487   -1.6152 H   0  0  0  0  0  0  0  0  0  0  0  0
    2.6026   -3.8137    2.6757 H   0  0  0  0  0  0  0  0  0  0  0  0
    3.2982   -2.1799    6.4719 H   0  0  0  0  0  0  0  0  0  0  0  0
    2.2097   -1.4539    5.2750 H   0  0  0  0  0  0  0  0  0  0  0  0
    3.9352   -1.4939    4.9765 H   0  0  0  0  0  0  0  0  0  0  0  0
    1.5424   -3.9152    6.3015 H   0  0  0  0  0  0  0  0  0  0  0  0
    1.6649   -5.1484    5.0914 H   0  0  0  0  0  0  0  0  0  0  0  0
    0.7868   -3.6570    4.7255 H   0  0  0  0  0  0  0  0  0  0  0  0
    5.4954   -2.9731    5.3356 H   0  0  0  0  0  0  0  0  0  0  0  0
    6.2890   -4.3090    4.5776 H   0  0  0  0  0  0  0  0  0  0  0  0
    5.3959   -4.5649    6.0696 H   0  0  0  0  0  0  0  0  0  0  0  0
    0.8653   -8.5108    2.9828 H   0  0  0  0  0  0  0  0  0  0  0  0
    1.1366   -8.7200    1.2646 H   0  0  0  0  0  0  0  0  0  0  0  0
    0.5698   -7.1708    1.8684 H   0  0  0  0  0  0  0  0  0  0  0  0
    3.2385   -9.1826    3.5620 H   0  0  0  0  0  0  0  0  0  0  0  0
    4.5965   -8.4425    2.7299 H   0  0  0  0  0  0  0  0  0  0  0  0
    3.5362   -9.5341    1.8496 H   0  0  0  0  0  0  0  0  0  0  0  0
  1  2  1  0
  1 32  1  0
  1 33  1  0
  1 34  1  0
  2  3  2  0
  2  4  1  0
  5  4  1  6
  5 16  1  0
  5 21  1  0
  5  6  1  0
  6  7  1  0
  6  8  2  3
  7 35  1  0
  7 36  1  0
  7 37  1  0
  8  9  1  0
  8 38  1  0
  9 29  1  0
  9 10  1  0
  9 39  1  1
 10 11  1  0
 10 29  1  0
 10 40  1  6
 11 27  1  0
 11 12  1  0
 11 41  1  1
 12 13  2  0
 12 42  1  0
 13 14  1  0
 13 16  1  0
 14 15  1  0
 14 43  1  0
 14 44  1  0
 15 45  1  0
 16 17  1  6
 16 18  1  0
 17 46  1  0
 18 19  1  0
 18 23  1  0
 18 47  1  1
 19 20  1  0
 19 21  1  0
 19 48  1  1
 20 49  1  0
 21 22  1  0
 21 50  1  6
 22 51  1  0
 22 52  1  0
 22 53  1  0
 23 27  1  0
 23 24  1  0
 23 54  1  6
 24 25  1  0
 24 26  1  0
 24 27  1  0
 25 55  1  0
 25 56  1  0
 25 57  1  0
 26 58  1  0
 26 59  1  0
 26 60  1  0
 27 28  1  1
 28 61  1  0
 28 62  1  0
 28 63  1  0
 29 30  1  0
 29 31  1  0
 30 64  1  0
 30 65  1  0
 30 66  1  0
 31 67  1  0
 31 68  1  0
 31 69  1  0
M  END
>  <i_m_ct_stereo_status>  (89) 
1

>  <s_m_source_file>  (89) 
/var/tmp/pbs.5076255.sched01/tmpgqtxr8g4/0xtbcsf6k.sdf

>  <i_m_source_file_index>  (89) 
36

>  <i_lp_mmshare_version>  (89) 
48012

>  <i_f3d_flags>  (89) 
0

>  <s_epik_input>  (89) 
W0NIM11DKD1PKU9bQ0BdMTJbQ0BAXTMoW09IXSlbQ0BASF0oW0NAQEhdKFtPSF0pW0NASF0yW0NIM10pW0NASF00W0NAQF0oW0NIM10pKEM0KFtDSDNdKVtDSDNdKVtDQEhdKFtDSF09QzNbQ0gyXVtPSF0pW0NASF01W0NAQEhdKEM1KFtDSDNdKVtDSDNdKS9bQ0hdPUNcMVtDSDNd

>  <s_epik_cmdline>  (89) 
J2VwaWtfcHl0aG9uJywgJy1waHQnLCAnMi4wJywgJy1waCcsICc3LjAnLCAnLXRuJywgJzgnLCAnLW1hJywgJzIwMCcsICctaW1hZScsICc8aW5maWxlLm1hZT4nLCAnLW9tYWUnLCAnPG91dGZpbGUubWFlPic=

>  <r_lp_tautomer_probability>  (89) 
1

>  <r_epik_Ionization_Penalty>  (89) 
6.85217e-07

>  <r_epik_Ionization_Penalty_Charging>  (89) 
0

>  <r_epik_Ionization_Penalty_Neutral>  (89) 
6.85217e-07

>  <r_epik_State_Penalty>  (89) 
-0

>  <r_epik_Charging_Adjusted_Penalty>  (89) 
0

>  <i_epik_Tot_Q>  (89) 
0

>  <i_epik_Tot_abs_Q>  (89) 
0

>  <s_epik_Chemistry_Notes>  (89) 
This compound has an ester and may undergo hydrolysis at high or low pH.

>  <s_lp_Force_Field>  (89) 
OPLS3e

>  <r_lp_Energy>  (89) 
133.056

>  <b_lp_Chiralities_Consistent>  (89) 
1

>  <s_lp_Variant>  (89) 
23:0-1

>  <s_i_glide_gridfile>  (89) 
pfpi4k_grid

>  <i_i_glide_lignum>  (89) 
36

>  <i_i_glide_rotatable_bonds>  (89) 
6

>  <r_i_docking_score>  (89) 
-1.76434

>  <r_i_glide_ligand_efficiency>  (89) 
-0.0569141

>  <r_i_glide_ligand_efficiency_sa>  (89) 
-0.178789

>  <r_i_glide_ligand_efficiency_ln>  (89) 
-0.397912

>  <r_i_glide_gscore>  (89) 
-1.76434

>  <r_i_glide_lipo>  (89) 
-0.322727

>  <r_i_glide_hbond>  (89) 
0

>  <r_i_glide_metal>  (89) 
-0

>  <r_i_glide_rewards>  (89) 
-0.571813

>  <r_i_glide_evdw>  (89) 
-22.3791

>  <r_i_glide_ecoul>  (89) 
-0.680175

>  <r_i_glide_erotb>  (89) 
0.214485

>  <r_i_glide_esite>  (89) 
0

>  <r_i_glide_emodel>  (89) 
-16.8275

>  <r_i_glide_energy>  (89) 
-23.0592

>  <r_i_glide_einternal>  (89) 
10.3921

>  <r_i_glide_intrahb_reward>  (89) 
-0

>  <i_i_glide_confnum>  (89) 
3

>  <i_i_glide_posenum>  (89) 
32

>  <r_i_glide_eff_state_penalty>  (89) 
0

>  <ligand_id>  (89) 
23

>  <original_smiles>  (89) 
CC(=O)OC12C(C)=CC3C(C4C=C(CO)C1(O)C(C(O)C2C)C1C(C)(C)C41C)C3(C)C

>  <smiles>  (89) 
[H]OC([H])([H])C1=C([H])C2([H])C3([H])C([H])(C([H])=C(C([H])([H])[H])C4(OC(=O)C([H])([H])[H])C1(O[H])C([H])(C([H])(O[H])C4([H])C([H])([H])[H])C1([H])C(C([H])([H])[H])(C([H])([H])[H])C21C([H])([H])[H])C3(C([H])([H])[H])C([H])([H])[H]

$$$$
23:1:0
     RDKit          3D

 69 73  0  0  1  0  0  0  0  0999 V2000
   -0.0550    6.9035    7.8027 C   0  0  0  0  0  0  0  0  0  0  0  0
    0.2574    5.4129    7.8490 C   0  0  0  0  0  0  0  0  0  0  0  0
    0.4970    4.8460    8.9192 O   0  0  0  0  0  0  0  0  0  0  0  0
    0.2409    4.8533    6.6177 O   0  0  0  0  0  0  0  0  0  0  0  0
    0.6503    3.5025    6.2969 C   0  0  1  0  0  0  0  0  0  0  0  0
   -0.1974    2.4439    7.0785 C   0  0  0  0  0  0  0  0  0  0  0  0
   -1.5836    2.8967    7.5793 C   0  0  0  0  0  0  0  0  0  0  0  0
    0.1561    1.1372    7.1794 C   0  0  0  0  0  0  0  0  0  0  0  0
   -0.7791    0.1285    6.6063 C   0  0  1  0  0  0  0  0  0  0  0  0
   -0.0164   -0.4892    5.4309 C   0  0  2  0  0  0  0  0  0  0  0  0
   -0.3287    0.1036    4.0278 C   0  0  1  0  0  0  0  0  0  0  0  0
   -1.2614    1.3098    4.1022 C   0  0  0  0  0  0  0  0  0  0  0  0
   -1.0315    2.6451    4.3402 C   0  0  0  0  0  0  0  0  0  0  0  0
   -2.2518    3.5761    4.1483 C   0  0  0  0  0  0  0  0  0  0  0  0
   -2.3111    4.2901    2.9174 O   0  0  0  0  0  0  0  0  0  0  0  0
    0.3345    3.3439    4.7126 C   0  0  1  0  0  0  0  0  0  0  0  0
    0.3301    4.6510    4.1289 O   0  0  0  0  0  0  0  0  0  0  0  0
    1.6785    2.8238    4.0483 C   0  0  1  0  0  0  0  0  0  0  0  0
    2.8101    3.3814    4.9432 C   0  0  1  0  0  0  0  0  0  0  0  0
    3.1831    4.7041    4.5946 O   0  0  0  0  0  0  0  0  0  0  0  0
    2.2364    3.3205    6.3712 C   0  0  1  0  0  0  0  0  0  0  0  0
    3.0665    4.1001    7.3992 C   0  0  0  0  0  0  0  0  0  0  0  0
    1.7916    1.3107    4.0610 C   0  0  2  0  0  0  0  0  0  0  0  0
    2.3435    0.2743    3.1026 C   0  0  0  0  0  0  0  0  0  0  0  0
    3.2617    0.7972    2.0453 C   0  0  0  0  0  0  0  0  0  0  0  0
    2.8630   -1.0916    3.4914 C   0  0  0  0  0  0  0  0  0  0  0  0
    0.8368    0.5839    3.1715 C   0  0  1  0  0  0  0  0  0  0  0  0
    0.3296    1.0388    1.7975 C   0  0  0  0  0  0  0  0  0  0  0  0
   -0.7762   -1.3674    6.4138 C   0  0  0  0  0  0  0  0  0  0  0  0
   -0.0097   -2.2690    7.3543 C   0  0  0  0  0  0  0  0  0  0  0  0
   -1.9360   -2.1184    5.8207 C   0  0  0  0  0  0  0  0  0  0  0  0
   -1.0385    7.0795    7.3705 H   0  0  0  0  0  0  0  0  0  0  0  0
    0.6893    7.4266    7.1998 H   0  0  0  0  0  0  0  0  0  0  0  0
   -0.0354    7.3271    8.8062 H   0  0  0  0  0  0  0  0  0  0  0  0
   -2.0046    3.7167    7.0205 H   0  0  0  0  0  0  0  0  0  0  0  0
   -1.4865    3.2412    8.6058 H   0  0  0  0  0  0  0  0  0  0  0  0
   -2.3412    2.1229    7.6297 H   0  0  0  0  0  0  0  0  0  0  0  0
    1.1640    0.8428    6.9973 H   0  0  0  0  0  0  0  0  0  0  0  0
   -1.7707    0.5267    6.4468 H   0  0  0  0  0  0  0  0  0  0  0  0
    1.0240   -0.7518    5.5386 H   0  0  0  0  0  0  0  0  0  0  0  0
   -0.8357   -0.6525    3.4504 H   0  0  0  0  0  0  0  0  0  0  0  0
   -2.2731    1.0087    3.9126 H   0  0  0  0  0  0  0  0  0  0  0  0
   -3.1576    2.9621    4.1820 H   0  0  0  0  0  0  0  0  0  0  0  0
   -2.3525    4.2995    4.9370 H   0  0  0  0  0  0  0  0  0  0  0  0
   -1.6208    3.9960    2.3422 H   0  0  0  0  0  0  0  0  0  0  0  0
    0.3088    4.5576    3.1879 H   0  0  0  0  0  0  0  0  0  0  0  0
    1.7966    3.1736    3.0268 H   0  0  0  0  0  0  0  0  0  0  0  0
    3.7304    2.7979    4.8350 H   0  0  0  0  0  0  0  0  0  0  0  0
    3.2200    4.7720    3.6473 H   0  0  0  0  0  0  0  0  0  0  0  0
    2.4521    2.2979    6.6637 H   0  0  0  0  0  0  0  0  0  0  0  0
    3.0012    5.1742    7.2530 H   0  0  0  0  0  0  0  0  0  0  0  0
    4.1193    3.8355    7.3176 H   0  0  0  0  0  0  0  0  0  0  0  0
    2.7684    3.8665    8.4211 H   0  0  0  0  0  0  0  0  0  0  0  0
    2.0186    0.9560    5.0497 H   0  0  0  0  0  0  0  0  0  0  0  0
    3.2409    0.1840    1.1408 H   0  0  0  0  0  0  0  0  0  0  0  0
    4.2662    0.8083    2.4566 H   0  0  0  0  0  0  0  0  0  0  0  0
    2.9844    1.8246    1.7788 H   0  0  0  0  0  0  0  0  0  0  0  0
    3.0918   -1.6701    2.5954 H   0  0  0  0  0  0  0  0  0  0  0  0
    2.1195   -1.6550    4.0491 H   0  0  0  0  0  0  0  0  0  0  0  0
    3.7744   -0.9837    4.0769 H   0  0  0  0  0  0  0  0  0  0  0  0
    0.6727    2.0540    1.5620 H   0  0  0  0  0  0  0  0  0  0  0  0
   -0.7505    1.0278    1.6949 H   0  0  0  0  0  0  0  0  0  0  0  0
    0.7281    0.3802    1.0310 H   0  0  0  0  0  0  0  0  0  0  0  0
    0.3099   -3.1692    6.8290 H   0  0  0  0  0  0  0  0  0  0  0  0
   -0.6114   -2.5787    8.2043 H   0  0  0  0  0  0  0  0  0  0  0  0
    0.8799   -1.7513    7.7292 H   0  0  0  0  0  0  0  0  0  0  0  0
   -1.4648   -2.9793    5.3770 H   0  0  0  0  0  0  0  0  0  0  0  0
   -2.4438   -1.4970    5.0732 H   0  0  0  0  0  0  0  0  0  0  0  0
   -2.7036   -2.4879    6.4770 H   0  0  0  0  0  0  0  0  0  0  0  0
  1  2  1  0
  1 32  1  0
  1 33  1  0
  1 34  1  0
  2  3  2  0
  2  4  1  0
  5  4  1  1
  5 16  1  0
  5 21  1  0
  5  6  1  0
  6  7  1  0
  6  8  2  3
  7 35  1  0
  7 36  1  0
  7 37  1  0
  8  9  1  0
  8 38  1  0
  9 29  1  0
  9 10  1  0
  9 39  1  6
 10 11  1  0
 10 29  1  0
 10 40  1  1
 11 27  1  0
 11 12  1  0
 11 41  1  6
 12 13  2  0
 12 42  1  0
 13 14  1  0
 13 16  1  0
 14 15  1  0
 14 43  1  0
 14 44  1  0
 15 45  1  0
 16 17  1  6
 16 18  1  0
 17 46  1  0
 18 19  1  0
 18 23  1  0
 18 47  1  6
 19 20  1  0
 19 21  1  0
 19 48  1  1
 20 49  1  0
 21 22  1  0
 21 50  1  1
 22 51  1  0
 22 52  1  0
 22 53  1  0
 23 27  1  0
 23 24  1  0
 23 54  1  1
 24 25  1  0
 24 26  1  0
 24 27  1  0
 25 55  1  0
 25 56  1  0
 25 57  1  0
 26 58  1  0
 26 59  1  0
 26 60  1  0
 27 28  1  6
 28 61  1  0
 28 62  1  0
 28 63  1  0
 29 30  1  0
 29 31  1  0
 30 64  1  0
 30 65  1  0
 30 66  1  0
 31 67  1  0
 31 68  1  0
 31 69  1  0
M  END
>  <i_m_ct_stereo_status>  (90) 
1

>  <s_m_source_file>  (90) 
/var/tmp/pbs.5076255.sched01/tmpgqtxr8g4/0xtbcsf6k.sdf

>  <i_m_source_file_index>  (90) 
37

>  <i_lp_mmshare_version>  (90) 
48012

>  <i_f3d_flags>  (90) 
0

>  <s_epik_input>  (90) 
W0NIM11DKD1PKU9bQ0BdMTJbQ0BAXTMoW09IXSlbQ0BASF0oW0NAQEhdKFtPSF0pW0NASF0yW0NIM10pW0NASF00W0NAQF0oW0NIM10pKEM0KFtDSDNdKVtDSDNdKVtDQEhdKFtDSF09QzNbQ0gyXVtPSF0pW0NASF01W0NAQEhdKEM1KFtDSDNdKVtDSDNdKS9bQ0hdPUNcMVtDSDNd

>  <s_epik_cmdline>  (90) 
J2VwaWtfcHl0aG9uJywgJy1waHQnLCAnMi4wJywgJy1waCcsICc3LjAnLCAnLXRuJywgJzgnLCAnLW1hJywgJzIwMCcsICctaW1hZScsICc8aW5maWxlLm1hZT4nLCAnLW9tYWUnLCAnPG91dGZpbGUubWFlPic=

>  <r_lp_tautomer_probability>  (90) 
1

>  <r_epik_Ionization_Penalty>  (90) 
6.85217e-07

>  <r_epik_Ionization_Penalty_Charging>  (90) 
0

>  <r_epik_Ionization_Penalty_Neutral>  (90) 
6.85217e-07

>  <r_epik_State_Penalty>  (90) 
-0

>  <r_epik_Charging_Adjusted_Penalty>  (90) 
0

>  <i_epik_Tot_Q>  (90) 
0

>  <i_epik_Tot_abs_Q>  (90) 
0

>  <s_epik_Chemistry_Notes>  (90) 
This compound has an ester and may undergo hydrolysis at high or low pH.

>  <s_lp_Force_Field>  (90) 
OPLS3e

>  <r_lp_Energy>  (90) 
152.574

>  <b_lp_Chiralities_Consistent>  (90) 
1

>  <s_lp_Variant>  (90) 
23:0-2

>  <s_i_glide_gridfile>  (90) 
pfpi4k_grid

>  <i_i_glide_lignum>  (90) 
37

>  <i_i_glide_rotatable_bonds>  (90) 
6

>  <r_i_docking_score>  (90) 
-2.28253

>  <r_i_glide_ligand_efficiency>  (90) 
-0.0736299

>  <r_i_glide_ligand_efficiency_sa>  (90) 
-0.2313

>  <r_i_glide_ligand_efficiency_ln>  (90) 
-0.51478

>  <r_i_glide_gscore>  (90) 
-2.28253

>  <r_i_glide_lipo>  (90) 
-0.101441

>  <r_i_glide_hbond>  (90) 
0

>  <r_i_glide_metal>  (90) 
-0

>  <r_i_glide_rewards>  (90) 
-0.473339

>  <r_i_glide_evdw>  (90) 
-20.3327

>  <r_i_glide_ecoul>  (90) 
-6.03733

>  <r_i_glide_erotb>  (90) 
0.214485

>  <r_i_glide_esite>  (90) 
0

>  <r_i_glide_emodel>  (90) 
-28.0319

>  <r_i_glide_energy>  (90) 
-26.37

>  <r_i_glide_einternal>  (90) 
2.51694

>  <r_i_glide_intrahb_reward>  (90) 
-0

>  <i_i_glide_confnum>  (90) 
4

>  <i_i_glide_posenum>  (90) 
1

>  <r_i_glide_eff_state_penalty>  (90) 
0

>  <ligand_id>  (90) 
23

>  <original_smiles>  (90) 
CC(=O)OC12C(C)=CC3C(C4C=C(CO)C1(O)C(C(O)C2C)C1C(C)(C)C41C)C3(C)C

>  <smiles>  (90) 
[H]OC([H])([H])C1=C([H])C2([H])C3([H])C([H])(C([H])=C(C([H])([H])[H])C4(OC(=O)C([H])([H])[H])C1(O[H])C([H])(C([H])(O[H])C4([H])C([H])([H])[H])C1([H])C(C([H])([H])[H])(C([H])([H])[H])C21C([H])([H])[H])C3(C([H])([H])[H])C([H])([H])[H]

$$$$
23:1:1
     RDKit          3D

 69 73  0  0  1  0  0  0  0  0999 V2000
    7.1256   -2.9041   -1.7273 C   0  0  0  0  0  0  0  0  0  0  0  0
    5.7273   -3.3833   -1.3768 C   0  0  0  0  0  0  0  0  0  0  0  0
    4.8774   -3.5529   -2.2509 O   0  0  0  0  0  0  0  0  0  0  0  0
    5.5703   -3.5225   -0.0428 O   0  0  0  0  0  0  0  0  0  0  0  0
    4.3217   -3.7556    0.6609 C   0  0  1  0  0  0  0  0  0  0  0  0
    3.6527   -5.0943    0.2344 C   0  0  0  0  0  0  0  0  0  0  0  0
    4.6066   -6.1680   -0.3033 C   0  0  0  0  0  0  0  0  0  0  0  0
    2.3763   -5.4063    0.5564 C   0  0  0  0  0  0  0  0  0  0  0  0
    2.0680   -6.6031    1.3820 C   0  0  1  0  0  0  0  0  0  0  0  0
    1.5162   -6.0291    2.6956 C   0  0  2  0  0  0  0  0  0  0  0  0
    2.5170   -5.8595    3.8648 C   0  0  1  0  0  0  0  0  0  0  0  0
    3.9479   -6.1597    3.4134 C   0  0  0  0  0  0  0  0  0  0  0  0
    4.8664   -5.3803    2.7767 C   0  0  0  0  0  0  0  0  0  0  0  0
    6.2592   -5.9997    2.6294 C   0  0  0  0  0  0  0  0  0  0  0  0
    7.0260   -5.8452    3.8083 O   0  0  0  0  0  0  0  0  0  0  0  0
    4.7097   -3.9069    2.2150 C   0  0  1  0  0  0  0  0  0  0  0  0
    5.9414   -3.2434    2.3820 O   0  0  0  0  0  0  0  0  0  0  0  0
    3.8507   -2.8657    3.0224 C   0  0  1  0  0  0  0  0  0  0  0  0
    3.6057   -1.7252    2.0145 C   0  0  1  0  0  0  0  0  0  0  0  0
    4.7174   -0.8438    1.9732 O   0  0  0  0  0  0  0  0  0  0  0  0
    3.4150   -2.4467    0.6677 C   0  0  1  0  0  0  0  0  0  0  0  0
    3.4276   -1.4799   -0.5237 C   0  0  0  0  0  0  0  0  0  0  0  0
    2.5307   -3.4320    3.4770 C   0  0  2  0  0  0  0  0  0  0  0  0
    1.6748   -3.2564    4.6986 C   0  0  0  0  0  0  0  0  0  0  0  0
    1.9871   -2.0452    5.5666 C   0  0  0  0  0  0  0  0  0  0  0  0
    0.1757   -3.4724    4.7314 C   0  0  0  0  0  0  0  0  0  0  0  0
    2.6055   -4.4826    4.5535 C   0  0  1  0  0  0  0  0  0  0  0  0
    3.5894   -4.5384    5.7335 C   0  0  0  0  0  0  0  0  0  0  0  0
    0.8511   -7.2133    2.0491 C   0  0  0  0  0  0  0  0  0  0  0  0
   -0.5025   -7.0812    1.3776 C   0  0  0  0  0  0  0  0  0  0  0  0
    0.9542   -8.5554    2.7505 C   0  0  0  0  0  0  0  0  0  0  0  0
    7.8710   -3.6614   -1.4896 H   0  0  0  0  0  0  0  0  0  0  0  0
    7.3731   -1.9887   -1.1908 H   0  0  0  0  0  0  0  0  0  0  0  0
    7.1608   -2.6936   -2.7886 H   0  0  0  0  0  0  0  0  0  0  0  0
    5.6132   -6.1105    0.1004 H   0  0  0  0  0  0  0  0  0  0  0  0
    4.7096   -6.0114   -1.3718 H   0  0  0  0  0  0  0  0  0  0  0  0
    4.2503   -7.1881   -0.1773 H   0  0  0  0  0  0  0  0  0  0  0  0
    1.7517   -4.5901    0.8177 H   0  0  0  0  0  0  0  0  0  0  0  0
    2.8794   -7.3212    1.3826 H   0  0  0  0  0  0  0  0  0  0  0  0
    0.7864   -5.2368    2.6616 H   0  0  0  0  0  0  0  0  0  0  0  0
    2.2545   -6.5875    4.6333 H   0  0  0  0  0  0  0  0  0  0  0  0
    4.2572   -7.1578    3.6902 H   0  0  0  0  0  0  0  0  0  0  0  0
    6.1504   -7.0711    2.4560 H   0  0  0  0  0  0  0  0  0  0  0  0
    6.8170   -5.6024    1.7818 H   0  0  0  0  0  0  0  0  0  0  0  0
    7.8462   -6.2890    3.6876 H   0  0  0  0  0  0  0  0  0  0  0  0
    6.1577   -3.2591    3.2970 H   0  0  0  0  0  0  0  0  0  0  0  0
    4.3720   -2.4806    3.9025 H   0  0  0  0  0  0  0  0  0  0  0  0
    2.7395   -1.1189    2.2838 H   0  0  0  0  0  0  0  0  0  0  0  0
    5.4859   -1.3836    1.8390 H   0  0  0  0  0  0  0  0  0  0  0  0
    2.3741   -2.7350    0.6924 H   0  0  0  0  0  0  0  0  0  0  0  0
    4.4057   -1.0423   -0.7151 H   0  0  0  0  0  0  0  0  0  0  0  0
    2.7633   -0.6551   -0.3085 H   0  0  0  0  0  0  0  0  0  0  0  0
    3.0578   -1.9616   -1.4288 H   0  0  0  0  0  0  0  0  0  0  0  0
    1.8670   -3.5243    2.6413 H   0  0  0  0  0  0  0  0  0  0  0  0
    1.6779   -2.2201    6.5998 H   0  0  0  0  0  0  0  0  0  0  0  0
    1.4630   -1.1651    5.1863 H   0  0  0  0  0  0  0  0  0  0  0  0
    3.0544   -1.8167    5.5682 H   0  0  0  0  0  0  0  0  0  0  0  0
   -0.1913   -3.4253    5.7563 H   0  0  0  0  0  0  0  0  0  0  0  0
   -0.0886   -4.4541    4.3595 H   0  0  0  0  0  0  0  0  0  0  0  0
   -0.3257   -2.7059    4.1404 H   0  0  0  0  0  0  0  0  0  0  0  0
    4.3284   -3.7426    5.6710 H   0  0  0  0  0  0  0  0  0  0  0  0
    4.1327   -5.4798    5.8052 H   0  0  0  0  0  0  0  0  0  0  0  0
    3.0455   -4.4170    6.6700 H   0  0  0  0  0  0  0  0  0  0  0  0
   -1.3057   -7.1419    2.1154 H   0  0  0  0  0  0  0  0  0  0  0  0
   -0.6365   -7.8674    0.6460 H   0  0  0  0  0  0  0  0  0  0  0  0
   -0.5685   -6.1427    0.8359 H   0  0  0  0  0  0  0  0  0  0  0  0
    0.1964   -8.6391    3.5319 H   0  0  0  0  0  0  0  0  0  0  0  0
    1.9378   -8.6606    3.2157 H   0  0  0  0  0  0  0  0  0  0  0  0
    0.8218   -9.3779    2.0464 H   0  0  0  0  0  0  0  0  0  0  0  0
  1  2  1  0
  1 32  1  0
  1 33  1  0
  1 34  1  0
  2  3  2  0
  2  4  1  0
  5  4  1  6
  5 16  1  0
  5 21  1  0
  5  6  1  0
  6  7  1  0
  6  8  2  3
  7 35  1  0
  7 36  1  0
  7 37  1  0
  8  9  1  0
  8 38  1  0
  9 29  1  0
  9 10  1  0
  9 39  1  1
 10 11  1  0
 10 29  1  0
 10 40  1  6
 11 27  1  0
 11 12  1  0
 11 41  1  1
 12 13  2  0
 12 42  1  0
 13 14  1  0
 13 16  1  0
 14 15  1  0
 14 43  1  0
 14 44  1  0
 15 45  1  0
 16 17  1  6
 16 18  1  0
 17 46  1  0
 18 19  1  0
 18 23  1  0
 18 47  1  1
 19 20  1  0
 19 21  1  0
 19 48  1  1
 20 49  1  0
 21 22  1  0
 21 50  1  1
 22 51  1  0
 22 52  1  0
 22 53  1  0
 23 27  1  0
 23 24  1  0
 23 54  1  6
 24 25  1  0
 24 26  1  0
 24 27  1  0
 25 55  1  0
 25 56  1  0
 25 57  1  0
 26 58  1  0
 26 59  1  0
 26 60  1  0
 27 28  1  1
 28 61  1  0
 28 62  1  0
 28 63  1  0
 29 30  1  0
 29 31  1  0
 30 64  1  0
 30 65  1  0
 30 66  1  0
 31 67  1  0
 31 68  1  0
 31 69  1  0
M  END
>  <i_m_ct_stereo_status>  (91) 
1

>  <s_m_source_file>  (91) 
/var/tmp/pbs.5076255.sched01/tmpgqtxr8g4/0xtbcsf6k.sdf

>  <i_m_source_file_index>  (91) 
37

>  <i_lp_mmshare_version>  (91) 
48012

>  <i_f3d_flags>  (91) 
0

>  <s_epik_input>  (91) 
W0NIM11DKD1PKU9bQ0BdMTJbQ0BAXTMoW09IXSlbQ0BASF0oW0NAQEhdKFtPSF0pW0NASF0yW0NIM10pW0NASF00W0NAQF0oW0NIM10pKEM0KFtDSDNdKVtDSDNdKVtDQEhdKFtDSF09QzNbQ0gyXVtPSF0pW0NASF01W0NAQEhdKEM1KFtDSDNdKVtDSDNdKS9bQ0hdPUNcMVtDSDNd

>  <s_epik_cmdline>  (91) 
J2VwaWtfcHl0aG9uJywgJy1waHQnLCAnMi4wJywgJy1waCcsICc3LjAnLCAnLXRuJywgJzgnLCAnLW1hJywgJzIwMCcsICctaW1hZScsICc8aW5maWxlLm1hZT4nLCAnLW9tYWUnLCAnPG91dGZpbGUubWFlPic=

>  <r_lp_tautomer_probability>  (91) 
1

>  <r_epik_Ionization_Penalty>  (91) 
6.85217e-07

>  <r_epik_Ionization_Penalty_Charging>  (91) 
0

>  <r_epik_Ionization_Penalty_Neutral>  (91) 
6.85217e-07

>  <r_epik_State_Penalty>  (91) 
-0

>  <r_epik_Charging_Adjusted_Penalty>  (91) 
0

>  <i_epik_Tot_Q>  (91) 
0

>  <i_epik_Tot_abs_Q>  (91) 
0

>  <s_epik_Chemistry_Notes>  (91) 
This compound has an ester and may undergo hydrolysis at high or low pH.

>  <s_lp_Force_Field>  (91) 
OPLS3e

>  <r_lp_Energy>  (91) 
152.574

>  <b_lp_Chiralities_Consistent>  (91) 
1

>  <s_lp_Variant>  (91) 
23:0-2

>  <s_i_glide_gridfile>  (91) 
pfpi4k_grid

>  <i_i_glide_lignum>  (91) 
37

>  <i_i_glide_rotatable_bonds>  (91) 
6

>  <r_i_docking_score>  (91) 
-1.97011

>  <r_i_glide_ligand_efficiency>  (91) 
-0.0635518

>  <r_i_glide_ligand_efficiency_sa>  (91) 
-0.19964

>  <r_i_glide_ligand_efficiency_ln>  (91) 
-0.444319

>  <r_i_glide_gscore>  (91) 
-1.97011

>  <r_i_glide_lipo>  (91) 
-0.0784532

>  <r_i_glide_hbond>  (91) 
0

>  <r_i_glide_metal>  (91) 
-0

>  <r_i_glide_rewards>  (91) 
-1.13958

>  <r_i_glide_evdw>  (91) 
-20.4035

>  <r_i_glide_ecoul>  (91) 
0.357485

>  <r_i_glide_erotb>  (91) 
0.214485

>  <r_i_glide_esite>  (91) 
0

>  <r_i_glide_emodel>  (91) 
-26.7489

>  <r_i_glide_energy>  (91) 
-20.046

>  <r_i_glide_einternal>  (91) 
2.56419

>  <r_i_glide_intrahb_reward>  (91) 
-0.5

>  <i_i_glide_confnum>  (91) 
4

>  <i_i_glide_posenum>  (91) 
19

>  <r_i_glide_eff_state_penalty>  (91) 
0

>  <ligand_id>  (91) 
23

>  <original_smiles>  (91) 
CC(=O)OC12C(C)=CC3C(C4C=C(CO)C1(O)C(C(O)C2C)C1C(C)(C)C41C)C3(C)C

>  <smiles>  (91) 
[H]OC([H])([H])C1=C([H])C2([H])C3([H])C([H])(C([H])=C(C([H])([H])[H])C4(OC(=O)C([H])([H])[H])C1(O[H])C([H])(C([H])(O[H])C4([H])C([H])([H])[H])C1([H])C(C([H])([H])[H])(C([H])([H])[H])C21C([H])([H])[H])C3(C([H])([H])[H])C([H])([H])[H]

$$$$
23:1:2
     RDKit          3D

 69 73  0  0  1  0  0  0  0  0999 V2000
    7.1466   -2.9972   -1.7364 C   0  0  0  0  0  0  0  0  0  0  0  0
    5.7373   -3.4356   -1.3846 C   0  0  0  0  0  0  0  0  0  0  0  0
    4.8747   -3.5724   -2.2597 O   0  0  0  0  0  0  0  0  0  0  0  0
    5.5898   -3.5983   -0.0497 O   0  0  0  0  0  0  0  0  0  0  0  0
    4.3428   -3.8150    0.6639 C   0  0  1  0  0  0  0  0  0  0  0  0
    3.6545   -5.1459    0.2303 C   0  0  0  0  0  0  0  0  0  0  0  0
    4.5901   -6.2243   -0.3233 C   0  0  0  0  0  0  0  0  0  0  0  0
    2.3746   -5.4409    0.5571 C   0  0  0  0  0  0  0  0  0  0  0  0
    2.0630   -6.6561    1.3640 C   0  0  1  0  0  0  0  0  0  0  0  0
    1.5258   -6.0889    2.6915 C   0  0  2  0  0  0  0  0  0  0  0  0
    2.5458   -5.9424    3.8502 C   0  0  1  0  0  0  0  0  0  0  0  0
    3.9682   -6.2485    3.3835 C   0  0  0  0  0  0  0  0  0  0  0  0
    4.9008   -5.4677    2.7594 C   0  0  0  0  0  0  0  0  0  0  0  0
    6.2827   -6.1173    2.5968 C   0  0  0  0  0  0  0  0  0  0  0  0
    7.1149   -5.8557    3.7011 O   0  0  0  0  0  0  0  0  0  0  0  0
    4.7538   -3.9901    2.2108 C   0  0  1  0  0  0  0  0  0  0  0  0
    6.0028   -3.3490    2.3458 O   0  0  0  0  0  0  0  0  0  0  0  0
    3.9079   -2.9517    3.0364 C   0  0  1  0  0  0  0  0  0  0  0  0
    3.6599   -1.7976    2.0428 C   0  0  1  0  0  0  0  0  0  0  0  0
    4.7677   -0.9150    1.9877 O   0  0  0  0  0  0  0  0  0  0  0  0
    3.4445   -2.4976    0.6892 C   0  0  1  0  0  0  0  0  0  0  0  0
    3.4591   -1.5124   -0.4893 C   0  0  0  0  0  0  0  0  0  0  0  0
    2.5815   -3.5152    3.4953 C   0  0  2  0  0  0  0  0  0  0  0  0
    1.7290   -3.3417    4.7237 C   0  0  0  0  0  0  0  0  0  0  0  0
    2.0577   -2.1471    5.6072 C   0  0  0  0  0  0  0  0  0  0  0  0
    0.2246   -3.5497    4.7628 C   0  0  0  0  0  0  0  0  0  0  0  0
    2.6464   -4.5773    4.5615 C   0  0  1  0  0  0  0  0  0  0  0  0
    3.6378   -4.6551    5.7350 C   0  0  0  0  0  0  0  0  0  0  0  0
    0.8464   -7.2606    2.0349 C   0  0  0  0  0  0  0  0  0  0  0  0
   -0.5081   -7.0998    1.3724 C   0  0  0  0  0  0  0  0  0  0  0  0
    0.9455   -8.6119    2.7205 C   0  0  0  0  0  0  0  0  0  0  0  0
    7.8709   -3.7783   -1.5035 H   0  0  0  0  0  0  0  0  0  0  0  0
    7.4333   -2.0912   -1.2015 H   0  0  0  0  0  0  0  0  0  0  0  0
    7.1831   -2.7862   -2.7965 H   0  0  0  0  0  0  0  0  0  0  0  0
    5.6024   -6.1797    0.0624 H   0  0  0  0  0  0  0  0  0  0  0  0
    4.6807   -6.0573   -1.3872 H   0  0  0  0  0  0  0  0  0  0  0  0
    4.2288   -7.2451   -0.2011 H   0  0  0  0  0  0  0  0  0  0  0  0
    1.7526   -4.6279    0.8277 H   0  0  0  0  0  0  0  0  0  0  0  0
    2.8665   -7.3789    1.3512 H   0  0  0  0  0  0  0  0  0  0  0  0
    0.8046   -5.2883    2.6708 H   0  0  0  0  0  0  0  0  0  0  0  0
    2.2784   -6.6779    4.6102 H   0  0  0  0  0  0  0  0  0  0  0  0
    4.2624   -7.2500    3.6535 H   0  0  0  0  0  0  0  0  0  0  0  0
    6.1733   -7.2001    2.5225 H   0  0  0  0  0  0  0  0  0  0  0  0
    6.8030   -5.7929    1.6999 H   0  0  0  0  0  0  0  0  0  0  0  0
    7.9546   -6.2665    3.5521 H   0  0  0  0  0  0  0  0  0  0  0  0
    6.6549   -3.8850    1.9106 H   0  0  0  0  0  0  0  0  0  0  0  0
    4.4534   -2.5928    3.9085 H   0  0  0  0  0  0  0  0  0  0  0  0
    2.8003   -1.1939    2.3368 H   0  0  0  0  0  0  0  0  0  0  0  0
    5.5374   -1.4574    1.8480 H   0  0  0  0  0  0  0  0  0  0  0  0
    2.4008   -2.7772    0.7233 H   0  0  0  0  0  0  0  0  0  0  0  0
    4.4426   -1.0913   -0.6801 H   0  0  0  0  0  0  0  0  0  0  0  0
    2.8109   -0.6683   -0.2718 H   0  0  0  0  0  0  0  0  0  0  0  0
    3.0835   -1.9857   -1.3948 H   0  0  0  0  0  0  0  0  0  0  0  0
    1.9095   -3.5861    2.6639 H   0  0  0  0  0  0  0  0  0  0  0  0
    1.7547   -2.3326    6.6402 H   0  0  0  0  0  0  0  0  0  0  0  0
    1.5407   -1.2558    5.2441 H   0  0  0  0  0  0  0  0  0  0  0  0
    3.1279   -1.9290    5.6040 H   0  0  0  0  0  0  0  0  0  0  0  0
   -0.1372   -3.5151    5.7905 H   0  0  0  0  0  0  0  0  0  0  0  0
   -0.0549   -4.5231    4.3793 H   0  0  0  0  0  0  0  0  0  0  0  0
   -0.2775   -2.7720    4.1880 H   0  0  0  0  0  0  0  0  0  0  0  0
    4.3842   -3.8628    5.6765 H   0  0  0  0  0  0  0  0  0  0  0  0
    4.1755   -5.6017    5.7912 H   0  0  0  0  0  0  0  0  0  0  0  0
    3.1027   -4.5394    6.6786 H   0  0  0  0  0  0  0  0  0  0  0  0
   -1.3097   -7.1650    2.1111 H   0  0  0  0  0  0  0  0  0  0  0  0
   -0.6575   -7.8584    0.6203 H   0  0  0  0  0  0  0  0  0  0  0  0
   -0.5686   -6.1472    0.8529 H   0  0  0  0  0  0  0  0  0  0  0  0
    0.1940   -8.6986    3.5075 H   0  0  0  0  0  0  0  0  0  0  0  0
    1.9307   -8.7297    3.1776 H   0  0  0  0  0  0  0  0  0  0  0  0
    0.8038   -9.4270    2.0100 H   0  0  0  0  0  0  0  0  0  0  0  0
  1  2  1  0
  1 32  1  0
  1 33  1  0
  1 34  1  0
  2  3  2  0
  2  4  1  0
  5  4  1  6
  5 16  1  0
  5 21  1  0
  5  6  1  0
  6  7  1  0
  6  8  2  3
  7 35  1  0
  7 36  1  0
  7 37  1  0
  8  9  1  0
  8 38  1  0
  9 29  1  0
  9 10  1  0
  9 39  1  1
 10 11  1  0
 10 29  1  0
 10 40  1  6
 11 27  1  0
 11 12  1  0
 11 41  1  1
 12 13  2  0
 12 42  1  0
 13 14  1  0
 13 16  1  0
 14 15  1  0
 14 43  1  0
 14 44  1  0
 15 45  1  0
 16 17  1  6
 16 18  1  0
 17 46  1  0
 18 19  1  0
 18 23  1  0
 18 47  1  1
 19 20  1  0
 19 21  1  0
 19 48  1  1
 20 49  1  0
 21 22  1  0
 21 50  1  1
 22 51  1  0
 22 52  1  0
 22 53  1  0
 23 27  1  0
 23 24  1  0
 23 54  1  6
 24 25  1  0
 24 26  1  0
 24 27  1  0
 25 55  1  0
 25 56  1  0
 25 57  1  0
 26 58  1  0
 26 59  1  0
 26 60  1  0
 27 28  1  1
 28 61  1  0
 28 62  1  0
 28 63  1  0
 29 30  1  0
 29 31  1  0
 30 64  1  0
 30 65  1  0
 30 66  1  0
 31 67  1  0
 31 68  1  0
 31 69  1  0
M  END
>  <i_m_ct_stereo_status>  (92) 
1

>  <s_m_source_file>  (92) 
/var/tmp/pbs.5076255.sched01/tmpgqtxr8g4/0xtbcsf6k.sdf

>  <i_m_source_file_index>  (92) 
37

>  <i_lp_mmshare_version>  (92) 
48012

>  <i_f3d_flags>  (92) 
0

>  <s_epik_input>  (92) 
W0NIM11DKD1PKU9bQ0BdMTJbQ0BAXTMoW09IXSlbQ0BASF0oW0NAQEhdKFtPSF0pW0NASF0yW0NIM10pW0NASF00W0NAQF0oW0NIM10pKEM0KFtDSDNdKVtDSDNdKVtDQEhdKFtDSF09QzNbQ0gyXVtPSF0pW0NASF01W0NAQEhdKEM1KFtDSDNdKVtDSDNdKS9bQ0hdPUNcMVtDSDNd

>  <s_epik_cmdline>  (92) 
J2VwaWtfcHl0aG9uJywgJy1waHQnLCAnMi4wJywgJy1waCcsICc3LjAnLCAnLXRuJywgJzgnLCAnLW1hJywgJzIwMCcsICctaW1hZScsICc8aW5maWxlLm1hZT4nLCAnLW9tYWUnLCAnPG91dGZpbGUubWFlPic=

>  <r_lp_tautomer_probability>  (92) 
1

>  <r_epik_Ionization_Penalty>  (92) 
6.85217e-07

>  <r_epik_Ionization_Penalty_Charging>  (92) 
0

>  <r_epik_Ionization_Penalty_Neutral>  (92) 
6.85217e-07

>  <r_epik_State_Penalty>  (92) 
-0

>  <r_epik_Charging_Adjusted_Penalty>  (92) 
0

>  <i_epik_Tot_Q>  (92) 
0

>  <i_epik_Tot_abs_Q>  (92) 
0

>  <s_epik_Chemistry_Notes>  (92) 
This compound has an ester and may undergo hydrolysis at high or low pH.

>  <s_lp_Force_Field>  (92) 
OPLS3e

>  <r_lp_Energy>  (92) 
152.574

>  <b_lp_Chiralities_Consistent>  (92) 
1

>  <s_lp_Variant>  (92) 
23:0-2

>  <s_i_glide_gridfile>  (92) 
pfpi4k_grid

>  <i_i_glide_lignum>  (92) 
37

>  <i_i_glide_rotatable_bonds>  (92) 
6

>  <r_i_docking_score>  (92) 
-1.96605

>  <r_i_glide_ligand_efficiency>  (92) 
-0.0634211

>  <r_i_glide_ligand_efficiency_sa>  (92) 
-0.19923

>  <r_i_glide_ligand_efficiency_ln>  (92) 
-0.443405

>  <r_i_glide_gscore>  (92) 
-1.96605

>  <r_i_glide_lipo>  (92) 
-0.0759265

>  <r_i_glide_hbond>  (92) 
0

>  <r_i_glide_metal>  (92) 
-0

>  <r_i_glide_rewards>  (92) 
-1.12991

>  <r_i_glide_evdw>  (92) 
-19.8199

>  <r_i_glide_ecoul>  (92) 
0.108592

>  <r_i_glide_erotb>  (92) 
0.214485

>  <r_i_glide_esite>  (92) 
0

>  <r_i_glide_emodel>  (92) 
-26.5793

>  <r_i_glide_energy>  (92) 
-19.7113

>  <r_i_glide_einternal>  (92) 
1.91426

>  <r_i_glide_intrahb_reward>  (92) 
-0.5

>  <i_i_glide_confnum>  (92) 
4

>  <i_i_glide_posenum>  (92) 
10

>  <r_i_glide_eff_state_penalty>  (92) 
0

>  <ligand_id>  (92) 
23

>  <original_smiles>  (92) 
CC(=O)OC12C(C)=CC3C(C4C=C(CO)C1(O)C(C(O)C2C)C1C(C)(C)C41C)C3(C)C

>  <smiles>  (92) 
[H]OC([H])([H])C1=C([H])C2([H])C3([H])C([H])(C([H])=C(C([H])([H])[H])C4(OC(=O)C([H])([H])[H])C1(O[H])C([H])(C([H])(O[H])C4([H])C([H])([H])[H])C1([H])C(C([H])([H])[H])(C([H])([H])[H])C21C([H])([H])[H])C3(C([H])([H])[H])C([H])([H])[H]

$$$$
24:0:0
     RDKit          3D

 33 37  0  0  1  0  0  0  0  0999 V2000
    6.9343   -5.0791    0.8111 F   0  0  0  0  0  0  0  0  0  0  0  0
    5.7090   -4.7360    0.4085 C   0  0  1  0  0  0  0  0  0  0  0  0
    5.0000   -3.8948    1.3864 C   0  0  0  0  0  0  0  0  0  0  0  0
    5.7782   -2.8296    1.8218 C   0  0  0  0  0  0  0  0  0  0  0  0
    5.0675   -1.8616    2.6230 C   0  0  0  0  0  0  0  0  0  0  0  0
    4.3899   -0.9439    1.9241 C   0  0  0  0  0  0  0  0  0  0  0  0
    4.4365   -0.9824    0.3961 C   0  0  0  0  0  0  0  0  0  0  0  0
    5.4745   -2.0495   -0.2495 C   0  0  2  0  0  0  0  0  0  0  0  0
    6.6239   -2.0517    0.7083 C   0  0  2  0  0  0  0  0  0  0  0  0
    7.6323   -2.6075   -0.3166 C   0  0  0  0  0  0  0  0  0  0  0  0
    6.6575   -3.0278   -1.4192 C   0  0  2  0  0  0  0  0  0  0  0  0
    5.3566   -2.1097   -1.7034 C   0  0  1  0  0  0  0  0  0  0  0  0
    3.7684   -2.5178   -1.8500 C   0  0  0  0  0  0  0  0  0  0  0  0
    3.0024   -3.4142   -0.6604 C   0  0  0  0  0  0  0  0  0  0  0  0
    3.4679   -3.7385    0.9118 C   0  0  0  0  0  0  0  0  0  0  0  0
    5.6191   -3.7111   -0.6845 C   0  0  1  0  0  0  0  0  0  0  0  0
    5.1623   -5.6570    0.1964 H   0  0  0  0  0  0  0  0  0  0  0  0
    5.0641   -1.9006    3.7027 H   0  0  0  0  0  0  0  0  0  0  0  0
    3.7919   -0.1773    2.4001 H   0  0  0  0  0  0  0  0  0  0  0  0
    3.3981   -1.0548    0.0784 H   0  0  0  0  0  0  0  0  0  0  0  0
    4.7437    0.0196    0.0919 H   0  0  0  0  0  0  0  0  0  0  0  0
    6.9321   -1.0539    1.0384 H   0  0  0  0  0  0  0  0  0  0  0  0
    8.3040   -1.8372   -0.6953 H   0  0  0  0  0  0  0  0  0  0  0  0
    8.2750   -3.4076    0.0472 H   0  0  0  0  0  0  0  0  0  0  0  0
    7.0490   -3.5731   -2.2831 H   0  0  0  0  0  0  0  0  0  0  0  0
    5.6303   -1.1706   -2.1874 H   0  0  0  0  0  0  0  0  0  0  0  0
    3.1968   -1.6002   -2.0031 H   0  0  0  0  0  0  0  0  0  0  0  0
    3.6238   -3.0395   -2.8003 H   0  0  0  0  0  0  0  0  0  0  0  0
    1.9750   -3.0458   -0.6093 H   0  0  0  0  0  0  0  0  0  0  0  0
    2.8673   -4.3943   -1.1159 H   0  0  0  0  0  0  0  0  0  0  0  0
    3.0044   -4.6925    1.1605 H   0  0  0  0  0  0  0  0  0  0  0  0
    2.9499   -3.0455    1.5724 H   0  0  0  0  0  0  0  0  0  0  0  0
    5.1536   -4.2902   -1.5004 H   0  0  0  0  0  0  0  0  0  0  0  0
  1  2  1  0
  2 16  1  0
  2  3  1  0
  2 17  1  6
  3 15  1  0
  3  4  2  0
  4  9  1  0
  4  5  1  0
  5  6  2  0
  5 18  1  0
  6  7  1  0
  6 19  1  0
  8  7  1  1
  7 20  1  0
  7 21  1  0
  8 12  1  0
  8 16  1  0
  8  9  1  0
  9 10  1  0
  9 22  1  1
 10 11  1  0
 10 23  1  0
 10 24  1  0
 11 12  1  0
 11 16  1  0
 11 25  1  6
 12 13  1  0
 12 26  1  6
 13 14  1  0
 13 27  1  0
 13 28  1  0
 14 15  1  0
 14 29  1  0
 14 30  1  0
 15 31  1  0
 15 32  1  0
 16 33  1  6
M  END
>  <i_m_ct_stereo_status>  (93) 
1

>  <s_m_source_file>  (93) 
/var/tmp/pbs.5076255.sched01/tmpgqtxr8g4/0xtbcsf6k.sdf

>  <i_m_source_file_index>  (93) 
38

>  <i_lp_mmshare_version>  (93) 
48012

>  <i_f3d_flags>  (93) 
0

>  <s_epik_input>  (93) 
W0NIMl0xW0NIXT1bQ0hdQyhbQ0BASF0yQzEzNCk9QzVbQ0BIXShGKVtDSF00W0NASF0oW0NIMl0yKVtDQEhdM1tDSDJdW0NIMl1bQ0gyXTU=

>  <s_epik_cmdline>  (93) 
J2VwaWtfcHl0aG9uJywgJy1waHQnLCAnMi4wJywgJy1waCcsICc3LjAnLCAnLXRuJywgJzgnLCAnLW1hJywgJzIwMCcsICctaW1hZScsICc8aW5maWxlLm1hZT4nLCAnLW9tYWUnLCAnPG91dGZpbGUubWFlPic=

>  <r_lp_tautomer_probability>  (93) 
1

>  <r_epik_Ionization_Penalty>  (93) 
0

>  <r_epik_Ionization_Penalty_Charging>  (93) 
0

>  <r_epik_Ionization_Penalty_Neutral>  (93) 
0

>  <r_epik_State_Penalty>  (93) 
-0

>  <r_epik_Charging_Adjusted_Penalty>  (93) 
0

>  <i_epik_Tot_Q>  (93) 
0

>  <i_epik_Tot_abs_Q>  (93) 
0

>  <s_lp_Force_Field>  (93) 
OPLS3e

>  <r_lp_Energy>  (93) 
297.537

>  <b_lp_Chiralities_Consistent>  (93) 
1

>  <s_lp_Variant>  (93) 
24:0-1

>  <s_i_glide_gridfile>  (93) 
pfpi4k_grid

>  <i_i_glide_lignum>  (93) 
38

>  <i_i_glide_rotatable_bonds>  (93) 
0

>  <r_i_docking_score>  (93) 
-3.83358

>  <r_i_glide_ligand_efficiency>  (93) 
-0.239599

>  <r_i_glide_ligand_efficiency_sa>  (93) 
-0.603751

>  <r_i_glide_ligand_efficiency_ln>  (93) 
-1.01617

>  <r_i_glide_gscore>  (93) 
-3.83358

>  <r_i_glide_lipo>  (93) 
-0.544457

>  <r_i_glide_hbond>  (93) 
0

>  <r_i_glide_metal>  (93) 
-0

>  <r_i_glide_rewards>  (93) 
-2.08154

>  <r_i_glide_evdw>  (93) 
-20.7073

>  <r_i_glide_ecoul>  (93) 
-1.14815

>  <r_i_glide_erotb>  (93) 
0

>  <r_i_glide_esite>  (93) 
0

>  <r_i_glide_emodel>  (93) 
-27.2636

>  <r_i_glide_energy>  (93) 
-21.8555

>  <r_i_glide_einternal>  (93) 
0

>  <r_i_glide_intrahb_reward>  (93) 
-0

>  <i_i_glide_confnum>  (93) 
1

>  <i_i_glide_posenum>  (93) 
1

>  <r_i_glide_eff_state_penalty>  (93) 
0

>  <ligand_id>  (93) 
24

>  <original_smiles>  (93) 
FC1C2=C3C=CCC45C3CC(C4CCC2)C15

>  <smiles>  (93) 
[H]C1=C([H])C([H])([H])C23C4([H])C1=C1C([H])([H])C([H])([H])C([H])([H])C2([H])C([H])(C4([H])[H])C3([H])C1([H])F

$$$$
24:0:1
     RDKit          3D

 33 37  0  0  1  0  0  0  0  0999 V2000
    7.6441   -2.4783    0.2923 F   0  0  0  0  0  0  0  0  0  0  0  0
    6.4541   -1.9624    0.6217 C   0  0  1  0  0  0  0  0  0  0  0  0
    5.5979   -1.7306   -0.5464 C   0  0  0  0  0  0  0  0  0  0  0  0
    5.5319   -2.8359   -1.3754 C   0  0  0  0  0  0  0  0  0  0  0  0
    4.5529   -2.7372   -2.4341 C   0  0  0  0  0  0  0  0  0  0  0  0
    3.3060   -3.0555   -2.0699 C   0  0  0  0  0  0  0  0  0  0  0  0
    3.0389   -3.5078   -0.6356 C   0  0  0  0  0  0  0  0  0  0  0  0
    4.3496   -3.7307    0.2939 C   0  0  2  0  0  0  0  0  0  0  0  0
    5.3575   -4.2581   -0.6603 C   0  0  2  0  0  0  0  0  0  0  0  0
    6.2218   -4.9111    0.4489 C   0  0  0  0  0  0  0  0  0  0  0  0
    5.5888   -4.2681    1.6643 C   0  0  2  0  0  0  0  0  0  0  0  0
    3.9891   -4.0188    1.6839 C   0  0  1  0  0  0  0  0  0  0  0  0
    3.1063   -2.7029    2.0466 C   0  0  0  0  0  0  0  0  0  0  0  0
    3.4136   -1.2350    1.2983 C   0  0  0  0  0  0  0  0  0  0  0  0
    4.3033   -0.8947   -0.0742 C   0  0  0  0  0  0  0  0  0  0  0  0
    5.4651   -2.8730    1.2791 C   0  0  1  0  0  0  0  0  0  0  0  0
    6.6459   -1.0421    1.1796 H   0  0  0  0  0  0  0  0  0  0  0  0
    4.8044   -2.3961   -3.4265 H   0  0  0  0  0  0  0  0  0  0  0  0
    2.4670   -2.9951   -2.7533 H   0  0  0  0  0  0  0  0  0  0  0  0
    2.2739   -2.8266   -0.2571 H   0  0  0  0  0  0  0  0  0  0  0  0
    2.5177   -4.4650   -0.7260 H   0  0  0  0  0  0  0  0  0  0  0  0
    4.9871   -5.0300   -1.3392 H   0  0  0  0  0  0  0  0  0  0  0  0
    6.0610   -5.9927    0.4817 H   0  0  0  0  0  0  0  0  0  0  0  0
    7.2941   -4.7534    0.3581 H   0  0  0  0  0  0  0  0  0  0  0  0
    6.0550   -4.4239    2.6496 H   0  0  0  0  0  0  0  0  0  0  0  0
    3.4558   -4.9819    1.7793 H   0  0  0  0  0  0  0  0  0  0  0  0
    2.0495   -2.9424    1.8951 H   0  0  0  0  0  0  0  0  0  0  0  0
    3.1454   -2.5389    3.1286 H   0  0  0  0  0  0  0  0  0  0  0  0
    2.4410   -0.7500    1.1618 H   0  0  0  0  0  0  0  0  0  0  0  0
    3.8734   -0.6271    2.0798 H   0  0  0  0  0  0  0  0  0  0  0  0
    4.6575    0.1272    0.0643 H   0  0  0  0  0  0  0  0  0  0  0  0
    3.6109   -0.7915   -0.9082 H   0  0  0  0  0  0  0  0  0  0  0  0
    5.3502   -2.4108    2.2721 H   0  0  0  0  0  0  0  0  0  0  0  0
  1  2  1  0
  2 16  1  0
  2  3  1  0
  2 17  1  1
  3 15  1  0
  3  4  2  0
  4  9  1  0
  4  5  1  0
  5  6  2  0
  5 18  1  0
  6  7  1  0
  6 19  1  0
  8  7  1  6
  7 20  1  0
  7 21  1  0
  8 12  1  0
  8 16  1  0
  8  9  1  0
  9 10  1  0
  9 22  1  6
 10 11  1  0
 10 23  1  0
 10 24  1  0
 11 12  1  0
 11 16  1  0
 11 25  1  1
 12 13  1  0
 12 26  1  6
 13 14  1  0
 13 27  1  0
 13 28  1  0
 14 15  1  0
 14 29  1  0
 14 30  1  0
 15 31  1  0
 15 32  1  0
 16 33  1  1
M  END
>  <i_m_ct_stereo_status>  (94) 
1

>  <s_m_source_file>  (94) 
/var/tmp/pbs.5076255.sched01/tmpgqtxr8g4/0xtbcsf6k.sdf

>  <i_m_source_file_index>  (94) 
38

>  <i_lp_mmshare_version>  (94) 
48012

>  <i_f3d_flags>  (94) 
0

>  <s_epik_input>  (94) 
W0NIMl0xW0NIXT1bQ0hdQyhbQ0BASF0yQzEzNCk9QzVbQ0BIXShGKVtDSF00W0NASF0oW0NIMl0yKVtDQEhdM1tDSDJdW0NIMl1bQ0gyXTU=

>  <s_epik_cmdline>  (94) 
J2VwaWtfcHl0aG9uJywgJy1waHQnLCAnMi4wJywgJy1waCcsICc3LjAnLCAnLXRuJywgJzgnLCAnLW1hJywgJzIwMCcsICctaW1hZScsICc8aW5maWxlLm1hZT4nLCAnLW9tYWUnLCAnPG91dGZpbGUubWFlPic=

>  <r_lp_tautomer_probability>  (94) 
1

>  <r_epik_Ionization_Penalty>  (94) 
0

>  <r_epik_Ionization_Penalty_Charging>  (94) 
0

>  <r_epik_Ionization_Penalty_Neutral>  (94) 
0

>  <r_epik_State_Penalty>  (94) 
-0

>  <r_epik_Charging_Adjusted_Penalty>  (94) 
0

>  <i_epik_Tot_Q>  (94) 
0

>  <i_epik_Tot_abs_Q>  (94) 
0

>  <s_lp_Force_Field>  (94) 
OPLS3e

>  <r_lp_Energy>  (94) 
297.537

>  <b_lp_Chiralities_Consistent>  (94) 
1

>  <s_lp_Variant>  (94) 
24:0-1

>  <s_i_glide_gridfile>  (94) 
pfpi4k_grid

>  <i_i_glide_lignum>  (94) 
38

>  <i_i_glide_rotatable_bonds>  (94) 
0

>  <r_i_docking_score>  (94) 
-3.80444

>  <r_i_glide_ligand_efficiency>  (94) 
-0.237778

>  <r_i_glide_ligand_efficiency_sa>  (94) 
-0.599162

>  <r_i_glide_ligand_efficiency_ln>  (94) 
-1.00844

>  <r_i_glide_gscore>  (94) 
-3.80444

>  <r_i_glide_lipo>  (94) 
-0.482264

>  <r_i_glide_hbond>  (94) 
0

>  <r_i_glide_metal>  (94) 
-0

>  <r_i_glide_rewards>  (94) 
-2.15793

>  <r_i_glide_evdw>  (94) 
-20.2597

>  <r_i_glide_ecoul>  (94) 
-1.00837

>  <r_i_glide_erotb>  (94) 
0

>  <r_i_glide_esite>  (94) 
0

>  <r_i_glide_emodel>  (94) 
-26.6107

>  <r_i_glide_energy>  (94) 
-21.2681

>  <r_i_glide_einternal>  (94) 
0

>  <r_i_glide_intrahb_reward>  (94) 
-0

>  <i_i_glide_confnum>  (94) 
1

>  <i_i_glide_posenum>  (94) 
12

>  <r_i_glide_eff_state_penalty>  (94) 
0

>  <ligand_id>  (94) 
24

>  <original_smiles>  (94) 
FC1C2=C3C=CCC45C3CC(C4CCC2)C15

>  <smiles>  (94) 
[H]C1=C([H])C([H])([H])C23C4([H])C1=C1C([H])([H])C([H])([H])C([H])([H])C2([H])C([H])(C4([H])[H])C3([H])C1([H])F

$$$$
24:0:2
     RDKit          3D

 33 37  0  0  1  0  0  0  0  0999 V2000
    6.2833   -5.1349    0.2970 F   0  0  0  0  0  0  0  0  0  0  0  0
    5.2168   -4.6615   -0.3444 C   0  0  1  0  0  0  0  0  0  0  0  0
    4.2593   -4.0101    0.5599 C   0  0  0  0  0  0  0  0  0  0  0  0
    4.8753   -3.1100    1.4059 C   0  0  0  0  0  0  0  0  0  0  0  0
    3.9584   -2.3035    2.1839 C   0  0  0  0  0  0  0  0  0  0  0  0
    3.4872   -1.2319    1.5390 C   0  0  0  0  0  0  0  0  0  0  0  0
    3.9563   -0.9460    0.1144 C   0  0  0  0  0  0  0  0  0  0  0  0
    5.1394   -1.8966   -0.4470 C   0  0  2  0  0  0  0  0  0  0  0  0
    5.9802   -2.1456    0.7626 C   0  0  2  0  0  0  0  0  0  0  0  0
    7.2383   -2.5148   -0.0433 C   0  0  0  0  0  0  0  0  0  0  0  0
    6.6055   -2.6595   -1.4286 C   0  0  2  0  0  0  0  0  0  0  0  0
    5.4184   -1.6490   -1.8495 C   0  0  1  0  0  0  0  0  0  0  0  0
    3.9470   -1.9301   -2.5129 C   0  0  0  0  0  0  0  0  0  0  0  0
    2.8956   -3.0160   -1.8017 C   0  0  0  0  0  0  0  0  0  0  0  0
    2.9141   -3.6914   -0.2757 C   0  0  0  0  0  0  0  0  0  0  0  0
    5.4171   -3.4315   -1.1726 C   0  0  1  0  0  0  0  0  0  0  0  0
    4.7670   -5.4908   -0.8882 H   0  0  0  0  0  0  0  0  0  0  0  0
    3.6516   -2.5719    3.1817 H   0  0  0  0  0  0  0  0  0  0  0  0
    2.7656   -0.5572    1.9806 H   0  0  0  0  0  0  0  0  0  0  0  0
    3.0504   -0.9050   -0.4748 H   0  0  0  0  0  0  0  0  0  0  0  0
    4.3187    0.0825    0.1300 H   0  0  0  0  0  0  0  0  0  0  0  0
    6.1722   -1.2644    1.3776 H   0  0  0  0  0  0  0  0  0  0  0  0
    7.9599   -1.6959   -0.0485 H   0  0  0  0  0  0  0  0  0  0  0  0
    7.7751   -3.3997    0.2912 H   0  0  0  0  0  0  0  0  0  0  0  0
    7.2157   -3.0407   -2.2502 H   0  0  0  0  0  0  0  0  0  0  0  0
    5.7976   -0.6510   -2.0130 H   0  0  0  0  0  0  0  0  0  0  0  0
    3.4318   -0.9753   -2.6063 H   0  0  0  0  0  0  0  0  0  0  0  0
    4.0789   -2.2241   -3.5583 H   0  0  0  0  0  0  0  0  0  0  0  0
    1.8881   -2.6359   -1.9555 H   0  0  0  0  0  0  0  0  0  0  0  0
    2.9055   -3.8540   -2.4941 H   0  0  0  0  0  0  0  0  0  0  0  0
    2.4131   -4.6529   -0.3766 H   0  0  0  0  0  0  0  0  0  0  0  0
    2.2270   -3.1257    0.3526 H   0  0  0  0  0  0  0  0  0  0  0  0
    5.2084   -3.7952   -2.1908 H   0  0  0  0  0  0  0  0  0  0  0  0
  1  2  1  0
  2 16  1  0
  2  3  1  0
  2 17  1  6
  3 15  1  0
  3  4  2  0
  4  9  1  0
  4  5  1  0
  5  6  2  0
  5 18  1  0
  6  7  1  0
  6 19  1  0
  8  7  1  1
  7 20  1  0
  7 21  1  0
  8 12  1  0
  8 16  1  0
  8  9  1  0
  9 10  1  0
  9 22  1  1
 10 11  1  0
 10 23  1  0
 10 24  1  0
 11 12  1  0
 11 16  1  0
 11 25  1  6
 12 13  1  0
 12 26  1  1
 13 14  1  0
 13 27  1  0
 13 28  1  0
 14 15  1  0
 14 29  1  0
 14 30  1  0
 15 31  1  0
 15 32  1  0
 16 33  1  6
M  END
>  <i_m_ct_stereo_status>  (95) 
1

>  <s_m_source_file>  (95) 
/var/tmp/pbs.5076255.sched01/tmpgqtxr8g4/0xtbcsf6k.sdf

>  <i_m_source_file_index>  (95) 
38

>  <i_lp_mmshare_version>  (95) 
48012

>  <i_f3d_flags>  (95) 
0

>  <s_epik_input>  (95) 
W0NIMl0xW0NIXT1bQ0hdQyhbQ0BASF0yQzEzNCk9QzVbQ0BIXShGKVtDSF00W0NASF0oW0NIMl0yKVtDQEhdM1tDSDJdW0NIMl1bQ0gyXTU=

>  <s_epik_cmdline>  (95) 
J2VwaWtfcHl0aG9uJywgJy1waHQnLCAnMi4wJywgJy1waCcsICc3LjAnLCAnLXRuJywgJzgnLCAnLW1hJywgJzIwMCcsICctaW1hZScsICc8aW5maWxlLm1hZT4nLCAnLW9tYWUnLCAnPG91dGZpbGUubWFlPic=

>  <r_lp_tautomer_probability>  (95) 
1

>  <r_epik_Ionization_Penalty>  (95) 
0

>  <r_epik_Ionization_Penalty_Charging>  (95) 
0

>  <r_epik_Ionization_Penalty_Neutral>  (95) 
0

>  <r_epik_State_Penalty>  (95) 
-0

>  <r_epik_Charging_Adjusted_Penalty>  (95) 
0

>  <i_epik_Tot_Q>  (95) 
0

>  <i_epik_Tot_abs_Q>  (95) 
0

>  <s_lp_Force_Field>  (95) 
OPLS3e

>  <r_lp_Energy>  (95) 
297.537

>  <b_lp_Chiralities_Consistent>  (95) 
1

>  <s_lp_Variant>  (95) 
24:0-1

>  <s_i_glide_gridfile>  (95) 
pfpi4k_grid

>  <i_i_glide_lignum>  (95) 
38

>  <i_i_glide_rotatable_bonds>  (95) 
0

>  <r_i_docking_score>  (95) 
-3.73371

>  <r_i_glide_ligand_efficiency>  (95) 
-0.233357

>  <r_i_glide_ligand_efficiency_sa>  (95) 
-0.588022

>  <r_i_glide_ligand_efficiency_ln>  (95) 
-0.989694

>  <r_i_glide_gscore>  (95) 
-3.73371

>  <r_i_glide_lipo>  (95) 
-0.301557

>  <r_i_glide_hbond>  (95) 
0

>  <r_i_glide_metal>  (95) 
-0

>  <r_i_glide_rewards>  (95) 
-2.09408

>  <r_i_glide_evdw>  (95) 
-21.5112

>  <r_i_glide_ecoul>  (95) 
-1.75009

>  <r_i_glide_erotb>  (95) 
0

>  <r_i_glide_esite>  (95) 
0

>  <r_i_glide_emodel>  (95) 
-28.4739

>  <r_i_glide_energy>  (95) 
-23.2613

>  <r_i_glide_einternal>  (95) 
0

>  <r_i_glide_intrahb_reward>  (95) 
-0

>  <i_i_glide_confnum>  (95) 
2

>  <i_i_glide_posenum>  (95) 
26

>  <r_i_glide_eff_state_penalty>  (95) 
0

>  <ligand_id>  (95) 
24

>  <original_smiles>  (95) 
FC1C2=C3C=CCC45C3CC(C4CCC2)C15

>  <smiles>  (95) 
[H]C1=C([H])C([H])([H])C23C4([H])C1=C1C([H])([H])C([H])([H])C([H])([H])C2([H])C([H])(C4([H])[H])C3([H])C1([H])F

$$$$
24:1:0
     RDKit          3D

 33 37  0  0  1  0  0  0  0  0999 V2000
    7.7054   -2.2586   -1.3916 F   0  0  0  0  0  0  0  0  0  0  0  0
    6.4540   -2.6968   -1.4698 C   0  0  1  0  0  0  0  0  0  0  0  0
    6.1728   -3.7237   -0.4584 C   0  0  0  0  0  0  0  0  0  0  0  0
    4.9875   -4.3778   -0.7460 C   0  0  0  0  0  0  0  0  0  0  0  0
    4.5340   -5.2697    0.2889 C   0  0  0  0  0  0  0  0  0  0  0  0
    3.8463   -4.6798    1.2746 C   0  0  0  0  0  0  0  0  0  0  0  0
    3.5916   -3.1730    1.2142 C   0  0  0  0  0  0  0  0  0  0  0  0
    4.0398   -2.4409   -0.1585 C   0  0  1  0  0  0  0  0  0  0  0  0
    3.7638   -3.4576   -1.2211 C   0  0  1  0  0  0  0  0  0  0  0  0
    3.7075   -2.4288   -2.3629 C   0  0  0  0  0  0  0  0  0  0  0  0
    4.2683   -1.2089   -1.6282 C   0  0  1  0  0  0  0  0  0  0  0  0
    3.8906   -0.9964   -0.0745 C   0  0  2  0  0  0  0  0  0  0  0  0
    4.8437   -0.6643    1.2183 C   0  0  0  0  0  0  0  0  0  0  0  0
    6.1598   -1.6376    1.5739 C   0  0  0  0  0  0  0  0  0  0  0  0
    6.5543   -3.1630    1.0107 C   0  0  0  0  0  0  0  0  0  0  0  0
    5.4168   -1.7546   -0.9478 C   0  0  2  0  0  0  0  0  0  0  0  0
    6.2841   -3.0532   -2.4863 H   0  0  0  0  0  0  0  0  0  0  0  0
    4.7640   -6.3247    0.2799 H   0  0  0  0  0  0  0  0  0  0  0  0
    3.4785   -5.2306    2.1268 H   0  0  0  0  0  0  0  0  0  0  0  0
    2.5124   -3.0543    1.3206 H   0  0  0  0  0  0  0  0  0  0  0  0
    4.0011   -2.7734    2.1364 H   0  0  0  0  0  0  0  0  0  0  0  0
    2.7978   -3.9602   -1.1127 H   0  0  0  0  0  0  0  0  0  0  0  0
    4.2682   -2.7083   -3.2539 H   0  0  0  0  0  0  0  0  0  0  0  0
    2.6754   -2.2312   -2.6677 H   0  0  0  0  0  0  0  0  0  0  0  0
    4.4673   -0.3005   -2.2035 H   0  0  0  0  0  0  0  0  0  0  0  0
    2.8538   -0.6852    0.0461 H   0  0  0  0  0  0  0  0  0  0  0  0
    5.1991    0.3657    1.1291 H   0  0  0  0  0  0  0  0  0  0  0  0
    4.2044   -0.6144    2.1011 H   0  0  0  0  0  0  0  0  0  0  0  0
    7.0225   -1.0241    1.3157 H   0  0  0  0  0  0  0  0  0  0  0  0
    6.2138   -1.6867    2.6633 H   0  0  0  0  0  0  0  0  0  0  0  0
    6.2478   -3.8915    1.7571 H   0  0  0  0  0  0  0  0  0  0  0  0
    7.6404   -3.2222    1.0548 H   0  0  0  0  0  0  0  0  0  0  0  0
    5.9824   -0.8312   -0.7421 H   0  0  0  0  0  0  0  0  0  0  0  0
  1  2  1  0
  2 16  1  0
  2  3  1  0
  2 17  1  6
  3 15  1  0
  3  4  2  0
  4  9  1  0
  4  5  1  0
  5  6  2  0
  5 18  1  0
  6  7  1  0
  6 19  1  0
  8  7  1  1
  7 20  1  0
  7 21  1  0
  8 12  1  0
  8 16  1  0
  8  9  1  0
  9 10  1  0
  9 22  1  1
 10 11  1  0
 10 23  1  0
 10 24  1  0
 11 12  1  0
 11 16  1  0
 11 25  1  6
 12 13  1  0
 12 26  1  6
 13 14  1  0
 13 27  1  0
 13 28  1  0
 14 15  1  0
 14 29  1  0
 14 30  1  0
 15 31  1  0
 15 32  1  0
 16 33  1  1
M  END
>  <i_m_ct_stereo_status>  (96) 
1

>  <s_m_source_file>  (96) 
/var/tmp/pbs.5076255.sched01/tmpgqtxr8g4/0xtbcsf6k.sdf

>  <i_m_source_file_index>  (96) 
39

>  <i_lp_mmshare_version>  (96) 
48012

>  <i_f3d_flags>  (96) 
2

>  <s_epik_input>  (96) 
W0NIMl0xW0NIXT1bQ0hdQyhbQ0BASF0yQzEzNCk9QzVbQ0BIXShGKVtDSF00W0NASF0oW0NIMl0yKVtDQEhdM1tDSDJdW0NIMl1bQ0gyXTU=

>  <s_epik_cmdline>  (96) 
J2VwaWtfcHl0aG9uJywgJy1waHQnLCAnMi4wJywgJy1waCcsICc3LjAnLCAnLXRuJywgJzgnLCAnLW1hJywgJzIwMCcsICctaW1hZScsICc8aW5maWxlLm1hZT4nLCAnLW9tYWUnLCAnPG91dGZpbGUubWFlPic=

>  <r_lp_tautomer_probability>  (96) 
1

>  <r_epik_Ionization_Penalty>  (96) 
0

>  <r_epik_Ionization_Penalty_Charging>  (96) 
0

>  <r_epik_Ionization_Penalty_Neutral>  (96) 
0

>  <r_epik_State_Penalty>  (96) 
-0

>  <r_epik_Charging_Adjusted_Penalty>  (96) 
0

>  <i_epik_Tot_Q>  (96) 
0

>  <i_epik_Tot_abs_Q>  (96) 
0

>  <s_lp_Force_Field>  (96) 
OPLS3e

>  <r_lp_Energy>  (96) 
296.44

>  <b_lp_Chiralities_Consistent>  (96) 
0

>  <s_lp_Variant>  (96) 
24:0-2

>  <s_i_glide_gridfile>  (96) 
pfpi4k_grid

>  <i_i_glide_lignum>  (96) 
39

>  <i_i_glide_rotatable_bonds>  (96) 
0

>  <r_i_docking_score>  (96) 
-3.7626

>  <r_i_glide_ligand_efficiency>  (96) 
-0.235162

>  <r_i_glide_ligand_efficiency_sa>  (96) 
-0.592572

>  <r_i_glide_ligand_efficiency_ln>  (96) 
-0.997351

>  <r_i_glide_gscore>  (96) 
-3.7626

>  <r_i_glide_lipo>  (96) 
-0.533715

>  <r_i_glide_hbond>  (96) 
0

>  <r_i_glide_metal>  (96) 
-0

>  <r_i_glide_rewards>  (96) 
-1.93436

>  <r_i_glide_evdw>  (96) 
-20.4716

>  <r_i_glide_ecoul>  (96) 
-1.13962

>  <r_i_glide_erotb>  (96) 
0

>  <r_i_glide_esite>  (96) 
-0.1

>  <r_i_glide_emodel>  (96) 
-26.9822

>  <r_i_glide_energy>  (96) 
-21.6112

>  <r_i_glide_einternal>  (96) 
0

>  <r_i_glide_intrahb_reward>  (96) 
-0

>  <i_i_glide_confnum>  (96) 
1

>  <i_i_glide_posenum>  (96) 
2

>  <r_i_glide_eff_state_penalty>  (96) 
0

>  <ligand_id>  (96) 
24

>  <original_smiles>  (96) 
FC1C2=C3C=CCC45C3CC(C4CCC2)C15

>  <smiles>  (96) 
[H]C1=C([H])C([H])([H])C23C4([H])C1=C1C([H])([H])C([H])([H])C([H])([H])C2([H])C([H])(C4([H])[H])C3([H])C1([H])F

$$$$
24:1:1
     RDKit          3D

 33 37  0  0  1  0  0  0  0  0999 V2000
    6.9122   -4.4660    1.6833 F   0  0  0  0  0  0  0  0  0  0  0  0
    6.5965   -3.4291    0.9022 C   0  0  1  0  0  0  0  0  0  0  0  0
    6.1812   -3.8467   -0.4458 C   0  0  0  0  0  0  0  0  0  0  0  0
    6.1281   -2.7568   -1.3010 C   0  0  0  0  0  0  0  0  0  0  0  0
    5.5457   -3.0388   -2.5911 C   0  0  0  0  0  0  0  0  0  0  0  0
    4.2074   -2.9966   -2.6237 C   0  0  0  0  0  0  0  0  0  0  0  0
    3.4379   -2.6496   -1.3487 C   0  0  0  0  0  0  0  0  0  0  0  0
    4.3385   -2.1825   -0.0831 C   0  0  1  0  0  0  0  0  0  0  0  0
    5.4629   -1.4254   -0.7113 C   0  0  1  0  0  0  0  0  0  0  0  0
    5.8176   -0.6590    0.5755 C   0  0  0  0  0  0  0  0  0  0  0  0
    4.9815   -1.4437    1.5832 C   0  0  1  0  0  0  0  0  0  0  0  0
    3.5377   -2.0004    1.1242 C   0  0  2  0  0  0  0  0  0  0  0  0
    2.8837   -3.5005    1.2658 C   0  0  0  0  0  0  0  0  0  0  0  0
    3.6968   -4.8468    0.6918 C   0  0  0  0  0  0  0  0  0  0  0  0
    5.0123   -4.9535   -0.3354 C   0  0  0  0  0  0  0  0  0  0  0  0
    5.2738   -2.8083    1.2235 C   0  0  2  0  0  0  0  0  0  0  0  0
    7.4412   -2.7413    0.8839 H   0  0  0  0  0  0  0  0  0  0  0  0
    6.1472   -3.3003   -3.4504 H   0  0  0  0  0  0  0  0  0  0  0  0
    3.6434   -3.2197   -3.5178 H   0  0  0  0  0  0  0  0  0  0  0  0
    2.7840   -1.8205   -1.6230 H   0  0  0  0  0  0  0  0  0  0  0  0
    2.7597   -3.4819   -1.1872 H   0  0  0  0  0  0  0  0  0  0  0  0
    5.1457   -0.7248   -1.4897 H   0  0  0  0  0  0  0  0  0  0  0  0
    6.8810   -0.6510    0.8133 H   0  0  0  0  0  0  0  0  0  0  0  0
    5.4694    0.3737    0.5358 H   0  0  0  0  0  0  0  0  0  0  0  0
    5.0981   -1.2179    2.6456 H   0  0  0  0  0  0  0  0  0  0  0  0
    2.8108   -1.1922    1.0255 H   0  0  0  0  0  0  0  0  0  0  0  0
    2.6365   -3.6766    2.3157 H   0  0  0  0  0  0  0  0  0  0  0  0
    1.9017   -3.4730    0.7950 H   0  0  0  0  0  0  0  0  0  0  0  0
    4.0173   -5.3685    1.5948 H   0  0  0  0  0  0  0  0  0  0  0  0
    2.9353   -5.5168    0.2846 H   0  0  0  0  0  0  0  0  0  0  0  0
    4.6399   -5.1711   -1.3341 H   0  0  0  0  0  0  0  0  0  0  0  0
    5.5231   -5.8779   -0.0688 H   0  0  0  0  0  0  0  0  0  0  0  0
    4.9724   -3.3316    2.1458 H   0  0  0  0  0  0  0  0  0  0  0  0
  1  2  1  0
  2 16  1  0
  2  3  1  0
  2 17  1  6
  3 15  1  0
  3  4  2  0
  4  9  1  0
  4  5  1  0
  5  6  2  0
  5 18  1  0
  6  7  1  0
  6 19  1  0
  8  7  1  6
  7 20  1  0
  7 21  1  0
  8 12  1  0
  8 16  1  0
  8  9  1  0
  9 10  1  0
  9 22  1  6
 10 11  1  0
 10 23  1  0
 10 24  1  0
 11 12  1  0
 11 16  1  0
 11 25  1  1
 12 13  1  0
 12 26  1  6
 13 14  1  0
 13 27  1  0
 13 28  1  0
 14 15  1  0
 14 29  1  0
 14 30  1  0
 15 31  1  0
 15 32  1  0
 16 33  1  1
M  END
>  <i_m_ct_stereo_status>  (97) 
1

>  <s_m_source_file>  (97) 
/var/tmp/pbs.5076255.sched01/tmpgqtxr8g4/0xtbcsf6k.sdf

>  <i_m_source_file_index>  (97) 
39

>  <i_lp_mmshare_version>  (97) 
48012

>  <i_f3d_flags>  (97) 
2

>  <s_epik_input>  (97) 
W0NIMl0xW0NIXT1bQ0hdQyhbQ0BASF0yQzEzNCk9QzVbQ0BIXShGKVtDSF00W0NASF0oW0NIMl0yKVtDQEhdM1tDSDJdW0NIMl1bQ0gyXTU=

>  <s_epik_cmdline>  (97) 
J2VwaWtfcHl0aG9uJywgJy1waHQnLCAnMi4wJywgJy1waCcsICc3LjAnLCAnLXRuJywgJzgnLCAnLW1hJywgJzIwMCcsICctaW1hZScsICc8aW5maWxlLm1hZT4nLCAnLW9tYWUnLCAnPG91dGZpbGUubWFlPic=

>  <r_lp_tautomer_probability>  (97) 
1

>  <r_epik_Ionization_Penalty>  (97) 
0

>  <r_epik_Ionization_Penalty_Charging>  (97) 
0

>  <r_epik_Ionization_Penalty_Neutral>  (97) 
0

>  <r_epik_State_Penalty>  (97) 
-0

>  <r_epik_Charging_Adjusted_Penalty>  (97) 
0

>  <i_epik_Tot_Q>  (97) 
0

>  <i_epik_Tot_abs_Q>  (97) 
0

>  <s_lp_Force_Field>  (97) 
OPLS3e

>  <r_lp_Energy>  (97) 
296.44

>  <b_lp_Chiralities_Consistent>  (97) 
0

>  <s_lp_Variant>  (97) 
24:0-2

>  <s_i_glide_gridfile>  (97) 
pfpi4k_grid

>  <i_i_glide_lignum>  (97) 
39

>  <i_i_glide_rotatable_bonds>  (97) 
0

>  <r_i_docking_score>  (97) 
-3.74292

>  <r_i_glide_ligand_efficiency>  (97) 
-0.233932

>  <r_i_glide_ligand_efficiency_sa>  (97) 
-0.589472

>  <r_i_glide_ligand_efficiency_ln>  (97) 
-0.992135

>  <r_i_glide_gscore>  (97) 
-3.74292

>  <r_i_glide_lipo>  (97) 
-0.586449

>  <r_i_glide_hbond>  (97) 
0

>  <r_i_glide_metal>  (97) 
-0

>  <r_i_glide_rewards>  (97) 
-2.04107

>  <r_i_glide_evdw>  (97) 
-20.2935

>  <r_i_glide_ecoul>  (97) 
-0.671465

>  <r_i_glide_erotb>  (97) 
0

>  <r_i_glide_esite>  (97) 
0

>  <r_i_glide_emodel>  (97) 
-26.3192

>  <r_i_glide_energy>  (97) 
-20.965

>  <r_i_glide_einternal>  (97) 
0

>  <r_i_glide_intrahb_reward>  (97) 
-0

>  <i_i_glide_confnum>  (97) 
1

>  <i_i_glide_posenum>  (97) 
12

>  <r_i_glide_eff_state_penalty>  (97) 
0

>  <ligand_id>  (97) 
24

>  <original_smiles>  (97) 
FC1C2=C3C=CCC45C3CC(C4CCC2)C15

>  <smiles>  (97) 
[H]C1=C([H])C([H])([H])C23C4([H])C1=C1C([H])([H])C([H])([H])C([H])([H])C2([H])C([H])(C4([H])[H])C3([H])C1([H])F

$$$$
24:1:2
     RDKit          3D

 33 37  0  0  1  0  0  0  0  0999 V2000
    4.8734   -5.0361    1.3412 F   0  0  0  0  0  0  0  0  0  0  0  0
    5.4007   -4.4245    0.2801 C   0  0  1  0  0  0  0  0  0  0  0  0
    4.4023   -4.1032   -0.7516 C   0  0  0  0  0  0  0  0  0  0  0  0
    5.0224   -3.7336   -1.9323 C   0  0  0  0  0  0  0  0  0  0  0  0
    4.1372   -3.2104   -2.9478 C   0  0  0  0  0  0  0  0  0  0  0  0
    3.8392   -1.9116   -2.8170 C   0  0  0  0  0  0  0  0  0  0  0  0
    4.4609   -1.1153   -1.6681 C   0  0  0  0  0  0  0  0  0  0  0  0
    5.5876   -1.8884   -0.7937 C   0  0  1  0  0  0  0  0  0  0  0  0
    6.2852   -2.7625   -1.7849 C   0  0  1  0  0  0  0  0  0  0  0  0
    7.5606   -2.9169   -0.9366 C   0  0  0  0  0  0  0  0  0  0  0  0
    7.0417   -2.3499    0.3841 C   0  0  1  0  0  0  0  0  0  0  0  0
    6.0207   -1.1057    0.3597 C   0  0  2  0  0  0  0  0  0  0  0  0
    4.5843   -0.8834    1.1255 C   0  0  0  0  0  0  0  0  0  0  0  0
    3.3597   -2.0200    0.9872 C   0  0  0  0  0  0  0  0  0  0  0  0
    3.1768   -3.2832   -0.0958 C   0  0  0  0  0  0  0  0  0  0  0  0
    5.7587   -2.9919    0.5164 C   0  0  2  0  0  0  0  0  0  0  0  0
    6.2047   -5.0484   -0.1082 H   0  0  0  0  0  0  0  0  0  0  0  0
    3.7072   -3.8396   -3.7128 H   0  0  0  0  0  0  0  0  0  0  0  0
    3.1473   -1.4089   -3.4773 H   0  0  0  0  0  0  0  0  0  0  0  0
    4.9306   -0.2522   -2.1415 H   0  0  0  0  0  0  0  0  0  0  0  0
    3.6169   -0.7012   -1.1213 H   0  0  0  0  0  0  0  0  0  0  0  0
    6.5172   -2.2599   -2.7206 H   0  0  0  0  0  0  0  0  0  0  0  0
    7.9315   -3.9346   -0.8721 H   0  0  0  0  0  0  0  0  0  0  0  0
    8.3747   -2.3006   -1.3262 H   0  0  0  0  0  0  0  0  0  0  0  0
    7.6723   -2.4426    1.2629 H   0  0  0  0  0  0  0  0  0  0  0  0
    6.5278   -0.1840    0.0848 H   0  0  0  0  0  0  0  0  0  0  0  0
    4.7771   -0.7278    2.1894 H   0  0  0  0  0  0  0  0  0  0  0  0
    4.1858    0.0838    0.8187 H   0  0  0  0  0  0  0  0  0  0  0  0
    3.3296   -2.4977    1.9680 H   0  0  0  0  0  0  0  0  0  0  0  0
    2.4228   -1.4575    0.9608 H   0  0  0  0  0  0  0  0  0  0  0  0
    2.5004   -2.9594   -0.8848 H   0  0  0  0  0  0  0  0  0  0  0  0
    2.5901   -4.0379    0.4256 H   0  0  0  0  0  0  0  0  0  0  0  0
    5.5871   -2.8698    1.5983 H   0  0  0  0  0  0  0  0  0  0  0  0
  1  2  1  0
  2 16  1  0
  2  3  1  0
  2 17  1  6
  3 15  1  0
  3  4  2  0
  4  9  1  0
  4  5  1  0
  5  6  2  0
  5 18  1  0
  6  7  1  0
  6 19  1  0
  8  7  1  6
  7 20  1  0
  7 21  1  0
  8 12  1  0
  8 16  1  0
  8  9  1  0
  9 10  1  0
  9 22  1  6
 10 11  1  0
 10 23  1  0
 10 24  1  0
 11 12  1  0
 11 16  1  0
 11 25  1  1
 12 13  1  0
 12 26  1  6
 13 14  1  0
 13 27  1  0
 13 28  1  0
 14 15  1  0
 14 29  1  0
 14 30  1  0
 15 31  1  0
 15 32  1  0
 16 33  1  1
M  END
>  <i_m_ct_stereo_status>  (98) 
1

>  <s_m_source_file>  (98) 
/var/tmp/pbs.5076255.sched01/tmpgqtxr8g4/0xtbcsf6k.sdf

>  <i_m_source_file_index>  (98) 
39

>  <i_lp_mmshare_version>  (98) 
48012

>  <i_f3d_flags>  (98) 
2

>  <s_epik_input>  (98) 
W0NIMl0xW0NIXT1bQ0hdQyhbQ0BASF0yQzEzNCk9QzVbQ0BIXShGKVtDSF00W0NASF0oW0NIMl0yKVtDQEhdM1tDSDJdW0NIMl1bQ0gyXTU=

>  <s_epik_cmdline>  (98) 
J2VwaWtfcHl0aG9uJywgJy1waHQnLCAnMi4wJywgJy1waCcsICc3LjAnLCAnLXRuJywgJzgnLCAnLW1hJywgJzIwMCcsICctaW1hZScsICc8aW5maWxlLm1hZT4nLCAnLW9tYWUnLCAnPG91dGZpbGUubWFlPic=

>  <r_lp_tautomer_probability>  (98) 
1

>  <r_epik_Ionization_Penalty>  (98) 
0

>  <r_epik_Ionization_Penalty_Charging>  (98) 
0

>  <r_epik_Ionization_Penalty_Neutral>  (98) 
0

>  <r_epik_State_Penalty>  (98) 
-0

>  <r_epik_Charging_Adjusted_Penalty>  (98) 
0

>  <i_epik_Tot_Q>  (98) 
0

>  <i_epik_Tot_abs_Q>  (98) 
0

>  <s_lp_Force_Field>  (98) 
OPLS3e

>  <r_lp_Energy>  (98) 
296.44

>  <b_lp_Chiralities_Consistent>  (98) 
0

>  <s_lp_Variant>  (98) 
24:0-2

>  <s_i_glide_gridfile>  (98) 
pfpi4k_grid

>  <i_i_glide_lignum>  (98) 
39

>  <i_i_glide_rotatable_bonds>  (98) 
0

>  <r_i_docking_score>  (98) 
-3.65501

>  <r_i_glide_ligand_efficiency>  (98) 
-0.228438

>  <r_i_glide_ligand_efficiency_sa>  (98) 
-0.575629

>  <r_i_glide_ligand_efficiency_ln>  (98) 
-0.968835

>  <r_i_glide_gscore>  (98) 
-3.65501

>  <r_i_glide_lipo>  (98) 
-0.466803

>  <r_i_glide_hbond>  (98) 
0

>  <r_i_glide_metal>  (98) 
-0

>  <r_i_glide_rewards>  (98) 
-1.98804

>  <r_i_glide_evdw>  (98) 
-23.1051

>  <r_i_glide_ecoul>  (98) 
-0.299454

>  <r_i_glide_erotb>  (98) 
0

>  <r_i_glide_esite>  (98) 
0

>  <r_i_glide_emodel>  (98) 
-28.6336

>  <r_i_glide_energy>  (98) 
-23.4045

>  <r_i_glide_einternal>  (98) 
0

>  <r_i_glide_intrahb_reward>  (98) 
-0

>  <i_i_glide_confnum>  (98) 
1

>  <i_i_glide_posenum>  (98) 
1

>  <r_i_glide_eff_state_penalty>  (98) 
0

>  <ligand_id>  (98) 
24

>  <original_smiles>  (98) 
FC1C2=C3C=CCC45C3CC(C4CCC2)C15

>  <smiles>  (98) 
[H]C1=C([H])C([H])([H])C23C4([H])C1=C1C([H])([H])C([H])([H])C([H])([H])C2([H])C([H])(C4([H])[H])C3([H])C1([H])F

$$$$
25:0:0
     RDKit          3D

 68 73  0  0  1  0  0  0  0  0999 V2000
    4.6414   -1.6926   -2.0374 C   0  0  0  0  0  0  0  0  0  0  0  0
    4.6167   -2.8232   -1.0191 C   0  0  0  0  0  0  0  0  0  0  0  0
    3.4019   -3.4385   -0.6591 C   0  0  0  0  0  0  0  0  0  0  0  0
    2.2094   -3.0576   -1.2083 O   0  0  0  0  0  0  0  0  0  0  0  0
    3.3876   -4.4750    0.2880 C   0  0  0  0  0  0  0  0  0  0  0  0
    4.5726   -4.9000    0.9332 C   0  0  0  0  0  0  0  0  0  0  0  0
    5.8173   -4.3324    0.5203 C   0  0  0  0  0  0  0  0  0  0  0  0
    5.8253   -3.2813   -0.4413 C   0  0  0  0  0  0  0  0  0  0  0  0
    6.9985   -2.6801   -0.8409 O   0  0  0  0  0  0  0  0  0  0  0  0
    7.0993   -4.8839    1.0759 C   0  0  0  0  0  0  0  0  0  0  0  0
    8.2065   -4.6304    0.5980 O   0  0  0  0  0  0  0  0  0  0  0  0
    6.9776   -5.7293    2.1397 O   0  0  0  0  0  0  0  0  0  0  0  0
    5.8222   -5.7373    2.8794 C   0  0  0  0  0  0  0  0  0  0  0  0
    5.9627   -5.4376    4.1931 C   0  0  0  0  0  0  0  0  0  0  0  0
    4.9488   -5.1332    5.2781 C   0  0  0  0  0  0  0  0  0  0  0  0
    3.7307   -4.2945    4.8552 C   0  0  1  0  0  0  0  0  0  0  0  0
    3.1082   -3.7962    6.1766 C   0  0  0  0  0  0  0  0  0  0  0  0
    4.0133   -3.1148    3.8564 C   0  0  2  0  0  0  0  0  0  0  0  0
    3.6253   -1.6239    4.0223 C   0  0  0  0  0  0  0  0  0  0  0  0
    2.4072   -1.3428    3.0953 C   0  0  1  0  0  0  0  0  0  0  0  0
    2.7779   -0.6389    1.7833 C   0  0  0  0  0  0  0  0  0  0  0  0
    1.8680   -2.7283    2.8571 C   0  0  0  0  0  0  0  0  0  0  0  0
    2.7766   -3.6229    3.2347 C   0  0  0  0  0  0  0  0  0  0  0  0
    2.7660   -5.0064    3.8258 C   0  0  2  0  0  0  0  0  0  0  0  0
    1.4445   -5.2481    4.3507 O   0  0  0  0  0  0  0  0  0  0  0  0
    1.0610   -6.5294    4.8791 C   0  0  0  0  0  0  0  0  0  0  0  0
    1.5742   -6.6936    6.3233 C   0  0  0  0  0  0  0  0  0  0  0  0
   -0.4830   -6.4946    4.9362 C   0  0  0  0  0  0  0  0  0  0  0  0
    1.5872   -7.7012    4.0131 C   0  0  1  0  0  0  0  0  0  0  0  0
    0.7686   -7.9448    2.8811 O   0  0  0  0  0  0  0  0  0  0  0  0
    3.0366   -7.5061    3.5522 C   0  0  0  0  0  0  0  0  0  0  0  0
    3.2101   -6.1387    2.8422 C   0  0  2  0  0  0  0  0  0  0  0  0
    4.5746   -5.9934    2.0237 C   0  0  1  0  0  0  0  0  0  0  0  0
    4.8203   -7.3161    1.2350 C   0  0  0  0  0  0  0  0  0  0  0  0
    3.6456   -1.3579   -2.3242 H   0  0  0  0  0  0  0  0  0  0  0  0
    5.1515   -2.0146   -2.9451 H   0  0  0  0  0  0  0  0  0  0  0  0
    5.1669   -0.8282   -1.6318 H   0  0  0  0  0  0  0  0  0  0  0  0
    1.9700   -2.1306   -1.1189 H   0  0  0  0  0  0  0  0  0  0  0  0
    2.4306   -4.9096    0.5226 H   0  0  0  0  0  0  0  0  0  0  0  0
    7.7537   -3.1036   -0.4550 H   0  0  0  0  0  0  0  0  0  0  0  0
    6.9775   -5.3019    4.5354 H   0  0  0  0  0  0  0  0  0  0  0  0
    4.6644   -6.0663    5.7586 H   0  0  0  0  0  0  0  0  0  0  0  0
    5.5102   -4.5862    6.0390 H   0  0  0  0  0  0  0  0  0  0  0  0
    2.1088   -3.3857    6.0202 H   0  0  0  0  0  0  0  0  0  0  0  0
    3.7118   -3.0064    6.6258 H   0  0  0  0  0  0  0  0  0  0  0  0
    3.0333   -4.5733    6.9349 H   0  0  0  0  0  0  0  0  0  0  0  0
    4.9096   -3.2466    3.2553 H   0  0  0  0  0  0  0  0  0  0  0  0
    3.3290   -1.4003    5.0475 H   0  0  0  0  0  0  0  0  0  0  0  0
    4.4555   -0.9551    3.8073 H   0  0  0  0  0  0  0  0  0  0  0  0
    1.6598   -0.7521    3.6247 H   0  0  0  0  0  0  0  0  0  0  0  0
    1.9078   -0.5430    1.1332 H   0  0  0  0  0  0  0  0  0  0  0  0
    3.5441   -1.1931    1.2398 H   0  0  0  0  0  0  0  0  0  0  0  0
    3.1576    0.3674    1.9645 H   0  0  0  0  0  0  0  0  0  0  0  0
    0.8260   -2.9195    2.6591 H   0  0  0  0  0  0  0  0  0  0  0  0
    1.2332   -7.6335    6.7629 H   0  0  0  0  0  0  0  0  0  0  0  0
    1.2201   -5.8896    6.9700 H   0  0  0  0  0  0  0  0  0  0  0  0
    2.6602   -6.7127    6.3607 H   0  0  0  0  0  0  0  0  0  0  0  0
   -0.8969   -7.4433    5.2795 H   0  0  0  0  0  0  0  0  0  0  0  0
   -0.9141   -6.2926    3.9567 H   0  0  0  0  0  0  0  0  0  0  0  0
   -0.8423   -5.7157    5.6080 H   0  0  0  0  0  0  0  0  0  0  0  0
    1.5320   -8.6177    4.6047 H   0  0  0  0  0  0  0  0  0  0  0  0
    1.0284   -8.7720    2.5033 H   0  0  0  0  0  0  0  0  0  0  0  0
    3.7033   -7.5679    4.4081 H   0  0  0  0  0  0  0  0  0  0  0  0
    3.2817   -8.3595    2.9243 H   0  0  0  0  0  0  0  0  0  0  0  0
    2.4375   -6.1959    2.0841 H   0  0  0  0  0  0  0  0  0  0  0  0
    5.6241   -7.2173    0.5050 H   0  0  0  0  0  0  0  0  0  0  0  0
    3.9384   -7.6308    0.6755 H   0  0  0  0  0  0  0  0  0  0  0  0
    5.1234   -8.1410    1.8841 H   0  0  0  0  0  0  0  0  0  0  0  0
  1  2  1  0
  1 35  1  0
  1 36  1  0
  1 37  1  0
  2  8  2  0
  2  3  1  0
  3  4  1  0
  3  5  2  0
  4 38  1  0
  5  6  1  0
  5 39  1  0
  6 33  1  0
  6  7  2  0
  7  8  1  0
  7 10  1  0
  8  9  1  0
  9 40  1  0
 10 11  2  0
 10 12  1  0
 12 13  1  0
 13 33  1  0
 13 14  2  0
 14 15  1  0
 14 41  1  0
 15 16  1  0
 15 42  1  0
 15 43  1  0
 16 24  1  0
 16 17  1  1
 16 18  1  0
 17 44  1  0
 17 45  1  0
 17 46  1  0
 18 23  1  0
 18 19  1  0
 18 47  1  6
 19 20  1  0
 19 48  1  0
 19 49  1  0
 20 21  1  0
 20 22  1  0
 20 50  1  1
 21 51  1  0
 21 52  1  0
 21 53  1  0
 22 23  2  0
 22 54  1  0
 23 24  1  0
 24 32  1  0
 24 25  1  1
 25 26  1  0
 26 27  1  0
 26 28  1  0
 26 29  1  0
 27 55  1  0
 27 56  1  0
 27 57  1  0
 28 58  1  0
 28 59  1  0
 28 60  1  0
 29 30  1  0
 29 31  1  0
 29 61  1  1
 30 62  1  0
 31 32  1  0
 31 63  1  0
 31 64  1  0
 32 33  1  0
 32 65  1  6
 33 34  1  6
 34 66  1  0
 34 67  1  0
 34 68  1  0
M  END
>  <i_m_ct_stereo_status>  (99) 
1

>  <s_m_source_file>  (99) 
/var/tmp/pbs.5076255.sched01/tmpgqtxr8g4/0xtbcsf6k.sdf

>  <i_m_source_file_index>  (99) 
40

>  <i_lp_mmshare_version>  (99) 
48012

>  <i_f3d_flags>  (99) 
0

>  <s_epik_input>  (99) 
W09IXWMoW2NIXTEpYyhbQ0gzXSljKFtPSF0pYyhDKD1PKU8yKWMxW0NAXShbQ0gzXSkoW0NASF0zW0NIMl1bQ0BIXShbT0hdKUMoTzQpKFtDSDNdKVtDSDNdKUMyPVtDSF1bQ0gyXVtDQEBdKFtDQEBdMzQ1KShbQ0gzXSlbQ0BIXTZDNT1bQ0hdW0NAQEhdKFtDSDJdNilbQ0gzXQ==

>  <s_epik_cmdline>  (99) 
J2VwaWtfcHl0aG9uJywgJy1waHQnLCAnMi4wJywgJy1waCcsICc3LjAnLCAnLXRuJywgJzgnLCAnLW1hJywgJzIwMCcsICctaW1hZScsICc8aW5maWxlLm1hZT4nLCAnLW9tYWUnLCAnPG91dGZpbGUubWFlPic=

>  <r_epik_Ionization_Penalty>  (99) 
0.146147

>  <r_epik_Ionization_Penalty_Charging>  (99) 
0

>  <r_epik_Ionization_Penalty_Neutral>  (99) 
0.146147

>  <r_epik_State_Penalty>  (99) 
0.122462

>  <r_epik_Charging_Adjusted_Penalty>  (99) 
0.122462

>  <i_epik_Tot_Q>  (99) 
0

>  <i_epik_Tot_abs_Q>  (99) 
0

>  <s_lp_Force_Field>  (99) 
OPLS3e

>  <r_lp_Energy>  (99) 
68.2259

>  <b_lp_Chiralities_Consistent>  (99) 
1

>  <s_lp_Variant>  (99) 
25:0-1

>  <s_i_glide_gridfile>  (99) 
pfpi4k_grid

>  <i_i_glide_lignum>  (99) 
40

>  <i_i_glide_rotatable_bonds>  (99) 
3

>  <r_i_docking_score>  (99) 
-3.37344

>  <r_i_glide_ligand_efficiency>  (99) 
-0.0992187

>  <r_i_glide_ligand_efficiency_sa>  (99) 
-0.32143

>  <r_i_glide_ligand_efficiency_ln>  (99) 
-0.745287

>  <r_i_glide_gscore>  (99) 
-3.37344

>  <r_i_glide_lipo>  (99) 
-0.367832

>  <r_i_glide_hbond>  (99) 
-0.146864

>  <r_i_glide_metal>  (99) 
-0

>  <r_i_glide_rewards>  (99) 
-0.880987

>  <r_i_glide_evdw>  (99) 
-24.4112

>  <r_i_glide_ecoul>  (99) 
-5.04796

>  <r_i_glide_erotb>  (99) 
0

>  <r_i_glide_esite>  (99) 
0

>  <r_i_glide_emodel>  (99) 
-39.5883

>  <r_i_glide_energy>  (99) 
-29.4591

>  <r_i_glide_einternal>  (99) 
2.6058

>  <r_i_glide_intrahb_reward>  (99) 
-0.5

>  <i_i_glide_confnum>  (99) 
2

>  <i_i_glide_posenum>  (99) 
20

>  <r_i_glide_eff_state_penalty>  (99) 
0

>  <ligand_id>  (99) 
25

>  <original_smiles>  (99) 
Cc1c(O)cc2c(c1O)C(=O)OC1=CCC3(C)C4CC(C)C=C4C34OC(C)(C)C(O)CC4C12C

>  <smiles>  (99) 
[H]Oc1c([H])c2c(c(O[H])c1C([H])([H])[H])C(=O)OC1=C([H])C([H])([H])C3(C([H])([H])[H])C4([H])C(=C([H])C([H])(C([H])([H])[H])C4([H])[H])C34OC(C([H])([H])[H])(C([H])([H])[H])C([H])(O[H])C([H])([H])C4([H])C12C([H])([H])[H]

$$$$
25:0:1
     RDKit          3D

 68 73  0  0  1  0  0  0  0  0999 V2000
    4.1553   -1.9451   -1.9942 C   0  0  0  0  0  0  0  0  0  0  0  0
    4.2591   -3.0698   -0.9735 C   0  0  0  0  0  0  0  0  0  0  0  0
    3.1087   -3.7640   -0.5384 C   0  0  0  0  0  0  0  0  0  0  0  0
    1.8622   -3.4565   -1.0055 O   0  0  0  0  0  0  0  0  0  0  0  0
    3.2207   -4.7859    0.4158 C   0  0  0  0  0  0  0  0  0  0  0  0
    4.4715   -5.1273    0.9907 C   0  0  0  0  0  0  0  0  0  0  0  0
    5.6452   -4.4826    0.4999 C   0  0  0  0  0  0  0  0  0  0  0  0
    5.5301   -3.4444   -0.4656 C   0  0  0  0  0  0  0  0  0  0  0  0
    6.6351   -2.7747   -0.9338 O   0  0  0  0  0  0  0  0  0  0  0  0
    6.9938   -4.9439    0.9849 C   0  0  0  0  0  0  0  0  0  0  0  0
    8.0568   -4.6188    0.4514 O   0  0  0  0  0  0  0  0  0  0  0  0
    6.9901   -5.7891    2.0569 O   0  0  0  0  0  0  0  0  0  0  0  0
    5.8814   -5.8621    2.8636 C   0  0  0  0  0  0  0  0  0  0  0  0
    6.0832   -5.5421    4.1611 C   0  0  0  0  0  0  0  0  0  0  0  0
    5.1180   -5.3006    5.3061 C   0  0  0  0  0  0  0  0  0  0  0  0
    3.8253   -4.5464    4.9542 C   0  0  1  0  0  0  0  0  0  0  0  0
    3.2505   -4.0792    6.3084 C   0  0  0  0  0  0  0  0  0  0  0  0
    3.9716   -3.3584    3.9374 C   0  0  2  0  0  0  0  0  0  0  0  0
    3.4946   -1.8940    4.1181 C   0  0  0  0  0  0  0  0  0  0  0  0
    2.2105   -1.7012    3.2608 C   0  0  1  0  0  0  0  0  0  0  0  0
    2.4581   -0.9872    1.9258 C   0  0  0  0  0  0  0  0  0  0  0  0
    1.7519   -3.1212    3.0581 C   0  0  0  0  0  0  0  0  0  0  0  0
    2.7388   -3.9501    3.3875 C   0  0  0  0  0  0  0  0  0  0  0  0
    2.8476   -5.3258    3.9860 C   0  0  2  0  0  0  0  0  0  0  0  0
    1.5795   -5.6499    4.5907 O   0  0  0  0  0  0  0  0  0  0  0  0
    1.3112   -6.9497    5.1444 C   0  0  0  0  0  0  0  0  0  0  0  0
    1.9193   -7.0668    6.5552 C   0  0  0  0  0  0  0  0  0  0  0  0
   -0.2261   -7.0137    5.2887 C   0  0  0  0  0  0  0  0  0  0  0  0
    1.8609   -8.0913    4.2516 C   0  0  1  0  0  0  0  0  0  0  0  0
    0.9975   -8.3982    3.1714 O   0  0  0  0  0  0  0  0  0  0  0  0
    3.2649   -7.8022    3.7071 C   0  0  0  0  0  0  0  0  0  0  0  0
    3.3073   -6.4343    2.9817 C   0  0  2  0  0  0  0  0  0  0  0  0
    4.6045   -6.2083    2.0811 C   0  0  1  0  0  0  0  0  0  0  0  0
    4.8933   -7.5174    1.2890 C   0  0  0  0  0  0  0  0  0  0  0  0
    3.1270   -1.6740   -2.2263 H   0  0  0  0  0  0  0  0  0  0  0  0
    4.6379   -2.2365   -2.9266 H   0  0  0  0  0  0  0  0  0  0  0  0
    4.6484   -1.0480   -1.6200 H   0  0  0  0  0  0  0  0  0  0  0  0
    1.7167   -2.5198   -1.1235 H   0  0  0  0  0  0  0  0  0  0  0  0
    2.3078   -5.2775    0.7105 H   0  0  0  0  0  0  0  0  0  0  0  0
    7.4386   -3.1427   -0.5879 H   0  0  0  0  0  0  0  0  0  0  0  0
    7.1049   -5.3481    4.4456 H   0  0  0  0  0  0  0  0  0  0  0  0
    4.9246   -6.2479    5.8048 H   0  0  0  0  0  0  0  0  0  0  0  0
    5.6883   -4.7127    6.0290 H   0  0  0  0  0  0  0  0  0  0  0  0
    2.2197   -3.7356    6.2103 H   0  0  0  0  0  0  0  0  0  0  0  0
    3.8277   -3.2482    6.7166 H   0  0  0  0  0  0  0  0  0  0  0  0
    3.2723   -4.8540    7.0721 H   0  0  0  0  0  0  0  0  0  0  0  0
    4.8365   -3.4340    3.2842 H   0  0  0  0  0  0  0  0  0  0  0  0
    3.2461   -1.6848    5.1581 H   0  0  0  0  0  0  0  0  0  0  0  0
    4.2672   -1.1748    3.8545 H   0  0  0  0  0  0  0  0  0  0  0  0
    1.4596   -1.1548    3.8321 H   0  0  0  0  0  0  0  0  0  0  0  0
    1.5522   -0.9580    1.3174 H   0  0  0  0  0  0  0  0  0  0  0  0
    3.2291   -1.4941    1.3464 H   0  0  0  0  0  0  0  0  0  0  0  0
    2.7802    0.0425    2.0795 H   0  0  0  0  0  0  0  0  0  0  0  0
    0.7156   -3.3869    2.9119 H   0  0  0  0  0  0  0  0  0  0  0  0
    1.6680   -8.0231    7.0190 H   0  0  0  0  0  0  0  0  0  0  0  0
    1.5542   -6.2824    7.2203 H   0  0  0  0  0  0  0  0  0  0  0  0
    3.0043   -7.0179    6.5276 H   0  0  0  0  0  0  0  0  0  0  0  0
   -0.5568   -7.9840    5.6645 H   0  0  0  0  0  0  0  0  0  0  0  0
   -0.7278   -6.8442    4.3370 H   0  0  0  0  0  0  0  0  0  0  0  0
   -0.5936   -6.2534    5.9769 H   0  0  0  0  0  0  0  0  0  0  0  0
    1.9071   -9.0065    4.8459 H   0  0  0  0  0  0  0  0  0  0  0  0
    0.2989   -8.9460    3.4954 H   0  0  0  0  0  0  0  0  0  0  0  0
    3.9830   -7.8168    4.5206 H   0  0  0  0  0  0  0  0  0  0  0  0
    3.5216   -8.6441    3.0666 H   0  0  0  0  0  0  0  0  0  0  0  0
    2.4948   -6.5496    2.2712 H   0  0  0  0  0  0  0  0  0  0  0  0
    5.6419   -7.3736    0.5099 H   0  0  0  0  0  0  0  0  0  0  0  0
    4.0033   -7.8982    0.7821 H   0  0  0  0  0  0  0  0  0  0  0  0
    5.2877   -8.3180    1.9206 H   0  0  0  0  0  0  0  0  0  0  0  0
  1  2  1  0
  1 35  1  0
  1 36  1  0
  1 37  1  0
  2  8  2  0
  2  3  1  0
  3  4  1  0
  3  5  2  0
  4 38  1  0
  5  6  1  0
  5 39  1  0
  6 33  1  0
  6  7  2  0
  7  8  1  0
  7 10  1  0
  8  9  1  0
  9 40  1  0
 10 11  2  0
 10 12  1  0
 12 13  1  0
 13 33  1  0
 13 14  2  0
 14 15  1  0
 14 41  1  0
 15 16  1  0
 15 42  1  0
 15 43  1  0
 16 24  1  0
 16 17  1  1
 16 18  1  0
 17 44  1  0
 17 45  1  0
 17 46  1  0
 18 23  1  0
 18 19  1  0
 18 47  1  6
 19 20  1  0
 19 48  1  0
 19 49  1  0
 20 21  1  0
 20 22  1  0
 20 50  1  1
 21 51  1  0
 21 52  1  0
 21 53  1  0
 22 23  2  0
 22 54  1  0
 23 24  1  0
 24 32  1  0
 24 25  1  1
 25 26  1  0
 26 27  1  0
 26 28  1  0
 26 29  1  0
 27 55  1  0
 27 56  1  0
 27 57  1  0
 28 58  1  0
 28 59  1  0
 28 60  1  0
 29 30  1  0
 29 31  1  0
 29 61  1  1
 30 62  1  0
 31 32  1  0
 31 63  1  0
 31 64  1  0
 32 33  1  0
 32 65  1  6
 33 34  1  6
 34 66  1  0
 34 67  1  0
 34 68  1  0
M  END
>  <i_m_ct_stereo_status>  (100) 
1

>  <s_m_source_file>  (100) 
/var/tmp/pbs.5076255.sched01/tmpgqtxr8g4/0xtbcsf6k.sdf

>  <i_m_source_file_index>  (100) 
40

>  <i_lp_mmshare_version>  (100) 
48012

>  <i_f3d_flags>  (100) 
0

>  <s_epik_input>  (100) 
W09IXWMoW2NIXTEpYyhbQ0gzXSljKFtPSF0pYyhDKD1PKU8yKWMxW0NAXShbQ0gzXSkoW0NASF0zW0NIMl1bQ0BIXShbT0hdKUMoTzQpKFtDSDNdKVtDSDNdKUMyPVtDSF1bQ0gyXVtDQEBdKFtDQEBdMzQ1KShbQ0gzXSlbQ0BIXTZDNT1bQ0hdW0NAQEhdKFtDSDJdNilbQ0gzXQ==

>  <s_epik_cmdline>  (100) 
J2VwaWtfcHl0aG9uJywgJy1waHQnLCAnMi4wJywgJy1waCcsICc3LjAnLCAnLXRuJywgJzgnLCAnLW1hJywgJzIwMCcsICctaW1hZScsICc8aW5maWxlLm1hZT4nLCAnLW9tYWUnLCAnPG91dGZpbGUubWFlPic=

>  <r_epik_Ionization_Penalty>  (100) 
0.146147

>  <r_epik_Ionization_Penalty_Charging>  (100) 
0

>  <r_epik_Ionization_Penalty_Neutral>  (100) 
0.146147

>  <r_epik_State_Penalty>  (100) 
0.122462

>  <r_epik_Charging_Adjusted_Penalty>  (100) 
0.122462

>  <i_epik_Tot_Q>  (100) 
0

>  <i_epik_Tot_abs_Q>  (100) 
0

>  <s_lp_Force_Field>  (100) 
OPLS3e

>  <r_lp_Energy>  (100) 
68.2259

>  <b_lp_Chiralities_Consistent>  (100) 
1

>  <s_lp_Variant>  (100) 
25:0-1

>  <s_i_glide_gridfile>  (100) 
pfpi4k_grid

>  <i_i_glide_lignum>  (100) 
40

>  <i_i_glide_rotatable_bonds>  (100) 
3

>  <r_i_docking_score>  (100) 
-3.11892

>  <r_i_glide_ligand_efficiency>  (100) 
-0.0917328

>  <r_i_glide_ligand_efficiency_sa>  (100) 
-0.297179

>  <r_i_glide_ligand_efficiency_ln>  (100) 
-0.689056

>  <r_i_glide_gscore>  (100) 
-3.11892

>  <r_i_glide_lipo>  (100) 
-0.309539

>  <r_i_glide_hbond>  (100) 
-0.194744

>  <r_i_glide_metal>  (100) 
-0

>  <r_i_glide_rewards>  (100) 
-0.877694

>  <r_i_glide_evdw>  (100) 
-23.4396

>  <r_i_glide_ecoul>  (100) 
-3.7664

>  <r_i_glide_erotb>  (100) 
0

>  <r_i_glide_esite>  (100) 
0

>  <r_i_glide_emodel>  (100) 
-37.2571

>  <r_i_glide_energy>  (100) 
-27.206

>  <r_i_glide_einternal>  (100) 
2.03748

>  <r_i_glide_intrahb_reward>  (100) 
-0.5

>  <i_i_glide_confnum>  (100) 
1

>  <i_i_glide_posenum>  (100) 
11

>  <r_i_glide_eff_state_penalty>  (100) 
0

>  <ligand_id>  (100) 
25

>  <original_smiles>  (100) 
Cc1c(O)cc2c(c1O)C(=O)OC1=CCC3(C)C4CC(C)C=C4C34OC(C)(C)C(O)CC4C12C

>  <smiles>  (100) 
[H]Oc1c([H])c2c(c(O[H])c1C([H])([H])[H])C(=O)OC1=C([H])C([H])([H])C3(C([H])([H])[H])C4([H])C(=C([H])C([H])(C([H])([H])[H])C4([H])[H])C34OC(C([H])([H])[H])(C([H])([H])[H])C([H])(O[H])C([H])([H])C4([H])C12C([H])([H])[H]

$$$$
25:0:2
     RDKit          3D

 68 73  0  0  1  0  0  0  0  0999 V2000
    4.1166   -1.9729   -1.9116 C   0  0  0  0  0  0  0  0  0  0  0  0
    4.2221   -3.1153   -0.9072 C   0  0  0  0  0  0  0  0  0  0  0  0
    3.0696   -3.7905   -0.4636 C   0  0  0  0  0  0  0  0  0  0  0  0
    1.8229   -3.4598   -0.9209 O   0  0  0  0  0  0  0  0  0  0  0  0
    3.1798   -4.8272    0.4793 C   0  0  0  0  0  0  0  0  0  0  0  0
    4.4337   -5.1916    1.0318 C   0  0  0  0  0  0  0  0  0  0  0  0
    5.6119   -4.5650    0.5334 C   0  0  0  0  0  0  0  0  0  0  0  0
    5.4931   -3.5145   -0.4243 C   0  0  0  0  0  0  0  0  0  0  0  0
    6.5877   -2.8637   -0.9242 O   0  0  0  0  0  0  0  0  0  0  0  0
    6.9658   -5.0596    0.9884 C   0  0  0  0  0  0  0  0  0  0  0  0
    8.0356   -4.7750    0.4511 O   0  0  0  0  0  0  0  0  0  0  0  0
    6.9572   -5.9160    2.0500 O   0  0  0  0  0  0  0  0  0  0  0  0
    5.8635   -5.9749    2.8715 C   0  0  0  0  0  0  0  0  0  0  0  0
    6.0950   -5.6696    4.1682 C   0  0  0  0  0  0  0  0  0  0  0  0
    5.1562   -5.4282    5.3331 C   0  0  0  0  0  0  0  0  0  0  0  0
    3.8699   -4.6483    5.0124 C   0  0  1  0  0  0  0  0  0  0  0  0
    3.3277   -4.1871    6.3821 C   0  0  0  0  0  0  0  0  0  0  0  0
    4.0180   -3.4514    4.0053 C   0  0  2  0  0  0  0  0  0  0  0  0
    3.5703   -1.9818    4.2111 C   0  0  0  0  0  0  0  0  0  0  0  0
    2.2719   -1.7579    3.3817 C   0  0  1  0  0  0  0  0  0  0  0  0
    2.5042   -1.0309    2.0507 C   0  0  0  0  0  0  0  0  0  0  0  0
    1.7832   -3.1672    3.1714 C   0  0  0  0  0  0  0  0  0  0  0  0
    2.7645   -4.0173    3.4729 C   0  0  0  0  0  0  0  0  0  0  0  0
    2.8624   -5.4000    4.0541 C   0  0  2  0  0  0  0  0  0  0  0  0
    1.6019   -5.7089    4.6789 O   0  0  0  0  0  0  0  0  0  0  0  0
    1.3218   -7.0099    5.2226 C   0  0  0  0  0  0  0  0  0  0  0  0
    1.9516   -7.1551    6.6215 C   0  0  0  0  0  0  0  0  0  0  0  0
   -0.2134   -7.0487    5.3941 C   0  0  0  0  0  0  0  0  0  0  0  0
    1.8332   -8.1526    4.3096 C   0  0  1  0  0  0  0  0  0  0  0  0
    0.9460   -8.4293    3.2407 O   0  0  0  0  0  0  0  0  0  0  0  0
    3.2338   -7.8825    3.7413 C   0  0  0  0  0  0  0  0  0  0  0  0
    3.2843   -6.5064    3.0302 C   0  0  2  0  0  0  0  0  0  0  0  0
    4.5666   -6.2901    2.1061 C   0  0  1  0  0  0  0  0  0  0  0  0
    4.8178   -7.5952    1.2940 C   0  0  0  0  0  0  0  0  0  0  0  0
    3.0887   -1.6807   -2.1181 H   0  0  0  0  0  0  0  0  0  0  0  0
    4.5668   -2.2625   -2.8607 H   0  0  0  0  0  0  0  0  0  0  0  0
    4.6274   -1.0877   -1.5369 H   0  0  0  0  0  0  0  0  0  0  0  0
    1.7133   -2.5239   -1.1190 H   0  0  0  0  0  0  0  0  0  0  0  0
    2.2641   -5.3064    0.7866 H   0  0  0  0  0  0  0  0  0  0  0  0
    6.3859   -2.3944   -1.7165 H   0  0  0  0  0  0  0  0  0  0  0  0
    7.1262   -5.4878    4.4299 H   0  0  0  0  0  0  0  0  0  0  0  0
    4.9559   -6.3776    5.8233 H   0  0  0  0  0  0  0  0  0  0  0  0
    5.7494   -4.8585    6.0527 H   0  0  0  0  0  0  0  0  0  0  0  0
    2.3007   -3.8240    6.3056 H   0  0  0  0  0  0  0  0  0  0  0  0
    3.9262   -3.3708    6.7901 H   0  0  0  0  0  0  0  0  0  0  0  0
    3.3483   -4.9704    7.1365 H   0  0  0  0  0  0  0  0  0  0  0  0
    4.8679   -3.5354    3.3362 H   0  0  0  0  0  0  0  0  0  0  0  0
    3.3463   -1.7789    5.2582 H   0  0  0  0  0  0  0  0  0  0  0  0
    4.3494   -1.2738    3.9402 H   0  0  0  0  0  0  0  0  0  0  0  0
    1.5434   -1.2042    3.9741 H   0  0  0  0  0  0  0  0  0  0  0  0
    1.5874   -0.9789    1.4608 H   0  0  0  0  0  0  0  0  0  0  0  0
    3.2565   -1.5437    1.4488 H   0  0  0  0  0  0  0  0  0  0  0  0
    2.8483   -0.0084    2.2111 H   0  0  0  0  0  0  0  0  0  0  0  0
    0.7403   -3.4132    3.0436 H   0  0  0  0  0  0  0  0  0  0  0  0
    1.6907   -8.1127    7.0784 H   0  0  0  0  0  0  0  0  0  0  0  0
    1.6101   -6.3729    7.3011 H   0  0  0  0  0  0  0  0  0  0  0  0
    3.0353   -7.1222    6.5754 H   0  0  0  0  0  0  0  0  0  0  0  0
   -0.5530   -8.0198    5.7564 H   0  0  0  0  0  0  0  0  0  0  0  0
   -0.7290   -6.8620    4.4531 H   0  0  0  0  0  0  0  0  0  0  0  0
   -0.5584   -6.2908    6.0975 H   0  0  0  0  0  0  0  0  0  0  0  0
    1.8665   -9.0719    4.8956 H   0  0  0  0  0  0  0  0  0  0  0  0
    1.2172   -9.2377    2.8331 H   0  0  0  0  0  0  0  0  0  0  0  0
    3.9645   -7.9177    4.5415 H   0  0  0  0  0  0  0  0  0  0  0  0
    3.4674   -8.7216    3.0864 H   0  0  0  0  0  0  0  0  0  0  0  0
    2.4570   -6.5966    2.3342 H   0  0  0  0  0  0  0  0  0  0  0  0
    5.5532   -7.4592    0.5014 H   0  0  0  0  0  0  0  0  0  0  0  0
    3.9111   -7.9551    0.8022 H   0  0  0  0  0  0  0  0  0  0  0  0
    5.2100   -8.4103    1.9094 H   0  0  0  0  0  0  0  0  0  0  0  0
  1  2  1  0
  1 35  1  0
  1 36  1  0
  1 37  1  0
  2  8  2  0
  2  3  1  0
  3  4  1  0
  3  5  2  0
  4 38  1  0
  5  6  1  0
  5 39  1  0
  6 33  1  0
  6  7  2  0
  7  8  1  0
  7 10  1  0
  8  9  1  0
  9 40  1  0
 10 11  2  0
 10 12  1  0
 12 13  1  0
 13 33  1  0
 13 14  2  0
 14 15  1  0
 14 41  1  0
 15 16  1  0
 15 42  1  0
 15 43  1  0
 16 24  1  0
 16 17  1  1
 16 18  1  0
 17 44  1  0
 17 45  1  0
 17 46  1  0
 18 23  1  0
 18 19  1  0
 18 47  1  6
 19 20  1  0
 19 48  1  0
 19 49  1  0
 20 21  1  0
 20 22  1  0
 20 50  1  1
 21 51  1  0
 21 52  1  0
 21 53  1  0
 22 23  2  0
 22 54  1  0
 23 24  1  0
 24 32  1  0
 24 25  1  1
 25 26  1  0
 26 27  1  0
 26 28  1  0
 26 29  1  0
 27 55  1  0
 27 56  1  0
 27 57  1  0
 28 58  1  0
 28 59  1  0
 28 60  1  0
 29 30  1  0
 29 31  1  0
 29 61  1  1
 30 62  1  0
 31 32  1  0
 31 63  1  0
 31 64  1  0
 32 33  1  0
 32 65  1  6
 33 34  1  6
 34 66  1  0
 34 67  1  0
 34 68  1  0
M  END
>  <i_m_ct_stereo_status>  (101) 
1

>  <s_m_source_file>  (101) 
/var/tmp/pbs.5076255.sched01/tmpgqtxr8g4/0xtbcsf6k.sdf

>  <i_m_source_file_index>  (101) 
40

>  <i_lp_mmshare_version>  (101) 
48012

>  <i_f3d_flags>  (101) 
0

>  <s_epik_input>  (101) 
W09IXWMoW2NIXTEpYyhbQ0gzXSljKFtPSF0pYyhDKD1PKU8yKWMxW0NAXShbQ0gzXSkoW0NASF0zW0NIMl1bQ0BIXShbT0hdKUMoTzQpKFtDSDNdKVtDSDNdKUMyPVtDSF1bQ0gyXVtDQEBdKFtDQEBdMzQ1KShbQ0gzXSlbQ0BIXTZDNT1bQ0hdW0NAQEhdKFtDSDJdNilbQ0gzXQ==

>  <s_epik_cmdline>  (101) 
J2VwaWtfcHl0aG9uJywgJy1waHQnLCAnMi4wJywgJy1waCcsICc3LjAnLCAnLXRuJywgJzgnLCAnLW1hJywgJzIwMCcsICctaW1hZScsICc8aW5maWxlLm1hZT4nLCAnLW9tYWUnLCAnPG91dGZpbGUubWFlPic=

>  <r_epik_Ionization_Penalty>  (101) 
0.146147

>  <r_epik_Ionization_Penalty_Charging>  (101) 
0

>  <r_epik_Ionization_Penalty_Neutral>  (101) 
0.146147

>  <r_epik_State_Penalty>  (101) 
0.122462

>  <r_epik_Charging_Adjusted_Penalty>  (101) 
0.122462

>  <i_epik_Tot_Q>  (101) 
0

>  <i_epik_Tot_abs_Q>  (101) 
0

>  <s_lp_Force_Field>  (101) 
OPLS3e

>  <r_lp_Energy>  (101) 
68.2259

>  <b_lp_Chiralities_Consistent>  (101) 
1

>  <s_lp_Variant>  (101) 
25:0-1

>  <s_i_glide_gridfile>  (101) 
pfpi4k_grid

>  <i_i_glide_lignum>  (101) 
40

>  <i_i_glide_rotatable_bonds>  (101) 
3

>  <r_i_docking_score>  (101) 
-2.54594

>  <r_i_glide_ligand_efficiency>  (101) 
-0.0748807

>  <r_i_glide_ligand_efficiency_sa>  (101) 
-0.242584

>  <r_i_glide_ligand_efficiency_ln>  (101) 
-0.56247

>  <r_i_glide_gscore>  (101) 
-2.54594

>  <r_i_glide_lipo>  (101) 
-0.301096

>  <r_i_glide_hbond>  (101) 
-0.190106

>  <r_i_glide_metal>  (101) 
-0

>  <r_i_glide_rewards>  (101) 
-0.373511

>  <r_i_glide_evdw>  (101) 
-23.0019

>  <r_i_glide_ecoul>  (101) 
-3.54089

>  <r_i_glide_erotb>  (101) 
0

>  <r_i_glide_esite>  (101) 
0

>  <r_i_glide_emodel>  (101) 
-30.6288

>  <r_i_glide_energy>  (101) 
-26.5428

>  <r_i_glide_einternal>  (101) 
1.59802

>  <r_i_glide_intrahb_reward>  (101) 
-0

>  <i_i_glide_confnum>  (101) 
2

>  <i_i_glide_posenum>  (101) 
16

>  <r_i_glide_eff_state_penalty>  (101) 
0

>  <ligand_id>  (101) 
25

>  <original_smiles>  (101) 
Cc1c(O)cc2c(c1O)C(=O)OC1=CCC3(C)C4CC(C)C=C4C34OC(C)(C)C(O)CC4C12C

>  <smiles>  (101) 
[H]Oc1c([H])c2c(c(O[H])c1C([H])([H])[H])C(=O)OC1=C([H])C([H])([H])C3(C([H])([H])[H])C4([H])C(=C([H])C([H])(C([H])([H])[H])C4([H])[H])C34OC(C([H])([H])[H])(C([H])([H])[H])C([H])(O[H])C([H])([H])C4([H])C12C([H])([H])[H]

$$$$
25:1:0
     RDKit          3D

 67 72  0  0  1  0  0  0  0  0999 V2000
    0.6674  -12.0834    4.3599 C   0  0  0  0  0  0  0  0  0  0  0  0
    1.4102  -10.9128    3.7450 C   0  0  0  0  0  0  0  0  0  0  0  0
    2.8145  -10.9124    3.6537 C   0  0  0  0  0  0  0  0  0  0  0  0
    3.5810  -11.9467    4.1072 O   0  0  0  0  0  0  0  0  0  0  0  0
    3.4760   -9.8126    3.0854 C   0  0  0  0  0  0  0  0  0  0  0  0
    2.7793   -8.6621    2.6202 C   0  0  0  0  0  0  0  0  0  0  0  0
    1.3628   -8.6890    2.6535 C   0  0  0  0  0  0  0  0  0  0  0  0
    0.6877   -9.8132    3.2282 C   0  0  0  0  0  0  0  0  0  0  0  0
   -0.6776   -9.8570    3.2787 O   0  0  0  0  0  0  0  0  0  0  0  0
    0.5874   -7.5560    2.0711 C   0  0  0  0  0  0  0  0  0  0  0  0
   -0.6181   -7.3376    2.2459 O   0  0  0  0  0  0  0  0  0  0  0  0
    1.2591   -6.7505    1.2388 O   0  0  0  0  0  0  0  0  0  0  0  0
    2.6116   -6.5016    1.2797 C   0  0  0  0  0  0  0  0  0  0  0  0
    2.9577   -5.3878    0.6050 C   0  0  0  0  0  0  0  0  0  0  0  0
    4.3131   -4.7541    0.4303 C   0  0  0  0  0  0  0  0  0  0  0  0
    4.9903   -4.3256    1.7348 C   0  0  1  0  0  0  0  0  0  0  0  0
    6.3051   -3.6933    1.2356 C   0  0  0  0  0  0  0  0  0  0  0  0
    4.1248   -3.3887    2.6424 C   0  0  2  0  0  0  0  0  0  0  0  0
    4.4297   -1.9224    3.0269 C   0  0  0  0  0  0  0  0  0  0  0  0
    4.9358   -1.9165    4.4994 C   0  0  1  0  0  0  0  0  0  0  0  0
    3.8957   -1.4518    5.5219 C   0  0  0  0  0  0  0  0  0  0  0  0
    5.3453   -3.3543    4.7133 C   0  0  0  0  0  0  0  0  0  0  0  0
    4.8720   -4.0864    3.7085 C   0  0  0  0  0  0  0  0  0  0  0  0
    5.1351   -5.3749    2.9350 C   0  0  2  0  0  0  0  0  0  0  0  0
    6.5023   -5.8265    2.9375 O   0  0  0  0  0  0  0  0  0  0  0  0
    7.0258   -6.6926    3.9593 C   0  0  0  0  0  0  0  0  0  0  0  0
    8.2481   -7.3278    3.2697 C   0  0  0  0  0  0  0  0  0  0  0  0
    7.5029   -5.8951    5.1874 C   0  0  0  0  0  0  0  0  0  0  0  0
    6.0079   -7.7883    4.3451 C   0  0  1  0  0  0  0  0  0  0  0  0
    6.3909   -8.4575    5.5281 O   0  0  0  0  0  0  0  0  0  0  0  0
    4.5974   -7.2307    4.5489 C   0  0  0  0  0  0  0  0  0  0  0  0
    4.0995   -6.5052    3.2862 C   0  0  2  0  0  0  0  0  0  0  0  0
    3.5471   -7.4166    2.0985 C   0  0  1  0  0  0  0  0  0  0  0  0
    4.6735   -7.9232    1.1408 C   0  0  0  0  0  0  0  0  0  0  0  0
    1.3228  -12.7562    4.8934 H   0  0  0  0  0  0  0  0  0  0  0  0
    0.2338  -12.6716    3.5639 H   0  0  0  0  0  0  0  0  0  0  0  0
   -0.0942  -11.7555    5.0644 H   0  0  0  0  0  0  0  0  0  0  0  0
    4.5503   -9.8939    3.0528 H   0  0  0  0  0  0  0  0  0  0  0  0
   -1.0730  -10.4239    3.9367 H   0  0  0  0  0  0  0  0  0  0  0  0
    2.1710   -4.8470    0.1011 H   0  0  0  0  0  0  0  0  0  0  0  0
    4.9441   -5.3866   -0.1931 H   0  0  0  0  0  0  0  0  0  0  0  0
    4.1239   -3.8717   -0.1894 H   0  0  0  0  0  0  0  0  0  0  0  0
    6.8942   -3.3123    2.0688 H   0  0  0  0  0  0  0  0  0  0  0  0
    6.1161   -2.8572    0.5573 H   0  0  0  0  0  0  0  0  0  0  0  0
    6.9174   -4.4259    0.7045 H   0  0  0  0  0  0  0  0  0  0  0  0
    3.0602   -3.6304    2.6263 H   0  0  0  0  0  0  0  0  0  0  0  0
    5.2124   -1.5037    2.3941 H   0  0  0  0  0  0  0  0  0  0  0  0
    3.5776   -1.2598    2.8965 H   0  0  0  0  0  0  0  0  0  0  0  0
    5.8111   -1.2757    4.5826 H   0  0  0  0  0  0  0  0  0  0  0  0
    4.2925   -1.5043    6.5380 H   0  0  0  0  0  0  0  0  0  0  0  0
    3.0007   -2.0707    5.4736 H   0  0  0  0  0  0  0  0  0  0  0  0
    3.6037   -0.4173    5.3387 H   0  0  0  0  0  0  0  0  0  0  0  0
    6.0806   -3.6220    5.4583 H   0  0  0  0  0  0  0  0  0  0  0  0
    8.7580   -8.0322    3.9275 H   0  0  0  0  0  0  0  0  0  0  0  0
    8.9736   -6.5736    2.9610 H   0  0  0  0  0  0  0  0  0  0  0  0
    7.9502   -7.8749    2.3745 H   0  0  0  0  0  0  0  0  0  0  0  0
    8.2371   -6.4515    5.7700 H   0  0  0  0  0  0  0  0  0  0  0  0
    6.6835   -5.6441    5.8581 H   0  0  0  0  0  0  0  0  0  0  0  0
    8.0051   -4.9858    4.8895 H   0  0  0  0  0  0  0  0  0  0  0  0
    6.0073   -8.5312    3.5602 H   0  0  0  0  0  0  0  0  0  0  0  0
    5.8084   -9.1939    5.6547 H   0  0  0  0  0  0  0  0  0  0  0  0
    3.9052   -7.9938    4.8963 H   0  0  0  0  0  0  0  0  0  0  0  0
    4.6261   -6.5090    5.3668 H   0  0  0  0  0  0  0  0  0  0  0  0
    3.1960   -6.0145    3.6507 H   0  0  0  0  0  0  0  0  0  0  0  0
    4.2427   -8.3517    0.2330 H   0  0  0  0  0  0  0  0  0  0  0  0
    5.3028   -8.7069    1.5472 H   0  0  0  0  0  0  0  0  0  0  0  0
    5.3820   -7.1595    0.8374 H   0  0  0  0  0  0  0  0  0  0  0  0
  1  2  1  0
  1 35  1  0
  1 36  1  0
  1 37  1  0
  2  8  2  0
  2  3  1  0
  3  4  1  0
  3  5  2  0
  5  6  1  0
  5 38  1  0
  6 33  1  0
  6  7  2  0
  7  8  1  0
  7 10  1  0
  8  9  1  0
  9 39  1  0
 10 11  2  0
 10 12  1  0
 12 13  1  0
 13 33  1  0
 13 14  2  0
 14 15  1  0
 14 40  1  0
 15 16  1  0
 15 41  1  0
 15 42  1  0
 16 24  1  0
 16 17  1  6
 16 18  1  0
 17 43  1  0
 17 44  1  0
 17 45  1  0
 18 23  1  0
 18 19  1  0
 18 46  1  1
 19 20  1  0
 19 47  1  0
 19 48  1  0
 20 21  1  0
 20 22  1  0
 20 49  1  6
 21 50  1  0
 21 51  1  0
 21 52  1  0
 22 23  2  0
 22 53  1  0
 23 24  1  0
 24 32  1  0
 24 25  1  1
 25 26  1  0
 26 27  1  0
 26 28  1  0
 26 29  1  0
 27 54  1  0
 27 55  1  0
 27 56  1  0
 28 57  1  0
 28 58  1  0
 28 59  1  0
 29 30  1  0
 29 31  1  0
 29 60  1  6
 30 61  1  0
 31 32  1  0
 31 62  1  0
 31 63  1  0
 32 33  1  0
 32 64  1  1
 33 34  1  6
 34 65  1  0
 34 66  1  0
 34 67  1  0
M  CHG  1   4  -1
M  END
>  <i_m_ct_stereo_status>  (102) 
1

>  <s_m_source_file>  (102) 
/var/tmp/pbs.5076255.sched01/tmpgqtxr8g4/0xtbcsf6k.sdf

>  <i_m_source_file_index>  (102) 
41

>  <i_lp_mmshare_version>  (102) 
48012

>  <i_f3d_flags>  (102) 
0

>  <s_epik_input>  (102) 
W09IXWMoW2NIXTEpYyhbQ0gzXSljKFtPSF0pYyhDKD1PKU8yKWMxW0NAXShbQ0gzXSkoW0NASF0zW0NIMl1bQ0BIXShbT0hdKUMoTzQpKFtDSDNdKVtDSDNdKUMyPVtDSF1bQ0gyXVtDQEBdKFtDQEBdMzQ1KShbQ0gzXSlbQ0BIXTZDNT1bQ0hdW0NAQEhdKFtDSDJdNilbQ0gzXQ==

>  <s_epik_cmdline>  (102) 
J2VwaWtfcHl0aG9uJywgJy1waHQnLCAnMi4wJywgJy1waCcsICc3LjAnLCAnLXRuJywgJzgnLCAnLW1hJywgJzIwMCcsICctaW1hZScsICc8aW5maWxlLm1hZT4nLCAnLW9tYWUnLCAnPG91dGZpbGUubWFlPic=

>  <r_epik_Ionization_Penalty>  (102) 
1.20329

>  <r_epik_Ionization_Penalty_Charging>  (102) 
1.20262

>  <r_epik_Ionization_Penalty_Neutral>  (102) 
0.000668176

>  <r_epik_State_Penalty>  (102) 
1.31672

>  <r_epik_Charging_Adjusted_Penalty>  (102) 
2.51934

>  <i_epik_Tot_Q>  (102) 
-1

>  <i_epik_Tot_abs_Q>  (102) 
1

>  <s_lp_Force_Field>  (102) 
OPLS3e

>  <r_lp_Energy>  (102) 
72.2642

>  <b_lp_Chiralities_Consistent>  (102) 
1

>  <s_lp_Variant>  (102) 
25:0-2

>  <s_i_glide_gridfile>  (102) 
pfpi4k_grid

>  <i_i_glide_lignum>  (102) 
41

>  <i_i_glide_rotatable_bonds>  (102) 
2

>  <r_i_docking_score>  (102) 
-2.28603

>  <r_i_glide_ligand_efficiency>  (102) 
-0.0672362

>  <r_i_glide_ligand_efficiency_sa>  (102) 
-0.217819

>  <r_i_glide_ligand_efficiency_ln>  (102) 
-0.505048

>  <r_i_glide_gscore>  (102) 
-2.28603

>  <r_i_glide_lipo>  (102) 
-0.446394

>  <r_i_glide_hbond>  (102) 
-0.0463909

>  <r_i_glide_metal>  (102) 
-0

>  <r_i_glide_rewards>  (102) 
-0.234832

>  <r_i_glide_evdw>  (102) 
-25.744

>  <r_i_glide_ecoul>  (102) 
-1.44986

>  <r_i_glide_erotb>  (102) 
0

>  <r_i_glide_esite>  (102) 
-0.0537325

>  <r_i_glide_emodel>  (102) 
-30.9947

>  <r_i_glide_energy>  (102) 
-27.1939

>  <r_i_glide_einternal>  (102) 
0.829683

>  <r_i_glide_intrahb_reward>  (102) 
-0

>  <i_i_glide_confnum>  (102) 
1

>  <i_i_glide_posenum>  (102) 
25

>  <r_i_glide_eff_state_penalty>  (102) 
0

>  <ligand_id>  (102) 
25

>  <original_smiles>  (102) 
Cc1c(O)cc2c(c1O)C(=O)OC1=CCC3(C)C4CC(C)C=C4C34OC(C)(C)C(O)CC4C12C

>  <smiles>  (102) 
[H]Oc1c2c(c([H])c([O-])c1C([H])([H])[H])C1(C([H])([H])[H])C(=C([H])C([H])([H])C3(C([H])([H])[H])C4([H])C(=C([H])C([H])(C([H])([H])[H])C4([H])[H])C34OC(C([H])([H])[H])(C([H])([H])[H])C([H])(O[H])C([H])([H])C41[H])OC2=O

$$$$
25:1:1
     RDKit          3D

 67 72  0  0  1  0  0  0  0  0999 V2000
    0.0840   -9.2280    6.0074 C   0  0  0  0  0  0  0  0  0  0  0  0
    0.8834   -8.1114    5.3448 C   0  0  0  0  0  0  0  0  0  0  0  0
    1.9595   -7.4882    6.0052 C   0  0  0  0  0  0  0  0  0  0  0  0
    2.3335   -7.8362    7.2710 O   0  0  0  0  0  0  0  0  0  0  0  0
    2.6831   -6.4677    5.3625 C   0  0  0  0  0  0  0  0  0  0  0  0
    2.3501   -6.0072    4.0576 C   0  0  0  0  0  0  0  0  0  0  0  0
    1.3017   -6.6724    3.3783 C   0  0  0  0  0  0  0  0  0  0  0  0
    0.5599   -7.7077    4.0327 C   0  0  0  0  0  0  0  0  0  0  0  0
   -0.4739   -8.3545    3.4208 O   0  0  0  0  0  0  0  0  0  0  0  0
    1.0043   -6.3182    1.9658 C   0  0  0  0  0  0  0  0  0  0  0  0
   -0.0233   -6.6389    1.3601 O   0  0  0  0  0  0  0  0  0  0  0  0
    1.9457   -5.6305    1.3133 O   0  0  0  0  0  0  0  0  0  0  0  0
    2.8630   -4.7803    1.8822 C   0  0  0  0  0  0  0  0  0  0  0  0
    3.4187   -3.9394    0.9897 C   0  0  0  0  0  0  0  0  0  0  0  0
    4.4357   -2.8478    1.2055 C   0  0  0  0  0  0  0  0  0  0  0  0
    3.9916   -1.7362    2.1648 C   0  0  1  0  0  0  0  0  0  0  0  0
    5.2001   -0.7721    2.1640 C   0  0  0  0  0  0  0  0  0  0  0  0
    2.6309   -1.0526    1.7938 C   0  0  2  0  0  0  0  0  0  0  0  0
    2.4164    0.4241    1.3841 C   0  0  0  0  0  0  0  0  0  0  0  0
    1.7936    1.1653    2.6018 C   0  0  1  0  0  0  0  0  0  0  0  0
    0.2833    1.4041    2.4750 C   0  0  0  0  0  0  0  0  0  0  0  0
    2.1304    0.2460    3.7513 C   0  0  0  0  0  0  0  0  0  0  0  0
    2.5476   -0.9192    3.2630 C   0  0  0  0  0  0  0  0  0  0  0  0
    3.4275   -2.1190    3.6103 C   0  0  2  0  0  0  0  0  0  0  0  0
    4.4814   -1.8629    4.5568 O   0  0  0  0  0  0  0  0  0  0  0  0
    4.2826   -1.9643    5.9770 C   0  0  0  0  0  0  0  0  0  0  0  0
    5.7163   -2.1606    6.5071 C   0  0  0  0  0  0  0  0  0  0  0  0
    3.7069   -0.6529    6.5463 C   0  0  0  0  0  0  0  0  0  0  0  0
    3.4199   -3.1995    6.3338 C   0  0  1  0  0  0  0  0  0  0  0  0
    2.9864   -3.1711    7.6784 O   0  0  0  0  0  0  0  0  0  0  0  0
    2.1878   -3.3300    5.4334 C   0  0  0  0  0  0  0  0  0  0  0  0
    2.5862   -3.4023    3.9479 C   0  0  2  0  0  0  0  0  0  0  0  0
    3.1069   -4.8118    3.4079 C   0  0  1  0  0  0  0  0  0  0  0  0
    4.6375   -5.0326    3.6395 C   0  0  0  0  0  0  0  0  0  0  0  0
    0.2977   -9.3219    7.0671 H   0  0  0  0  0  0  0  0  0  0  0  0
    0.3055  -10.1878    5.5419 H   0  0  0  0  0  0  0  0  0  0  0  0
   -0.9867   -9.0530    5.9085 H   0  0  0  0  0  0  0  0  0  0  0  0
    3.4929   -6.0428    5.9271 H   0  0  0  0  0  0  0  0  0  0  0  0
   -0.7887   -9.1056    3.9113 H   0  0  0  0  0  0  0  0  0  0  0  0
    3.1013   -4.0398   -0.0384 H   0  0  0  0  0  0  0  0  0  0  0  0
    5.3952   -3.2837    1.4784 H   0  0  0  0  0  0  0  0  0  0  0  0
    4.6023   -2.4242    0.2110 H   0  0  0  0  0  0  0  0  0  0  0  0
    5.0178    0.0936    2.8016 H   0  0  0  0  0  0  0  0  0  0  0  0
    5.4135   -0.3933    1.1614 H   0  0  0  0  0  0  0  0  0  0  0  0
    6.1023   -1.2599    2.5367 H   0  0  0  0  0  0  0  0  0  0  0  0
    1.9003   -1.7416    1.3675 H   0  0  0  0  0  0  0  0  0  0  0  0
    3.3639    0.9002    1.1332 H   0  0  0  0  0  0  0  0  0  0  0  0
    1.7984    0.5430    0.4955 H   0  0  0  0  0  0  0  0  0  0  0  0
    2.2976    2.1197    2.7413 H   0  0  0  0  0  0  0  0  0  0  0  0
   -0.1166    1.8862    3.3672 H   0  0  0  0  0  0  0  0  0  0  0  0
   -0.2544    0.4686    2.3285 H   0  0  0  0  0  0  0  0  0  0  0  0
    0.0549    2.0518    1.6271 H   0  0  0  0  0  0  0  0  0  0  0  0
    2.1932    0.6171    4.7608 H   0  0  0  0  0  0  0  0  0  0  0  0
    5.7327   -2.2803    7.5914 H   0  0  0  0  0  0  0  0  0  0  0  0
    6.3543   -1.3137    6.2523 H   0  0  0  0  0  0  0  0  0  0  0  0
    6.1719   -3.0530    6.0757 H   0  0  0  0  0  0  0  0  0  0  0  0
    3.9216   -0.5561    7.6121 H   0  0  0  0  0  0  0  0  0  0  0  0
    2.6233   -0.6160    6.4531 H   0  0  0  0  0  0  0  0  0  0  0  0
    4.1294    0.2176    6.0446 H   0  0  0  0  0  0  0  0  0  0  0  0
    4.0452   -4.0769    6.2392 H   0  0  0  0  0  0  0  0  0  0  0  0
    2.6218   -4.0199    7.8917 H   0  0  0  0  0  0  0  0  0  0  0  0
    1.5483   -4.1557    5.7361 H   0  0  0  0  0  0  0  0  0  0  0  0
    1.5638   -2.4472    5.5745 H   0  0  0  0  0  0  0  0  0  0  0  0
    1.6258   -3.2946    3.4456 H   0  0  0  0  0  0  0  0  0  0  0  0
    4.9938   -5.8893    3.0643 H   0  0  0  0  0  0  0  0  0  0  0  0
    4.9232   -5.2438    4.6644 H   0  0  0  0  0  0  0  0  0  0  0  0
    5.2593   -4.1842    3.3702 H   0  0  0  0  0  0  0  0  0  0  0  0
  1  2  1  0
  1 35  1  0
  1 36  1  0
  1 37  1  0
  2  8  2  0
  2  3  1  0
  3  4  1  0
  3  5  2  0
  5  6  1  0
  5 38  1  0
  6 33  1  0
  6  7  2  0
  7  8  1  0
  7 10  1  0
  8  9  1  0
  9 39  1  0
 10 11  2  0
 10 12  1  0
 12 13  1  0
 13 33  1  0
 13 14  2  0
 14 15  1  0
 14 40  1  0
 15 16  1  0
 15 41  1  0
 15 42  1  0
 16 24  1  0
 16 17  1  1
 16 18  1  0
 17 43  1  0
 17 44  1  0
 17 45  1  0
 18 23  1  0
 18 19  1  0
 18 46  1  6
 19 20  1  0
 19 47  1  0
 19 48  1  0
 20 21  1  0
 20 22  1  0
 20 49  1  1
 21 50  1  0
 21 51  1  0
 21 52  1  0
 22 23  2  0
 22 53  1  0
 23 24  1  0
 24 32  1  0
 24 25  1  1
 25 26  1  0
 26 27  1  0
 26 28  1  0
 26 29  1  0
 27 54  1  0
 27 55  1  0
 27 56  1  0
 28 57  1  0
 28 58  1  0
 28 59  1  0
 29 30  1  0
 29 31  1  0
 29 60  1  1
 30 61  1  0
 31 32  1  0
 31 62  1  0
 31 63  1  0
 32 33  1  0
 32 64  1  6
 33 34  1  6
 34 65  1  0
 34 66  1  0
 34 67  1  0
M  CHG  1   4  -1
M  END
>  <i_m_ct_stereo_status>  (103) 
1

>  <s_m_source_file>  (103) 
/var/tmp/pbs.5076255.sched01/tmpgqtxr8g4/0xtbcsf6k.sdf

>  <i_m_source_file_index>  (103) 
41

>  <i_lp_mmshare_version>  (103) 
48012

>  <i_f3d_flags>  (103) 
0

>  <s_epik_input>  (103) 
W09IXWMoW2NIXTEpYyhbQ0gzXSljKFtPSF0pYyhDKD1PKU8yKWMxW0NAXShbQ0gzXSkoW0NASF0zW0NIMl1bQ0BIXShbT0hdKUMoTzQpKFtDSDNdKVtDSDNdKUMyPVtDSF1bQ0gyXVtDQEBdKFtDQEBdMzQ1KShbQ0gzXSlbQ0BIXTZDNT1bQ0hdW0NAQEhdKFtDSDJdNilbQ0gzXQ==

>  <s_epik_cmdline>  (103) 
J2VwaWtfcHl0aG9uJywgJy1waHQnLCAnMi4wJywgJy1waCcsICc3LjAnLCAnLXRuJywgJzgnLCAnLW1hJywgJzIwMCcsICctaW1hZScsICc8aW5maWxlLm1hZT4nLCAnLW9tYWUnLCAnPG91dGZpbGUubWFlPic=

>  <r_epik_Ionization_Penalty>  (103) 
1.20329

>  <r_epik_Ionization_Penalty_Charging>  (103) 
1.20262

>  <r_epik_Ionization_Penalty_Neutral>  (103) 
0.000668176

>  <r_epik_State_Penalty>  (103) 
1.31672

>  <r_epik_Charging_Adjusted_Penalty>  (103) 
2.51934

>  <i_epik_Tot_Q>  (103) 
-1

>  <i_epik_Tot_abs_Q>  (103) 
1

>  <s_lp_Force_Field>  (103) 
OPLS3e

>  <r_lp_Energy>  (103) 
72.2642

>  <b_lp_Chiralities_Consistent>  (103) 
1

>  <s_lp_Variant>  (103) 
25:0-2

>  <s_i_glide_gridfile>  (103) 
pfpi4k_grid

>  <i_i_glide_lignum>  (103) 
41

>  <i_i_glide_rotatable_bonds>  (103) 
2

>  <r_i_docking_score>  (103) 
-2.25818

>  <r_i_glide_ligand_efficiency>  (103) 
-0.0664172

>  <r_i_glide_ligand_efficiency_sa>  (103) 
-0.215166

>  <r_i_glide_ligand_efficiency_ln>  (103) 
-0.498896

>  <r_i_glide_gscore>  (103) 
-2.25818

>  <r_i_glide_lipo>  (103) 
-0.164321

>  <r_i_glide_hbond>  (103) 
-0.230922

>  <r_i_glide_metal>  (103) 
-0

>  <r_i_glide_rewards>  (103) 
-0.234832

>  <r_i_glide_evdw>  (103) 
-23.9079

>  <r_i_glide_ecoul>  (103) 
-2.41609

>  <r_i_glide_erotb>  (103) 
0

>  <r_i_glide_esite>  (103) 
-0.070301

>  <r_i_glide_emodel>  (103) 
-30.4527

>  <r_i_glide_energy>  (103) 
-26.324

>  <r_i_glide_einternal>  (103) 
0.409575

>  <r_i_glide_intrahb_reward>  (103) 
-0

>  <i_i_glide_confnum>  (103) 
2

>  <i_i_glide_posenum>  (103) 
4

>  <r_i_glide_eff_state_penalty>  (103) 
0

>  <ligand_id>  (103) 
25

>  <original_smiles>  (103) 
Cc1c(O)cc2c(c1O)C(=O)OC1=CCC3(C)C4CC(C)C=C4C34OC(C)(C)C(O)CC4C12C

>  <smiles>  (103) 
[H]Oc1c2c(c([H])c([O-])c1C([H])([H])[H])C1(C([H])([H])[H])C(=C([H])C([H])([H])C3(C([H])([H])[H])C4([H])C(=C([H])C([H])(C([H])([H])[H])C4([H])[H])C34OC(C([H])([H])[H])(C([H])([H])[H])C([H])(O[H])C([H])([H])C41[H])OC2=O

$$$$
25:1:2
     RDKit          3D

 67 72  0  0  1  0  0  0  0  0999 V2000
   -1.2084    1.9561    2.9906 C   0  0  0  0  0  0  0  0  0  0  0  0
   -0.2351    0.8461    3.3710 C   0  0  0  0  0  0  0  0  0  0  0  0
    1.0767    0.8228    2.8741 C   0  0  0  0  0  0  0  0  0  0  0  0
    1.5642    1.7916    2.0530 O   0  0  0  0  0  0  0  0  0  0  0  0
    1.9502   -0.2138    3.2241 C   0  0  0  0  0  0  0  0  0  0  0  0
    1.5536   -1.2759    4.0800 C   0  0  0  0  0  0  0  0  0  0  0  0
    0.2533   -1.2209    4.6385 C   0  0  0  0  0  0  0  0  0  0  0  0
   -0.6398   -0.1670    4.2629 C   0  0  0  0  0  0  0  0  0  0  0  0
   -1.9070   -0.0901    4.7657 O   0  0  0  0  0  0  0  0  0  0  0  0
   -0.1644   -2.2263    5.6485 C   0  0  0  0  0  0  0  0  0  0  0  0
   -1.3186   -2.3809    6.0594 O   0  0  0  0  0  0  0  0  0  0  0  0
    0.8181   -2.9439    6.2033 O   0  0  0  0  0  0  0  0  0  0  0  0
    2.0416   -3.2214    5.6412 C   0  0  0  0  0  0  0  0  0  0  0  0
    2.6763   -4.2377    6.2526 C   0  0  0  0  0  0  0  0  0  0  0  0
    3.9978   -4.8804    5.9262 C   0  0  0  0  0  0  0  0  0  0  0  0
    4.0805   -5.4984    4.5237 C   0  0  1  0  0  0  0  0  0  0  0  0
    5.5049   -6.0929    4.4902 C   0  0  0  0  0  0  0  0  0  0  0  0
    2.9485   -6.5288    4.1940 C   0  0  2  0  0  0  0  0  0  0  0  0
    3.1226   -8.0407    3.9203 C   0  0  0  0  0  0  0  0  0  0  0  0
    2.9760   -8.2565    2.3876 C   0  0  1  0  0  0  0  0  0  0  0  0
    1.6163   -8.8220    1.9751 C   0  0  0  0  0  0  0  0  0  0  0  0
    3.2034   -6.8726    1.8315 C   0  0  0  0  0  0  0  0  0  0  0  0
    3.1600   -5.9973    2.8328 C   0  0  0  0  0  0  0  0  0  0  0  0
    3.6764   -4.6226    3.2480 C   0  0  2  0  0  0  0  0  0  0  0  0
    4.9020   -4.2020    2.6191 O   0  0  0  0  0  0  0  0  0  0  0  0
    4.9205   -3.5093    1.3586 C   0  0  0  0  0  0  0  0  0  0  0  0
    6.2933   -2.8117    1.3779 C   0  0  0  0  0  0  0  0  0  0  0  0
    4.8796   -4.5075    0.1846 C   0  0  0  0  0  0  0  0  0  0  0  0
    3.7960   -2.4473    1.2817 C   0  0  1  0  0  0  0  0  0  0  0  0
    3.6119   -1.9761   -0.0405 O   0  0  0  0  0  0  0  0  0  0  0  0
    2.4558   -2.9899    1.7780 C   0  0  0  0  0  0  0  0  0  0  0  0
    2.5560   -3.5251    3.2167 C   0  0  2  0  0  0  0  0  0  0  0  0
    2.5214   -2.4494    4.3937 C   0  0  1  0  0  0  0  0  0  0  0  0
    3.9280   -1.8420    4.7107 C   0  0  0  0  0  0  0  0  0  0  0  0
   -0.8534    2.5542    2.1554 H   0  0  0  0  0  0  0  0  0  0  0  0
   -1.3797    2.6255    3.8347 H   0  0  0  0  0  0  0  0  0  0  0  0
   -2.1719    1.5450    2.6810 H   0  0  0  0  0  0  0  0  0  0  0  0
    2.9314   -0.1551    2.7871 H   0  0  0  0  0  0  0  0  0  0  0  0
   -2.4421    0.5204    4.2740 H   0  0  0  0  0  0  0  0  0  0  0  0
    2.1759   -4.6831    7.1002 H   0  0  0  0  0  0  0  0  0  0  0  0
    4.8133   -4.1874    6.1303 H   0  0  0  0  0  0  0  0  0  0  0  0
    4.1183   -5.6677    6.6764 H   0  0  0  0  0  0  0  0  0  0  0  0
    5.7049   -6.5930    3.5418 H   0  0  0  0  0  0  0  0  0  0  0  0
    5.6521   -6.8330    5.2805 H   0  0  0  0  0  0  0  0  0  0  0  0
    6.2642   -5.3181    4.6109 H   0  0  0  0  0  0  0  0  0  0  0  0
    1.9823   -6.2657    4.6279 H   0  0  0  0  0  0  0  0  0  0  0  0
    4.1114   -8.3852    4.2225 H   0  0  0  0  0  0  0  0  0  0  0  0
    2.4242   -8.6569    4.4824 H   0  0  0  0  0  0  0  0  0  0  0  0
    3.7588   -8.9199    2.0270 H   0  0  0  0  0  0  0  0  0  0  0  0
    1.5644   -8.8950    0.8903 H   0  0  0  0  0  0  0  0  0  0  0  0
    0.7968   -8.1864    2.3084 H   0  0  0  0  0  0  0  0  0  0  0  0
    1.4521   -9.8208    2.3838 H   0  0  0  0  0  0  0  0  0  0  0  0
    3.5455   -6.7259    0.8180 H   0  0  0  0  0  0  0  0  0  0  0  0
    6.4563   -2.2133    0.4807 H   0  0  0  0  0  0  0  0  0  0  0  0
    7.1071   -3.5341    1.4558 H   0  0  0  0  0  0  0  0  0  0  0  0
    6.3688   -2.1377    2.2316 H   0  0  0  0  0  0  0  0  0  0  0  0
    5.2888   -4.0646   -0.7258 H   0  0  0  0  0  0  0  0  0  0  0  0
    3.8600   -4.8005   -0.0596 H   0  0  0  0  0  0  0  0  0  0  0  0
    5.4568   -5.4060    0.4013 H   0  0  0  0  0  0  0  0  0  0  0  0
    4.0932   -1.5980    1.8834 H   0  0  0  0  0  0  0  0  0  0  0  0
    2.8222   -1.4463   -0.0788 H   0  0  0  0  0  0  0  0  0  0  0  0
    1.6572   -2.2629    1.6541 H   0  0  0  0  0  0  0  0  0  0  0  0
    2.1755   -3.8198    1.1287 H   0  0  0  0  0  0  0  0  0  0  0  0
    1.6023   -4.0371    3.3396 H   0  0  0  0  0  0  0  0  0  0  0  0
    3.9057   -1.2867    5.6518 H   0  0  0  0  0  0  0  0  0  0  0  0
    4.3042   -1.1354    3.9782 H   0  0  0  0  0  0  0  0  0  0  0  0
    4.7257   -2.5744    4.7903 H   0  0  0  0  0  0  0  0  0  0  0  0
  1  2  1  0
  1 35  1  0
  1 36  1  0
  1 37  1  0
  2  8  2  0
  2  3  1  0
  3  4  1  0
  3  5  2  0
  5  6  1  0
  5 38  1  0
  6 33  1  0
  6  7  2  0
  7  8  1  0
  7 10  1  0
  8  9  1  0
  9 39  1  0
 10 11  2  0
 10 12  1  0
 12 13  1  0
 13 33  1  0
 13 14  2  0
 14 15  1  0
 14 40  1  0
 15 16  1  0
 15 41  1  0
 15 42  1  0
 16 24  1  0
 16 17  1  6
 16 18  1  0
 17 43  1  0
 17 44  1  0
 17 45  1  0
 18 23  1  0
 18 19  1  0
 18 46  1  1
 19 20  1  0
 19 47  1  0
 19 48  1  0
 20 21  1  0
 20 22  1  0
 20 49  1  6
 21 50  1  0
 21 51  1  0
 21 52  1  0
 22 23  2  0
 22 53  1  0
 23 24  1  0
 24 32  1  0
 24 25  1  6
 25 26  1  0
 26 27  1  0
 26 28  1  0
 26 29  1  0
 27 54  1  0
 27 55  1  0
 27 56  1  0
 28 57  1  0
 28 58  1  0
 28 59  1  0
 29 30  1  0
 29 31  1  0
 29 60  1  1
 30 61  1  0
 31 32  1  0
 31 62  1  0
 31 63  1  0
 32 33  1  0
 32 64  1  1
 33 34  1  1
 34 65  1  0
 34 66  1  0
 34 67  1  0
M  CHG  1   4  -1
M  END
>  <i_m_ct_stereo_status>  (104) 
1

>  <s_m_source_file>  (104) 
/var/tmp/pbs.5076255.sched01/tmpgqtxr8g4/0xtbcsf6k.sdf

>  <i_m_source_file_index>  (104) 
41

>  <i_lp_mmshare_version>  (104) 
48012

>  <i_f3d_flags>  (104) 
0

>  <s_epik_input>  (104) 
W09IXWMoW2NIXTEpYyhbQ0gzXSljKFtPSF0pYyhDKD1PKU8yKWMxW0NAXShbQ0gzXSkoW0NASF0zW0NIMl1bQ0BIXShbT0hdKUMoTzQpKFtDSDNdKVtDSDNdKUMyPVtDSF1bQ0gyXVtDQEBdKFtDQEBdMzQ1KShbQ0gzXSlbQ0BIXTZDNT1bQ0hdW0NAQEhdKFtDSDJdNilbQ0gzXQ==

>  <s_epik_cmdline>  (104) 
J2VwaWtfcHl0aG9uJywgJy1waHQnLCAnMi4wJywgJy1waCcsICc3LjAnLCAnLXRuJywgJzgnLCAnLW1hJywgJzIwMCcsICctaW1hZScsICc8aW5maWxlLm1hZT4nLCAnLW9tYWUnLCAnPG91dGZpbGUubWFlPic=

>  <r_epik_Ionization_Penalty>  (104) 
1.20329

>  <r_epik_Ionization_Penalty_Charging>  (104) 
1.20262

>  <r_epik_Ionization_Penalty_Neutral>  (104) 
0.000668176

>  <r_epik_State_Penalty>  (104) 
1.31672

>  <r_epik_Charging_Adjusted_Penalty>  (104) 
2.51934

>  <i_epik_Tot_Q>  (104) 
-1

>  <i_epik_Tot_abs_Q>  (104) 
1

>  <s_lp_Force_Field>  (104) 
OPLS3e

>  <r_lp_Energy>  (104) 
72.2642

>  <b_lp_Chiralities_Consistent>  (104) 
1

>  <s_lp_Variant>  (104) 
25:0-2

>  <s_i_glide_gridfile>  (104) 
pfpi4k_grid

>  <i_i_glide_lignum>  (104) 
41

>  <i_i_glide_rotatable_bonds>  (104) 
2

>  <r_i_docking_score>  (104) 
-2.24297

>  <r_i_glide_ligand_efficiency>  (104) 
-0.0659696

>  <r_i_glide_ligand_efficiency_sa>  (104) 
-0.213716

>  <r_i_glide_ligand_efficiency_ln>  (104) 
-0.495534

>  <r_i_glide_gscore>  (104) 
-2.24297

>  <r_i_glide_lipo>  (104) 
-0.202739

>  <r_i_glide_hbond>  (104) 
-0.0669508

>  <r_i_glide_metal>  (104) 
-0

>  <r_i_glide_rewards>  (104) 
-0.234832

>  <r_i_glide_evdw>  (104) 
-23.0612

>  <r_i_glide_ecoul>  (104) 
-3.7656

>  <r_i_glide_erotb>  (104) 
0

>  <r_i_glide_esite>  (104) 
-0.0205468

>  <r_i_glide_emodel>  (104) 
-30.6635

>  <r_i_glide_energy>  (104) 
-26.8268

>  <r_i_glide_einternal>  (104) 
0.824603

>  <r_i_glide_intrahb_reward>  (104) 
-0

>  <i_i_glide_confnum>  (104) 
2

>  <i_i_glide_posenum>  (104) 
2

>  <r_i_glide_eff_state_penalty>  (104) 
0

>  <ligand_id>  (104) 
25

>  <original_smiles>  (104) 
Cc1c(O)cc2c(c1O)C(=O)OC1=CCC3(C)C4CC(C)C=C4C34OC(C)(C)C(O)CC4C12C

>  <smiles>  (104) 
[H]Oc1c2c(c([H])c([O-])c1C([H])([H])[H])C1(C([H])([H])[H])C(=C([H])C([H])([H])C3(C([H])([H])[H])C4([H])C(=C([H])C([H])(C([H])([H])[H])C4([H])[H])C34OC(C([H])([H])[H])(C([H])([H])[H])C([H])(O[H])C([H])([H])C41[H])OC2=O

$$$$
25:2:0
     RDKit          3D

 67 72  0  0  1  0  0  0  0  0999 V2000
   -1.2102    1.1516    4.1587 C   0  0  0  0  0  0  0  0  0  0  0  0
   -0.3709   -0.0885    4.4751 C   0  0  0  0  0  0  0  0  0  0  0  0
    0.9716   -0.1842    4.0282 C   0  0  0  0  0  0  0  0  0  0  0  0
    1.5437    0.8032    3.2921 O   0  0  0  0  0  0  0  0  0  0  0  0
    1.7235   -1.3258    4.3381 C   0  0  0  0  0  0  0  0  0  0  0  0
    1.1984   -2.4283    5.0660 C   0  0  0  0  0  0  0  0  0  0  0  0
   -0.1377   -2.2971    5.5721 C   0  0  0  0  0  0  0  0  0  0  0  0
   -0.9184   -1.1408    5.2474 C   0  0  0  0  0  0  0  0  0  0  0  0
   -2.2184   -0.9770    5.6777 O   0  0  0  0  0  0  0  0  0  0  0  0
   -0.6559   -3.3403    6.5066 C   0  0  0  0  0  0  0  0  0  0  0  0
   -1.8366   -3.4669    6.8576 O   0  0  0  0  0  0  0  0  0  0  0  0
    0.2619   -4.1020    7.0896 O   0  0  0  0  0  0  0  0  0  0  0  0
    1.4391   -4.5131    6.5132 C   0  0  0  0  0  0  0  0  0  0  0  0
    1.9621   -5.6197    7.0787 C   0  0  0  0  0  0  0  0  0  0  0  0
    3.1723   -6.4257    6.6833 C   0  0  0  0  0  0  0  0  0  0  0  0
    3.0440   -7.0103    5.2829 C   0  0  1  0  0  0  0  0  0  0  0  0
    4.3036   -7.8907    5.1700 C   0  0  0  0  0  0  0  0  0  0  0  0
    1.7044   -7.7730    5.0082 C   0  0  2  0  0  0  0  0  0  0  0  0
    1.5401   -9.2861    4.7068 C   0  0  0  0  0  0  0  0  0  0  0  0
    1.2417   -9.4194    3.1895 C   0  0  1  0  0  0  0  0  0  0  0  0
   -0.2365   -9.6754    2.8783 C   0  0  0  0  0  0  0  0  0  0  0  0
    1.7141   -8.0914    2.6422 C   0  0  0  0  0  0  0  0  0  0  0  0
    1.9244   -7.2444    3.6508 C   0  0  0  0  0  0  0  0  0  0  0  0
    2.7799   -6.0327    4.0423 C   0  0  2  0  0  0  0  0  0  0  0  0
    4.0118   -5.9515    3.3100 O   0  0  0  0  0  0  0  0  0  0  0  0
    4.0729   -5.3758    1.9970 C   0  0  0  0  0  0  0  0  0  0  0  0
    5.1952   -4.3235    2.1383 C   0  0  0  0  0  0  0  0  0  0  0  0
    4.5620   -6.4333    0.9849 C   0  0  0  0  0  0  0  0  0  0  0  0
    2.7546   -4.6841    1.5618 C   0  0  1  0  0  0  0  0  0  0  0  0
    1.8184   -5.5356    0.9342 O   0  0  0  0  0  0  0  0  0  0  0  0
    2.1470   -3.9053    2.7249 C   0  0  0  0  0  0  0  0  0  0  0  0
    1.9433   -4.6835    4.0490 C   0  0  2  0  0  0  0  0  0  0  0  0
    2.0071   -3.7322    5.3105 C   0  0  1  0  0  0  0  0  0  0  0  0
    3.4704   -3.3039    5.6539 C   0  0  0  0  0  0  0  0  0  0  0  0
   -0.6890    1.8962    3.5740 H   0  0  0  0  0  0  0  0  0  0  0  0
   -1.5494    1.6263    5.0786 H   0  0  0  0  0  0  0  0  0  0  0  0
   -2.0926    0.8634    3.5970 H   0  0  0  0  0  0  0  0  0  0  0  0
    0.9345    1.4918    3.0560 H   0  0  0  0  0  0  0  0  0  0  0  0
    2.7355   -1.3208    3.9475 H   0  0  0  0  0  0  0  0  0  0  0  0
    1.4066   -6.0443    7.8964 H   0  0  0  0  0  0  0  0  0  0  0  0
    4.0840   -5.8542    6.8391 H   0  0  0  0  0  0  0  0  0  0  0  0
    3.2176   -7.2261    7.4272 H   0  0  0  0  0  0  0  0  0  0  0  0
    4.3446   -8.4083    4.2128 H   0  0  0  0  0  0  0  0  0  0  0  0
    4.3302   -8.6602    5.9452 H   0  0  0  0  0  0  0  0  0  0  0  0
    5.2180   -7.3001    5.2544 H   0  0  0  0  0  0  0  0  0  0  0  0
    0.8482   -7.3303    5.5095 H   0  0  0  0  0  0  0  0  0  0  0  0
    2.4518   -9.8352    4.9330 H   0  0  0  0  0  0  0  0  0  0  0  0
    0.7687   -9.7589    5.3154 H   0  0  0  0  0  0  0  0  0  0  0  0
    1.8474  -10.2185    2.7583 H   0  0  0  0  0  0  0  0  0  0  0  0
   -0.4225   -9.7159    1.8073 H   0  0  0  0  0  0  0  0  0  0  0  0
   -0.8711   -8.8913    3.2895 H   0  0  0  0  0  0  0  0  0  0  0  0
   -0.5667  -10.6250    3.2975 H   0  0  0  0  0  0  0  0  0  0  0  0
    2.0180   -8.0131    1.6148 H   0  0  0  0  0  0  0  0  0  0  0  0
    5.3350   -3.7430    1.2247 H   0  0  0  0  0  0  0  0  0  0  0  0
    6.1545   -4.7872    2.3789 H   0  0  0  0  0  0  0  0  0  0  0  0
    4.9908   -3.6162    2.9402 H   0  0  0  0  0  0  0  0  0  0  0  0
    4.6653   -6.0174   -0.0198 H   0  0  0  0  0  0  0  0  0  0  0  0
    3.8897   -7.2818    0.9183 H   0  0  0  0  0  0  0  0  0  0  0  0
    5.5365   -6.8311    1.2753 H   0  0  0  0  0  0  0  0  0  0  0  0
    2.9993   -3.9663    0.7815 H   0  0  0  0  0  0  0  0  0  0  0  0
    2.2568   -5.9505    0.1997 H   0  0  0  0  0  0  0  0  0  0  0  0
    2.8450   -3.0944    2.8886 H   0  0  0  0  0  0  0  0  0  0  0  0
    1.2135   -3.4264    2.4663 H   0  0  0  0  0  0  0  0  0  0  0  0
    0.8929   -4.9842    4.0101 H   0  0  0  0  0  0  0  0  0  0  0  0
    3.5086   -2.7546    6.5968 H   0  0  0  0  0  0  0  0  0  0  0  0
    3.9416   -2.6521    4.9184 H   0  0  0  0  0  0  0  0  0  0  0  0
    4.1773   -4.1238    5.7321 H   0  0  0  0  0  0  0  0  0  0  0  0
  1  2  1  0
  1 35  1  0
  1 36  1  0
  1 37  1  0
  2  8  2  0
  2  3  1  0
  3  4  1  0
  3  5  2  0
  4 38  1  0
  5  6  1  0
  5 39  1  0
  6 33  1  0
  6  7  2  0
  7  8  1  0
  7 10  1  0
  8  9  1  0
 10 11  2  0
 10 12  1  0
 12 13  1  0
 13 33  1  0
 13 14  2  0
 14 15  1  0
 14 40  1  0
 15 16  1  0
 15 41  1  0
 15 42  1  0
 16 24  1  0
 16 17  1  6
 16 18  1  0
 17 43  1  0
 17 44  1  0
 17 45  1  0
 18 23  1  0
 18 19  1  0
 18 46  1  1
 19 20  1  0
 19 47  1  0
 19 48  1  0
 20 21  1  0
 20 22  1  0
 20 49  1  6
 21 50  1  0
 21 51  1  0
 21 52  1  0
 22 23  2  0
 22 53  1  0
 23 24  1  0
 24 32  1  0
 24 25  1  6
 25 26  1  0
 26 27  1  0
 26 28  1  0
 26 29  1  0
 27 54  1  0
 27 55  1  0
 27 56  1  0
 28 57  1  0
 28 58  1  0
 28 59  1  0
 29 30  1  0
 29 31  1  0
 29 60  1  6
 30 61  1  0
 31 32  1  0
 31 62  1  0
 31 63  1  0
 32 33  1  0
 32 64  1  6
 33 34  1  1
 34 65  1  0
 34 66  1  0
 34 67  1  0
M  CHG  1   9  -1
M  END
>  <i_m_ct_stereo_status>  (105) 
1

>  <s_m_source_file>  (105) 
/var/tmp/pbs.5076255.sched01/tmpgqtxr8g4/0xtbcsf6k.sdf

>  <i_m_source_file_index>  (105) 
42

>  <i_lp_mmshare_version>  (105) 
48012

>  <i_f3d_flags>  (105) 
0

>  <s_epik_input>  (105) 
W09IXWMoW2NIXTEpYyhbQ0gzXSljKFtPSF0pYyhDKD1PKU8yKWMxW0NAXShbQ0gzXSkoW0NASF0zW0NIMl1bQ0BIXShbT0hdKUMoTzQpKFtDSDNdKVtDSDNdKUMyPVtDSF1bQ0gyXVtDQEBdKFtDQEBdMzQ1KShbQ0gzXSlbQ0BIXTZDNT1bQ0hdW0NAQEhdKFtDSDJdNilbQ0gzXQ==

>  <s_epik_cmdline>  (105) 
J2VwaWtfcHl0aG9uJywgJy1waHQnLCAnMi4wJywgJy1waCcsICc3LjAnLCAnLXRuJywgJzgnLCAnLW1hJywgJzIwMCcsICctaW1hZScsICc8aW5maWxlLm1hZT4nLCAnLW9tYWUnLCAnPG91dGZpbGUubWFlPic=

>  <r_epik_Ionization_Penalty>  (105) 
1.36261

>  <r_epik_Ionization_Penalty_Charging>  (105) 
1.36171

>  <r_epik_Ionization_Penalty_Neutral>  (105) 
0.000904906

>  <r_epik_State_Penalty>  (105) 
1.5086

>  <r_epik_Charging_Adjusted_Penalty>  (105) 
2.87031

>  <i_epik_Tot_Q>  (105) 
-1

>  <i_epik_Tot_abs_Q>  (105) 
1

>  <s_lp_Force_Field>  (105) 
OPLS3e

>  <r_lp_Energy>  (105) 
75.0247

>  <b_lp_Chiralities_Consistent>  (105) 
1

>  <s_lp_Variant>  (105) 
25:0-3

>  <s_i_glide_gridfile>  (105) 
pfpi4k_grid

>  <i_i_glide_lignum>  (105) 
42

>  <i_i_glide_rotatable_bonds>  (105) 
2

>  <r_i_docking_score>  (105) 
-2.27756

>  <r_i_glide_ligand_efficiency>  (105) 
-0.0669869

>  <r_i_glide_ligand_efficiency_sa>  (105) 
-0.217012

>  <r_i_glide_ligand_efficiency_ln>  (105) 
-0.503176

>  <r_i_glide_gscore>  (105) 
-2.27756

>  <r_i_glide_lipo>  (105) 
-0.145614

>  <r_i_glide_hbond>  (105) 
-0.067352

>  <r_i_glide_metal>  (105) 
-0

>  <r_i_glide_rewards>  (105) 
-0.234832

>  <r_i_glide_evdw>  (105) 
-20.3227

>  <r_i_glide_ecoul>  (105) 
-5.2177

>  <r_i_glide_erotb>  (105) 
0

>  <r_i_glide_esite>  (105) 
-0.030968

>  <r_i_glide_emodel>  (105) 
-31.39

>  <r_i_glide_energy>  (105) 
-25.5404

>  <r_i_glide_einternal>  (105) 
0.371729

>  <r_i_glide_intrahb_reward>  (105) 
-0

>  <i_i_glide_confnum>  (105) 
1

>  <i_i_glide_posenum>  (105) 
34

>  <r_i_glide_eff_state_penalty>  (105) 
0

>  <ligand_id>  (105) 
25

>  <original_smiles>  (105) 
Cc1c(O)cc2c(c1O)C(=O)OC1=CCC3(C)C4CC(C)C=C4C34OC(C)(C)C(O)CC4C12C

>  <smiles>  (105) 
[H]Oc1c([H])c2c(c([O-])c1C([H])([H])[H])C(=O)OC1=C([H])C([H])([H])C3(C([H])([H])[H])C4([H])C(=C([H])C([H])(C([H])([H])[H])C4([H])[H])C34OC(C([H])([H])[H])(C([H])([H])[H])C([H])(O[H])C([H])([H])C4([H])C12C([H])([H])[H]

$$$$
25:2:1
     RDKit          3D

 67 72  0  0  1  0  0  0  0  0999 V2000
   -1.2577    0.9358    4.0294 C   0  0  0  0  0  0  0  0  0  0  0  0
   -0.3962   -0.2810    4.3488 C   0  0  0  0  0  0  0  0  0  0  0  0
    0.9193   -0.3899    3.8348 C   0  0  0  0  0  0  0  0  0  0  0  0
    1.4396    0.5627    3.0208 O   0  0  0  0  0  0  0  0  0  0  0  0
    1.7011   -1.5070    4.1518 C   0  0  0  0  0  0  0  0  0  0  0  0
    1.2246   -2.5764    4.9589 C   0  0  0  0  0  0  0  0  0  0  0  0
   -0.0849   -2.4368    5.5206 C   0  0  0  0  0  0  0  0  0  0  0  0
   -0.8974   -1.3033    5.1910 C   0  0  0  0  0  0  0  0  0  0  0  0
   -2.1829   -1.1334    5.6696 O   0  0  0  0  0  0  0  0  0  0  0  0
   -0.5497   -3.4508    6.5038 C   0  0  0  0  0  0  0  0  0  0  0  0
   -1.7259   -3.5917    6.8702 O   0  0  0  0  0  0  0  0  0  0  0  0
    0.4126   -4.1676    7.0927 O   0  0  0  0  0  0  0  0  0  0  0  0
    1.5691   -4.5927    6.4791 C   0  0  0  0  0  0  0  0  0  0  0  0
    2.1323   -5.6716    7.0643 C   0  0  0  0  0  0  0  0  0  0  0  0
    3.3311   -6.4820    6.6379 C   0  0  0  0  0  0  0  0  0  0  0  0
    3.1391   -7.1321    5.2700 C   0  0  1  0  0  0  0  0  0  0  0  0
    4.4020   -8.0067    5.1297 C   0  0  0  0  0  0  0  0  0  0  0  0
    1.7950   -7.9189    5.1020 C   0  0  2  0  0  0  0  0  0  0  0  0
    1.6341   -9.4425    4.8770 C   0  0  0  0  0  0  0  0  0  0  0  0
    1.2637   -9.6454    3.3840 C   0  0  1  0  0  0  0  0  0  0  0  0
   -0.2212   -9.9221    3.1543 C   0  0  0  0  0  0  0  0  0  0  0  0
    1.6913   -8.3477    2.7516 C   0  0  0  0  0  0  0  0  0  0  0  0
    1.9343   -7.4502    3.7110 C   0  0  0  0  0  0  0  0  0  0  0  0
    2.7975   -6.2187    4.0030 C   0  0  2  0  0  0  0  0  0  0  0  0
    3.9848   -6.1573    3.1973 O   0  0  0  0  0  0  0  0  0  0  0  0
    3.9691   -5.6353    1.8603 C   0  0  0  0  0  0  0  0  0  0  0  0
    5.0865   -4.5686    1.8987 C   0  0  0  0  0  0  0  0  0  0  0  0
    4.4179   -6.7350    0.8742 C   0  0  0  0  0  0  0  0  0  0  0  0
    2.6160   -4.9722    1.4758 C   0  0  1  0  0  0  0  0  0  0  0  0
    1.6411   -5.8534    0.9637 O   0  0  0  0  0  0  0  0  0  0  0  0
    2.0739   -4.1524    2.6430 C   0  0  0  0  0  0  0  0  0  0  0  0
    1.9525   -4.8768    4.0020 C   0  0  2  0  0  0  0  0  0  0  0  0
    2.0652   -3.8621    5.2164 C   0  0  1  0  0  0  0  0  0  0  0  0
    3.5423   -3.4095    5.4565 C   0  0  0  0  0  0  0  0  0  0  0  0
   -0.7801    1.6547    3.3751 H   0  0  0  0  0  0  0  0  0  0  0  0
   -1.5547    1.4488    4.9420 H   0  0  0  0  0  0  0  0  0  0  0  0
   -2.1668    0.6124    3.5420 H   0  0  0  0  0  0  0  0  0  0  0  0
    0.8105    1.2284    2.7752 H   0  0  0  0  0  0  0  0  0  0  0  0
    2.6896   -1.5138    3.7064 H   0  0  0  0  0  0  0  0  0  0  0  0
    1.6291   -6.0680    7.9299 H   0  0  0  0  0  0  0  0  0  0  0  0
    4.2461   -5.8999    6.7150 H   0  0  0  0  0  0  0  0  0  0  0  0
    3.4304   -7.2499    7.4114 H   0  0  0  0  0  0  0  0  0  0  0  0
    4.3971   -8.5656    4.1935 H   0  0  0  0  0  0  0  0  0  0  0  0
    4.4792   -8.7410    5.9357 H   0  0  0  0  0  0  0  0  0  0  0  0
    5.3132   -7.4050    5.1399 H   0  0  0  0  0  0  0  0  0  0  0  0
    0.9590   -7.4643    5.6304 H   0  0  0  0  0  0  0  0  0  0  0  0
    2.5610   -9.9745    5.0787 H   0  0  0  0  0  0  0  0  0  0  0  0
    0.9030   -9.8972    5.5436 H   0  0  0  0  0  0  0  0  0  0  0  0
    1.8483  -10.4616    2.9611 H   0  0  0  0  0  0  0  0  0  0  0  0
   -0.4576  -10.0315    2.0928 H   0  0  0  0  0  0  0  0  0  0  0  0
   -0.8504   -9.1301    3.5614 H   0  0  0  0  0  0  0  0  0  0  0  0
   -0.5016  -10.8411    3.6645 H   0  0  0  0  0  0  0  0  0  0  0  0
    1.9453   -8.3334    1.7069 H   0  0  0  0  0  0  0  0  0  0  0  0
    5.1679   -4.0272    0.9564 H   0  0  0  0  0  0  0  0  0  0  0  0
    6.0606   -5.0134    2.1069 H   0  0  0  0  0  0  0  0  0  0  0  0
    4.9184   -3.8292    2.6791 H   0  0  0  0  0  0  0  0  0  0  0  0
    4.4612   -6.3610   -0.1498 H   0  0  0  0  0  0  0  0  0  0  0  0
    3.7532   -7.5916    0.8785 H   0  0  0  0  0  0  0  0  0  0  0  0
    5.4093   -7.1110    1.1324 H   0  0  0  0  0  0  0  0  0  0  0  0
    2.8040   -4.2910    0.6464 H   0  0  0  0  0  0  0  0  0  0  0  0
    1.6554   -6.6358    1.5063 H   0  0  0  0  0  0  0  0  0  0  0  0
    2.7731   -3.3319    2.7246 H   0  0  0  0  0  0  0  0  0  0  0  0
    1.1172   -3.6958    2.4324 H   0  0  0  0  0  0  0  0  0  0  0  0
    0.9057   -5.1867    4.0342 H   0  0  0  0  0  0  0  0  0  0  0  0
    3.6233   -2.8175    6.3699 H   0  0  0  0  0  0  0  0  0  0  0  0
    3.9635   -2.7864    4.6689 H   0  0  0  0  0  0  0  0  0  0  0  0
    4.2611   -4.2196    5.5324 H   0  0  0  0  0  0  0  0  0  0  0  0
  1  2  1  0
  1 35  1  0
  1 36  1  0
  1 37  1  0
  2  8  2  0
  2  3  1  0
  3  4  1  0
  3  5  2  0
  4 38  1  0
  5  6  1  0
  5 39  1  0
  6 33  1  0
  6  7  2  0
  7  8  1  0
  7 10  1  0
  8  9  1  0
 10 11  2  0
 10 12  1  0
 12 13  1  0
 13 33  1  0
 13 14  2  0
 14 15  1  0
 14 40  1  0
 15 16  1  0
 15 41  1  0
 15 42  1  0
 16 24  1  0
 16 17  1  6
 16 18  1  0
 17 43  1  0
 17 44  1  0
 17 45  1  0
 18 23  1  0
 18 19  1  0
 18 46  1  1
 19 20  1  0
 19 47  1  0
 19 48  1  0
 20 21  1  0
 20 22  1  0
 20 49  1  6
 21 50  1  0
 21 51  1  0
 21 52  1  0
 22 23  2  0
 22 53  1  0
 23 24  1  0
 24 32  1  0
 24 25  1  6
 25 26  1  0
 26 27  1  0
 26 28  1  0
 26 29  1  0
 27 54  1  0
 27 55  1  0
 27 56  1  0
 28 57  1  0
 28 58  1  0
 28 59  1  0
 29 30  1  0
 29 31  1  0
 29 60  1  6
 30 61  1  0
 31 32  1  0
 31 62  1  0
 31 63  1  0
 32 33  1  0
 32 64  1  6
 33 34  1  1
 34 65  1  0
 34 66  1  0
 34 67  1  0
M  CHG  1   9  -1
M  END
>  <i_m_ct_stereo_status>  (106) 
1

>  <s_m_source_file>  (106) 
/var/tmp/pbs.5076255.sched01/tmpgqtxr8g4/0xtbcsf6k.sdf

>  <i_m_source_file_index>  (106) 
42

>  <i_lp_mmshare_version>  (106) 
48012

>  <i_f3d_flags>  (106) 
0

>  <s_epik_input>  (106) 
W09IXWMoW2NIXTEpYyhbQ0gzXSljKFtPSF0pYyhDKD1PKU8yKWMxW0NAXShbQ0gzXSkoW0NASF0zW0NIMl1bQ0BIXShbT0hdKUMoTzQpKFtDSDNdKVtDSDNdKUMyPVtDSF1bQ0gyXVtDQEBdKFtDQEBdMzQ1KShbQ0gzXSlbQ0BIXTZDNT1bQ0hdW0NAQEhdKFtDSDJdNilbQ0gzXQ==

>  <s_epik_cmdline>  (106) 
J2VwaWtfcHl0aG9uJywgJy1waHQnLCAnMi4wJywgJy1waCcsICc3LjAnLCAnLXRuJywgJzgnLCAnLW1hJywgJzIwMCcsICctaW1hZScsICc8aW5maWxlLm1hZT4nLCAnLW9tYWUnLCAnPG91dGZpbGUubWFlPic=

>  <r_epik_Ionization_Penalty>  (106) 
1.36261

>  <r_epik_Ionization_Penalty_Charging>  (106) 
1.36171

>  <r_epik_Ionization_Penalty_Neutral>  (106) 
0.000904906

>  <r_epik_State_Penalty>  (106) 
1.5086

>  <r_epik_Charging_Adjusted_Penalty>  (106) 
2.87031

>  <i_epik_Tot_Q>  (106) 
-1

>  <i_epik_Tot_abs_Q>  (106) 
1

>  <s_lp_Force_Field>  (106) 
OPLS3e

>  <r_lp_Energy>  (106) 
75.0247

>  <b_lp_Chiralities_Consistent>  (106) 
1

>  <s_lp_Variant>  (106) 
25:0-3

>  <s_i_glide_gridfile>  (106) 
pfpi4k_grid

>  <i_i_glide_lignum>  (106) 
42

>  <i_i_glide_rotatable_bonds>  (106) 
2

>  <r_i_docking_score>  (106) 
-2.27334

>  <r_i_glide_ligand_efficiency>  (106) 
-0.0668628

>  <r_i_glide_ligand_efficiency_sa>  (106) 
-0.21661

>  <r_i_glide_ligand_efficiency_ln>  (106) 
-0.502244

>  <r_i_glide_gscore>  (106) 
-2.27334

>  <r_i_glide_lipo>  (106) 
-0.167272

>  <r_i_glide_hbond>  (106) 
-0.04601

>  <r_i_glide_metal>  (106) 
-0

>  <r_i_glide_rewards>  (106) 
-0.234832

>  <r_i_glide_evdw>  (106) 
-20.7389

>  <r_i_glide_ecoul>  (106) 
-5.07687

>  <r_i_glide_erotb>  (106) 
0

>  <r_i_glide_esite>  (106) 
-0.0267486

>  <r_i_glide_emodel>  (106) 
-31.4687

>  <r_i_glide_energy>  (106) 
-25.8157

>  <r_i_glide_einternal>  (106) 
0.394116

>  <r_i_glide_intrahb_reward>  (106) 
-0

>  <i_i_glide_confnum>  (106) 
2

>  <i_i_glide_posenum>  (106) 
22

>  <r_i_glide_eff_state_penalty>  (106) 
0

>  <ligand_id>  (106) 
25

>  <original_smiles>  (106) 
Cc1c(O)cc2c(c1O)C(=O)OC1=CCC3(C)C4CC(C)C=C4C34OC(C)(C)C(O)CC4C12C

>  <smiles>  (106) 
[H]Oc1c([H])c2c(c([O-])c1C([H])([H])[H])C(=O)OC1=C([H])C([H])([H])C3(C([H])([H])[H])C4([H])C(=C([H])C([H])(C([H])([H])[H])C4([H])[H])C34OC(C([H])([H])[H])(C([H])([H])[H])C([H])(O[H])C([H])([H])C4([H])C12C([H])([H])[H]

$$$$
25:2:2
     RDKit          3D

 67 72  0  0  1  0  0  0  0  0999 V2000
   -1.1308    0.8511    4.0459 C   0  0  0  0  0  0  0  0  0  0  0  0
   -0.2352   -0.3421    4.3574 C   0  0  0  0  0  0  0  0  0  0  0  0
    1.0636   -0.4238    3.8254 C   0  0  0  0  0  0  0  0  0  0  0  0
    1.5522    0.5525    3.0104 O   0  0  0  0  0  0  0  0  0  0  0  0
    1.8739   -1.5327    4.1178 C   0  0  0  0  0  0  0  0  0  0  0  0
    1.4253   -2.6082    4.9277 C   0  0  0  0  0  0  0  0  0  0  0  0
    0.1312   -2.4921    5.5100 C   0  0  0  0  0  0  0  0  0  0  0  0
   -0.7129   -1.3784    5.1892 C   0  0  0  0  0  0  0  0  0  0  0  0
   -1.9947   -1.2523    5.6750 O   0  0  0  0  0  0  0  0  0  0  0  0
   -0.2970   -3.5194    6.5007 C   0  0  0  0  0  0  0  0  0  0  0  0
   -1.4508   -3.6759    6.9056 O   0  0  0  0  0  0  0  0  0  0  0  0
    0.6908   -4.2355    7.0600 O   0  0  0  0  0  0  0  0  0  0  0  0
    1.8459   -4.6159    6.4297 C   0  0  0  0  0  0  0  0  0  0  0  0
    2.4349   -5.6833    7.0076 C   0  0  0  0  0  0  0  0  0  0  0  0
    3.6391   -6.4655    6.5593 C   0  0  0  0  0  0  0  0  0  0  0  0
    3.4495   -7.1233    5.1877 C   0  0  1  0  0  0  0  0  0  0  0  0
    4.7296   -7.9711    5.0240 C   0  0  0  0  0  0  0  0  0  0  0  0
    2.1208   -7.9401    5.0446 C   0  0  2  0  0  0  0  0  0  0  0  0
    1.9891   -9.4625    4.8117 C   0  0  0  0  0  0  0  0  0  0  0  0
    1.5921   -9.6745    3.3220 C   0  0  1  0  0  0  0  0  0  0  0  0
    0.1057   -9.9893    3.1228 C   0  0  0  0  0  0  0  0  0  0  0  0
    1.9875   -8.3627    2.6897 C   0  0  0  0  0  0  0  0  0  0  0  0
    2.2270   -7.4710    3.6508 C   0  0  0  0  0  0  0  0  0  0  0  0
    3.0647   -6.2185    3.9233 C   0  0  2  0  0  0  0  0  0  0  0  0
    4.2452   -6.1150    3.1103 O   0  0  0  0  0  0  0  0  0  0  0  0
    4.2006   -5.5933    1.7745 C   0  0  0  0  0  0  0  0  0  0  0  0
    5.2943   -4.5010    1.8016 C   0  0  0  0  0  0  0  0  0  0  0  0
    4.6523   -6.6804    0.7780 C   0  0  0  0  0  0  0  0  0  0  0  0
    2.8317   -4.9602    1.4089 C   0  0  1  0  0  0  0  0  0  0  0  0
    1.8653   -5.8499    0.8859 O   0  0  0  0  0  0  0  0  0  0  0  0
    2.2812   -4.1564    2.5806 C   0  0  0  0  0  0  0  0  0  0  0  0
    2.1976   -4.8910    3.9404 C   0  0  2  0  0  0  0  0  0  0  0  0
    2.3110   -3.8711    5.1619 C   0  0  1  0  0  0  0  0  0  0  0  0
    3.7817   -3.3882    5.3868 C   0  0  0  0  0  0  0  0  0  0  0  0
   -0.6665    1.5831    3.3853 H   0  0  0  0  0  0  0  0  0  0  0  0
   -1.4289    1.3605    4.9602 H   0  0  0  0  0  0  0  0  0  0  0  0
   -2.0324    0.5007    3.5596 H   0  0  0  0  0  0  0  0  0  0  0  0
    2.3999    0.3617    2.6400 H   0  0  0  0  0  0  0  0  0  0  0  0
    2.8507   -1.5193    3.6644 H   0  0  0  0  0  0  0  0  0  0  0  0
    1.9494   -6.0992    7.8795 H   0  0  0  0  0  0  0  0  0  0  0  0
    4.5472   -5.8700    6.6262 H   0  0  0  0  0  0  0  0  0  0  0  0
    3.7714   -7.2394    7.3217 H   0  0  0  0  0  0  0  0  0  0  0  0
    4.7225   -8.5269    4.0854 H   0  0  0  0  0  0  0  0  0  0  0  0
    4.8333   -8.7051    5.8264 H   0  0  0  0  0  0  0  0  0  0  0  0
    5.6255   -7.3482    5.0223 H   0  0  0  0  0  0  0  0  0  0  0  0
    1.2767   -7.5095    5.5847 H   0  0  0  0  0  0  0  0  0  0  0  0
    2.9340   -9.9737    4.9940 H   0  0  0  0  0  0  0  0  0  0  0  0
    1.2779   -9.9343    5.4872 H   0  0  0  0  0  0  0  0  0  0  0  0
    2.1929  -10.4721    2.8879 H   0  0  0  0  0  0  0  0  0  0  0  0
   -0.1393  -10.0868    2.0680 H   0  0  0  0  0  0  0  0  0  0  0  0
   -0.5263   -9.2066    3.5404 H   0  0  0  0  0  0  0  0  0  0  0  0
   -0.1667  -10.9278    3.6058 H   0  0  0  0  0  0  0  0  0  0  0  0
    2.2119   -8.2925    1.6386 H   0  0  0  0  0  0  0  0  0  0  0  0
    5.3508   -3.9574    0.8583 H   0  0  0  0  0  0  0  0  0  0  0  0
    6.2794   -4.9262    1.9939 H   0  0  0  0  0  0  0  0  0  0  0  0
    5.1193   -3.7692    2.5892 H   0  0  0  0  0  0  0  0  0  0  0  0
    4.6729   -6.3027   -0.2461 H   0  0  0  0  0  0  0  0  0  0  0  0
    4.0044   -7.5524    0.7924 H   0  0  0  0  0  0  0  0  0  0  0  0
    5.6558   -7.0346    1.0159 H   0  0  0  0  0  0  0  0  0  0  0  0
    2.9992   -4.2693    0.5820 H   0  0  0  0  0  0  0  0  0  0  0  0
    2.2570   -6.2951    0.1470 H   0  0  0  0  0  0  0  0  0  0  0  0
    2.9662   -3.3237    2.6578 H   0  0  0  0  0  0  0  0  0  0  0  0
    1.3211   -3.7141    2.3393 H   0  0  0  0  0  0  0  0  0  0  0  0
    1.1590   -5.2185    3.9906 H   0  0  0  0  0  0  0  0  0  0  0  0
    3.8591   -2.8017    6.3044 H   0  0  0  0  0  0  0  0  0  0  0  0
    4.1763   -2.7589    4.5968 H   0  0  0  0  0  0  0  0  0  0  0  0
    4.5121   -4.1847    5.4471 H   0  0  0  0  0  0  0  0  0  0  0  0
  1  2  1  0
  1 35  1  0
  1 36  1  0
  1 37  1  0
  2  8  2  0
  2  3  1  0
  3  4  1  0
  3  5  2  0
  4 38  1  0
  5  6  1  0
  5 39  1  0
  6 33  1  0
  6  7  2  0
  7  8  1  0
  7 10  1  0
  8  9  1  0
 10 11  2  0
 10 12  1  0
 12 13  1  0
 13 33  1  0
 13 14  2  0
 14 15  1  0
 14 40  1  0
 15 16  1  0
 15 41  1  0
 15 42  1  0
 16 24  1  0
 16 17  1  6
 16 18  1  0
 17 43  1  0
 17 44  1  0
 17 45  1  0
 18 23  1  0
 18 19  1  0
 18 46  1  1
 19 20  1  0
 19 47  1  0
 19 48  1  0
 20 21  1  0
 20 22  1  0
 20 49  1  6
 21 50  1  0
 21 51  1  0
 21 52  1  0
 22 23  2  0
 22 53  1  0
 23 24  1  0
 24 32  1  0
 24 25  1  6
 25 26  1  0
 26 27  1  0
 26 28  1  0
 26 29  1  0
 27 54  1  0
 27 55  1  0
 27 56  1  0
 28 57  1  0
 28 58  1  0
 28 59  1  0
 29 30  1  0
 29 31  1  0
 29 60  1  6
 30 61  1  0
 31 32  1  0
 31 62  1  0
 31 63  1  0
 32 33  1  0
 32 64  1  6
 33 34  1  1
 34 65  1  0
 34 66  1  0
 34 67  1  0
M  CHG  1   9  -1
M  END
>  <i_m_ct_stereo_status>  (107) 
1

>  <s_m_source_file>  (107) 
/var/tmp/pbs.5076255.sched01/tmpgqtxr8g4/0xtbcsf6k.sdf

>  <i_m_source_file_index>  (107) 
42

>  <i_lp_mmshare_version>  (107) 
48012

>  <i_f3d_flags>  (107) 
0

>  <s_epik_input>  (107) 
W09IXWMoW2NIXTEpYyhbQ0gzXSljKFtPSF0pYyhDKD1PKU8yKWMxW0NAXShbQ0gzXSkoW0NASF0zW0NIMl1bQ0BIXShbT0hdKUMoTzQpKFtDSDNdKVtDSDNdKUMyPVtDSF1bQ0gyXVtDQEBdKFtDQEBdMzQ1KShbQ0gzXSlbQ0BIXTZDNT1bQ0hdW0NAQEhdKFtDSDJdNilbQ0gzXQ==

>  <s_epik_cmdline>  (107) 
J2VwaWtfcHl0aG9uJywgJy1waHQnLCAnMi4wJywgJy1waCcsICc3LjAnLCAnLXRuJywgJzgnLCAnLW1hJywgJzIwMCcsICctaW1hZScsICc8aW5maWxlLm1hZT4nLCAnLW9tYWUnLCAnPG91dGZpbGUubWFlPic=

>  <r_epik_Ionization_Penalty>  (107) 
1.36261

>  <r_epik_Ionization_Penalty_Charging>  (107) 
1.36171

>  <r_epik_Ionization_Penalty_Neutral>  (107) 
0.000904906

>  <r_epik_State_Penalty>  (107) 
1.5086

>  <r_epik_Charging_Adjusted_Penalty>  (107) 
2.87031

>  <i_epik_Tot_Q>  (107) 
-1

>  <i_epik_Tot_abs_Q>  (107) 
1

>  <s_lp_Force_Field>  (107) 
OPLS3e

>  <r_lp_Energy>  (107) 
75.0247

>  <b_lp_Chiralities_Consistent>  (107) 
1

>  <s_lp_Variant>  (107) 
25:0-3

>  <s_i_glide_gridfile>  (107) 
pfpi4k_grid

>  <i_i_glide_lignum>  (107) 
42

>  <i_i_glide_rotatable_bonds>  (107) 
2

>  <r_i_docking_score>  (107) 
-2.1578

>  <r_i_glide_ligand_efficiency>  (107) 
-0.0634646

>  <r_i_glide_ligand_efficiency_sa>  (107) 
-0.205601

>  <r_i_glide_ligand_efficiency_ln>  (107) 
-0.476718

>  <r_i_glide_gscore>  (107) 
-2.1578

>  <r_i_glide_lipo>  (107) 
-0.183367

>  <r_i_glide_hbond>  (107) 
-0.02833

>  <r_i_glide_metal>  (107) 
-0

>  <r_i_glide_rewards>  (107) 
-0.234832

>  <r_i_glide_evdw>  (107) 
-21.6648

>  <r_i_glide_ecoul>  (107) 
-4.04969

>  <r_i_glide_erotb>  (107) 
0

>  <r_i_glide_esite>  (107) 
-0.0205762

>  <r_i_glide_emodel>  (107) 
-31.3091

>  <r_i_glide_energy>  (107) 
-25.7145

>  <r_i_glide_einternal>  (107) 
0.358821

>  <r_i_glide_intrahb_reward>  (107) 
-0

>  <i_i_glide_confnum>  (107) 
1

>  <i_i_glide_posenum>  (107) 
26

>  <r_i_glide_eff_state_penalty>  (107) 
0

>  <ligand_id>  (107) 
25

>  <original_smiles>  (107) 
Cc1c(O)cc2c(c1O)C(=O)OC1=CCC3(C)C4CC(C)C=C4C34OC(C)(C)C(O)CC4C12C

>  <smiles>  (107) 
[H]Oc1c([H])c2c(c([O-])c1C([H])([H])[H])C(=O)OC1=C([H])C([H])([H])C3(C([H])([H])[H])C4([H])C(=C([H])C([H])(C([H])([H])[H])C4([H])[H])C34OC(C([H])([H])[H])(C([H])([H])[H])C([H])(O[H])C([H])([H])C4([H])C12C([H])([H])[H]

$$$$
27:0:0
     RDKit          3D

 45 49  0  0  1  0  0  0  0  0999 V2000
   -0.4529   -7.6552    2.0290 C   0  0  0  0  0  0  0  0  0  0  0  0
    0.7511   -7.2978    2.5132 C   0  0  0  0  0  0  0  0  0  0  0  0
    1.7626   -6.6390    1.6789 C   0  0  0  0  0  0  0  0  0  0  0  0
    1.4919   -6.2967    0.5173 O   0  0  0  0  0  0  0  0  0  0  0  0
    3.0047   -6.4213    2.2300 N   0  0  0  0  0  0  0  0  0  0  0  0
    3.3517   -6.7264    3.6451 C   0  0  0  0  0  0  0  0  0  0  0  0
    4.1107   -5.7948    1.4256 C   0  0  2  0  0  0  0  0  0  0  0  0
    5.5852   -6.1440    1.9140 C   0  0  0  0  0  0  0  0  0  0  0  0
    6.7272   -5.2288    1.4239 C   0  0  0  0  0  0  0  0  0  0  0  0
    6.3256   -4.5356    0.1235 C   0  0  2  0  0  0  0  0  0  0  0  0
    7.2793   -3.4617   -0.4638 C   0  0  2  0  0  0  0  0  0  0  0  0
    7.0137   -2.2902    0.4536 C   0  0  0  0  0  0  0  0  0  0  0  0
    5.7808   -2.3884    0.9575 C   0  0  0  0  0  0  0  0  0  0  0  0
    5.1223   -3.6396    0.4209 C   0  0  1  0  0  0  0  0  0  0  0  0
    4.5023   -3.3513   -0.9030 C   0  0  0  0  0  0  0  0  0  0  0  0
    5.2379   -3.0276   -2.0614 C   0  0  0  0  0  0  0  0  0  0  0  0
    4.4536   -2.7741   -3.2125 C   0  0  0  0  0  0  0  0  0  0  0  0
    3.0422   -2.8996   -3.1407 C   0  0  0  0  0  0  0  0  0  0  0  0
    2.3957   -3.2851   -1.9335 C   0  0  0  0  0  0  0  0  0  0  0  0
    1.0509   -3.4658   -1.9157 O   0  0  0  0  0  0  0  0  0  0  0  0
    3.1512   -3.5051   -0.7626 C   0  0  0  0  0  0  0  0  0  0  0  0
    2.7631   -3.8917    0.4984 O   0  0  0  0  0  0  0  0  0  0  0  0
    3.9439   -4.2424    1.2583 C   0  0  1  0  0  0  0  0  0  0  0  0
    6.7682   -3.0776   -1.8939 C   0  0  0  0  0  0  0  0  0  0  0  0
   -0.7577   -7.4774    1.0125 H   0  0  0  0  0  0  0  0  0  0  0  0
   -1.1362   -8.1613    2.6947 H   0  0  0  0  0  0  0  0  0  0  0  0
    0.8728   -7.5654    3.5602 H   0  0  0  0  0  0  0  0  0  0  0  0
    2.7007   -7.3817    4.2281 H   0  0  0  0  0  0  0  0  0  0  0  0
    3.4392   -5.7832    4.1870 H   0  0  0  0  0  0  0  0  0  0  0  0
    4.2653   -7.3052    3.7346 H   0  0  0  0  0  0  0  0  0  0  0  0
    4.0545   -6.2341    0.4187 H   0  0  0  0  0  0  0  0  0  0  0  0
    5.7384   -6.0906    2.9922 H   0  0  0  0  0  0  0  0  0  0  0  0
    5.8096   -7.1736    1.6332 H   0  0  0  0  0  0  0  0  0  0  0  0
    6.9186   -4.4945    2.2076 H   0  0  0  0  0  0  0  0  0  0  0  0
    7.6537   -5.7967    1.3308 H   0  0  0  0  0  0  0  0  0  0  0  0
    6.0835   -5.3181   -0.5948 H   0  0  0  0  0  0  0  0  0  0  0  0
    8.3311   -3.7558   -0.4477 H   0  0  0  0  0  0  0  0  0  0  0  0
    7.7311   -1.5164    0.6701 H   0  0  0  0  0  0  0  0  0  0  0  0
    5.3183   -1.7194    1.6648 H   0  0  0  0  0  0  0  0  0  0  0  0
    4.9314   -2.5062   -4.1432 H   0  0  0  0  0  0  0  0  0  0  0  0
    2.4479   -2.7102   -4.0196 H   0  0  0  0  0  0  0  0  0  0  0  0
    0.6808   -3.7369   -2.7424 H   0  0  0  0  0  0  0  0  0  0  0  0
    3.8670   -3.7694    2.2389 H   0  0  0  0  0  0  0  0  0  0  0  0
    7.2057   -2.1392   -2.2197 H   0  0  0  0  0  0  0  0  0  0  0  0
    7.1116   -3.8303   -2.5972 H   0  0  0  0  0  0  0  0  0  0  0  0
  1  2  2  0
  1 25  1  0
  1 26  1  0
  2  3  1  0
  2 27  1  0
  3  4  2  0
  3  5  1  0
  5  6  1  0
  5  7  1  0
  6 28  1  0
  6 29  1  0
  6 30  1  0
  7 23  1  0
  7  8  1  0
  7 31  1  6
  8  9  1  0
  8 32  1  0
  8 33  1  0
  9 10  1  0
  9 34  1  0
  9 35  1  0
 10 14  1  0
 10 11  1  0
 10 36  1  6
 11 24  1  0
 11 12  1  0
 11 37  1  6
 12 13  2  0
 12 38  1  0
 14 13  1  1
 13 39  1  0
 14 23  1  0
 14 15  1  0
 15 21  1  0
 15 16  2  0
 16 17  1  0
 16 24  1  0
 17 18  2  0
 17 40  1  0
 18 19  1  0
 18 41  1  0
 19 20  1  0
 19 21  2  0
 20 42  1  0
 21 22  1  0
 22 23  1  0
 23 43  1  1
 24 44  1  0
 24 45  1  0
M  END
>  <i_m_ct_stereo_status>  (108) 
1

>  <s_m_source_file>  (108) 
/var/tmp/pbs.5076255.sched01/tmpb5cfx69f/43pm4c6kpw.sdf

>  <i_m_source_file_index>  (108) 
1

>  <i_lp_mmshare_version>  (108) 
48012

>  <i_f3d_flags>  (108) 
0

>  <s_epik_input>  (108) 
W0NIMl09W0NIXUMoPU8pTihbQ0gzXSlbQ0BIXShbQ0gyXVtDSDJdMSlbQ0BASF0yT2MoYyhbT0hdKVtjSF1bY0hdMyljNGMzW0NIMl1bQ0BIXShbQ0BASF0xW0NAXTI0NSlbQ0hdPVtDSF01

>  <s_epik_cmdline>  (108) 
J2VwaWtfcHl0aG9uJywgJy1waHQnLCAnMi4wJywgJy1waCcsICc3LjAnLCAnLXRuJywgJzgnLCAnLW1hJywgJzIwMCcsICctaW1hZScsICc8aW5maWxlLm1hZT4nLCAnLW9tYWUnLCAnPG91dGZpbGUubWFlPic=

>  <r_lp_tautomer_probability>  (108) 
1

>  <r_epik_Ionization_Penalty>  (108) 
0.00176097

>  <r_epik_Ionization_Penalty_Charging>  (108) 
0

>  <r_epik_Ionization_Penalty_Neutral>  (108) 
0.00176097

>  <r_epik_State_Penalty>  (108) 
0.00119174

>  <r_epik_Charging_Adjusted_Penalty>  (108) 
0.00119174

>  <i_epik_Tot_Q>  (108) 
0

>  <i_epik_Tot_abs_Q>  (108) 
0

>  <s_lp_Force_Field>  (108) 
OPLS3e

>  <r_lp_Energy>  (108) 
64.8718

>  <b_lp_Chiralities_Consistent>  (108) 
1

>  <s_lp_Variant>  (108) 
27:0-1

>  <s_i_glide_gridfile>  (108) 
pfpi4k_grid

>  <i_i_glide_lignum>  (108) 
1

>  <i_i_glide_rotatable_bonds>  (108) 
4

>  <r_i_docking_score>  (108) 
-3.86454

>  <r_i_glide_ligand_efficiency>  (108) 
-0.161023

>  <r_i_glide_ligand_efficiency_sa>  (108) 
-0.46447

>  <r_i_glide_ligand_efficiency_ln>  (108) 
-0.924963

>  <r_i_glide_gscore>  (108) 
-3.86454

>  <r_i_glide_lipo>  (108) 
-1.19251

>  <r_i_glide_hbond>  (108) 
-0.0606245

>  <r_i_glide_metal>  (108) 
-0

>  <r_i_glide_rewards>  (108) 
-1.20747

>  <r_i_glide_evdw>  (108) 
-24.2031

>  <r_i_glide_ecoul>  (108) 
-4.63639

>  <r_i_glide_erotb>  (108) 
0.536822

>  <r_i_glide_esite>  (108) 
-0.0351511

>  <r_i_glide_emodel>  (108) 
-28.7577

>  <r_i_glide_energy>  (108) 
-28.8395

>  <r_i_glide_einternal>  (108) 
12.0408

>  <r_i_glide_intrahb_reward>  (108) 
-0

>  <i_i_glide_confnum>  (108) 
2

>  <i_i_glide_posenum>  (108) 
5

>  <r_i_glide_eff_state_penalty>  (108) 
0

>  <ligand_id>  (108) 
27

>  <original_smiles>  (108) 
C=CC(=O)N(C)C1CCC2C3C=CC24c2c(ccc(O)c2OC14)C3

>  <smiles>  (108) 
[H]Oc1c([H])c([H])c2c3c1OC1([H])C34C([H])=C([H])C([H])(C2([H])[H])C4([H])C([H])([H])C([H])([H])C1([H])N(C(=O)C([H])=C([H])[H])C([H])([H])[H]

$$$$
27:0:1
     RDKit          3D

 45 49  0  0  1  0  0  0  0  0999 V2000
    1.2329   -7.0419    5.4658 C   0  0  0  0  0  0  0  0  0  0  0  0
    1.6068   -7.1482    4.1753 C   0  0  0  0  0  0  0  0  0  0  0  0
    2.6890   -6.3372    3.6079 C   0  0  0  0  0  0  0  0  0  0  0  0
    3.3432   -5.5415    4.2860 O   0  0  0  0  0  0  0  0  0  0  0  0
    2.9452   -6.5028    2.2771 N   0  0  0  0  0  0  0  0  0  0  0  0
    2.1540   -7.3616    1.3823 C   0  0  0  0  0  0  0  0  0  0  0  0
    4.0614   -5.8125    1.5650 C   0  0  2  0  0  0  0  0  0  0  0  0
    5.4855   -6.1673    2.1177 C   0  0  0  0  0  0  0  0  0  0  0  0
    6.6277   -5.2139    1.6616 C   0  0  0  0  0  0  0  0  0  0  0  0
    6.2689   -4.5252    0.3309 C   0  0  2  0  0  0  0  0  0  0  0  0
    7.2208   -3.4276   -0.2331 C   0  0  2  0  0  0  0  0  0  0  0  0
    6.9028   -2.2620    0.6716 C   0  0  0  0  0  0  0  0  0  0  0  0
    5.6577   -2.3887    1.1405 C   0  0  0  0  0  0  0  0  0  0  0  0
    5.0365   -3.6497    0.5816 C   0  0  1  0  0  0  0  0  0  0  0  0
    4.4594   -3.3720   -0.7652 C   0  0  0  0  0  0  0  0  0  0  0  0
    5.2237   -3.0168   -1.8879 C   0  0  0  0  0  0  0  0  0  0  0  0
    4.4858   -2.7699   -3.0691 C   0  0  0  0  0  0  0  0  0  0  0  0
    3.0735   -2.9180   -3.0578 C   0  0  0  0  0  0  0  0  0  0  0  0
    2.3883   -3.3414   -1.8850 C   0  0  0  0  0  0  0  0  0  0  0  0
    1.0396   -3.5359   -1.9116 O   0  0  0  0  0  0  0  0  0  0  0  0
    3.0991   -3.5856   -0.6838 C   0  0  0  0  0  0  0  0  0  0  0  0
    2.6786   -4.0418    0.5321 O   0  0  0  0  0  0  0  0  0  0  0  0
    3.8410   -4.2817    1.3729 C   0  0  1  0  0  0  0  0  0  0  0  0
    6.7481   -3.0467   -1.6781 C   0  0  0  0  0  0  0  0  0  0  0  0
    1.7030   -6.3695    6.1670 H   0  0  0  0  0  0  0  0  0  0  0  0
    0.4229   -7.6592    5.8237 H   0  0  0  0  0  0  0  0  0  0  0  0
    1.0461   -7.8713    3.6030 H   0  0  0  0  0  0  0  0  0  0  0  0
    1.1543   -7.6464    1.7018 H   0  0  0  0  0  0  0  0  0  0  0  0
    2.7221   -8.2687    1.1628 H   0  0  0  0  0  0  0  0  0  0  0  0
    1.9846   -6.8089    0.4651 H   0  0  0  0  0  0  0  0  0  0  0  0
    4.0768   -6.2180    0.5505 H   0  0  0  0  0  0  0  0  0  0  0  0
    5.5091   -6.2064    3.2064 H   0  0  0  0  0  0  0  0  0  0  0  0
    5.7355   -7.1774    1.7957 H   0  0  0  0  0  0  0  0  0  0  0  0
    6.7779   -4.4755    2.4456 H   0  0  0  0  0  0  0  0  0  0  0  0
    7.5703   -5.7559    1.5829 H   0  0  0  0  0  0  0  0  0  0  0  0
    6.0909   -5.3056   -0.3994 H   0  0  0  0  0  0  0  0  0  0  0  0
    8.2754   -3.6978   -0.1861 H   0  0  0  0  0  0  0  0  0  0  0  0
    7.6007   -1.4704    0.9004 H   0  0  0  0  0  0  0  0  0  0  0  0
    5.1623   -1.7208    1.8289 H   0  0  0  0  0  0  0  0  0  0  0  0
    4.9952   -2.4930   -3.9746 H   0  0  0  0  0  0  0  0  0  0  0  0
    2.5123   -2.7347   -3.9500 H   0  0  0  0  0  0  0  0  0  0  0  0
    0.6998   -3.7437   -2.7834 H   0  0  0  0  0  0  0  0  0  0  0  0
    3.7084   -3.7799    2.3317 H   0  0  0  0  0  0  0  0  0  0  0  0
    7.1788   -2.0929   -1.9862 H   0  0  0  0  0  0  0  0  0  0  0  0
    7.1392   -3.7826   -2.3796 H   0  0  0  0  0  0  0  0  0  0  0  0
  1  2  2  0
  1 25  1  0
  1 26  1  0
  2  3  1  0
  2 27  1  0
  3  4  2  0
  3  5  1  0
  5  6  1  0
  5  7  1  0
  6 28  1  0
  6 29  1  0
  6 30  1  0
  7 23  1  0
  7  8  1  0
  7 31  1  6
  8  9  1  0
  8 32  1  0
  8 33  1  0
  9 10  1  0
  9 34  1  0
  9 35  1  0
 10 14  1  0
 10 11  1  0
 10 36  1  6
 11 24  1  0
 11 12  1  0
 11 37  1  6
 12 13  2  0
 12 38  1  0
 14 13  1  1
 13 39  1  0
 14 23  1  0
 14 15  1  0
 15 21  1  0
 15 16  2  0
 16 17  1  0
 16 24  1  0
 17 18  2  0
 17 40  1  0
 18 19  1  0
 18 41  1  0
 19 20  1  0
 19 21  2  0
 20 42  1  0
 21 22  1  0
 22 23  1  0
 23 43  1  1
 24 44  1  0
 24 45  1  0
M  END
>  <i_m_ct_stereo_status>  (109) 
1

>  <s_m_source_file>  (109) 
/var/tmp/pbs.5076255.sched01/tmpb5cfx69f/43pm4c6kpw.sdf

>  <i_m_source_file_index>  (109) 
1

>  <i_lp_mmshare_version>  (109) 
48012

>  <i_f3d_flags>  (109) 
0

>  <s_epik_input>  (109) 
W0NIMl09W0NIXUMoPU8pTihbQ0gzXSlbQ0BIXShbQ0gyXVtDSDJdMSlbQ0BASF0yT2MoYyhbT0hdKVtjSF1bY0hdMyljNGMzW0NIMl1bQ0BIXShbQ0BASF0xW0NAXTI0NSlbQ0hdPVtDSF01

>  <s_epik_cmdline>  (109) 
J2VwaWtfcHl0aG9uJywgJy1waHQnLCAnMi4wJywgJy1waCcsICc3LjAnLCAnLXRuJywgJzgnLCAnLW1hJywgJzIwMCcsICctaW1hZScsICc8aW5maWxlLm1hZT4nLCAnLW9tYWUnLCAnPG91dGZpbGUubWFlPic=

>  <r_lp_tautomer_probability>  (109) 
1

>  <r_epik_Ionization_Penalty>  (109) 
0.00176097

>  <r_epik_Ionization_Penalty_Charging>  (109) 
0

>  <r_epik_Ionization_Penalty_Neutral>  (109) 
0.00176097

>  <r_epik_State_Penalty>  (109) 
0.00119174

>  <r_epik_Charging_Adjusted_Penalty>  (109) 
0.00119174

>  <i_epik_Tot_Q>  (109) 
0

>  <i_epik_Tot_abs_Q>  (109) 
0

>  <s_lp_Force_Field>  (109) 
OPLS3e

>  <r_lp_Energy>  (109) 
64.8718

>  <b_lp_Chiralities_Consistent>  (109) 
1

>  <s_lp_Variant>  (109) 
27:0-1

>  <s_i_glide_gridfile>  (109) 
pfpi4k_grid

>  <i_i_glide_lignum>  (109) 
1

>  <i_i_glide_rotatable_bonds>  (109) 
4

>  <r_i_docking_score>  (109) 
-3.20078

>  <r_i_glide_ligand_efficiency>  (109) 
-0.133366

>  <r_i_glide_ligand_efficiency_sa>  (109) 
-0.384694

>  <r_i_glide_ligand_efficiency_ln>  (109) 
-0.766094

>  <r_i_glide_gscore>  (109) 
-3.20078

>  <r_i_glide_lipo>  (109) 
-1.0868

>  <r_i_glide_hbond>  (109) 
0

>  <r_i_glide_metal>  (109) 
-0

>  <r_i_glide_rewards>  (109) 
-1.20419

>  <r_i_glide_evdw>  (109) 
-19.572

>  <r_i_glide_ecoul>  (109) 
-3.11224

>  <r_i_glide_erotb>  (109) 
0.536822

>  <r_i_glide_esite>  (109) 
-0.00117451

>  <r_i_glide_emodel>  (109) 
-25.8708

>  <r_i_glide_energy>  (109) 
-22.6842

>  <r_i_glide_einternal>  (109) 
4.11915

>  <r_i_glide_intrahb_reward>  (109) 
-0

>  <i_i_glide_confnum>  (109) 
3

>  <i_i_glide_posenum>  (109) 
17

>  <r_i_glide_eff_state_penalty>  (109) 
0

>  <ligand_id>  (109) 
27

>  <original_smiles>  (109) 
C=CC(=O)N(C)C1CCC2C3C=CC24c2c(ccc(O)c2OC14)C3

>  <smiles>  (109) 
[H]Oc1c([H])c([H])c2c3c1OC1([H])C34C([H])=C([H])C([H])(C2([H])[H])C4([H])C([H])([H])C([H])([H])C1([H])N(C(=O)C([H])=C([H])[H])C([H])([H])[H]

$$$$
27:0:2
     RDKit          3D

 45 49  0  0  1  0  0  0  0  0999 V2000
   -1.9315   -7.8461    3.0868 C   0  0  0  0  0  0  0  0  0  0  0  0
   -0.6713   -8.2873    3.2033 C   0  0  0  0  0  0  0  0  0  0  0  0
    0.4538   -7.6484    2.5069 C   0  0  0  0  0  0  0  0  0  0  0  0
    0.2670   -6.7745    1.6517 O   0  0  0  0  0  0  0  0  0  0  0  0
    1.7139   -8.0681    2.8631 N   0  0  0  0  0  0  0  0  0  0  0  0
    2.0091   -8.9322    4.0302 C   0  0  0  0  0  0  0  0  0  0  0  0
    2.9247   -7.5077    2.1921 C   0  0  2  0  0  0  0  0  0  0  0  0
    3.8957   -8.5966    1.6041 C   0  0  0  0  0  0  0  0  0  0  0  0
    5.3375   -8.1048    1.2998 C   0  0  0  0  0  0  0  0  0  0  0  0
    5.3510   -6.5868    1.0306 C   0  0  2  0  0  0  0  0  0  0  0  0
    6.7173   -5.8715    0.8361 C   0  0  2  0  0  0  0  0  0  0  0  0
    7.2435   -5.8348    2.2485 C   0  0  0  0  0  0  0  0  0  0  0  0
    6.2176   -5.8413    3.1024 C   0  0  0  0  0  0  0  0  0  0  0  0
    4.9152   -5.8898    2.3249 C   0  0  1  0  0  0  0  0  0  0  0  0
    4.5027   -4.5181    1.9296 C   0  0  0  0  0  0  0  0  0  0  0  0
    5.2292   -3.7085    1.0362 C   0  0  0  0  0  0  0  0  0  0  0  0
    4.6826   -2.4267    0.8032 C   0  0  0  0  0  0  0  0  0  0  0  0
    3.4737   -2.0565    1.4508 C   0  0  0  0  0  0  0  0  0  0  0  0
    2.7796   -2.9578    2.3067 C   0  0  0  0  0  0  0  0  0  0  0  0
    1.6044   -2.5841    2.8858 O   0  0  0  0  0  0  0  0  0  0  0  0
    3.3063   -4.2472    2.5469 C   0  0  0  0  0  0  0  0  0  0  0  0
    2.8046   -5.2940    3.2826 O   0  0  0  0  0  0  0  0  0  0  0  0
    3.6561   -6.4459    3.0663 C   0  0  1  0  0  0  0  0  0  0  0  0
    6.4466   -4.3965    0.3820 C   0  0  0  0  0  0  0  0  0  0  0  0
   -2.2192   -7.0064    2.4789 H   0  0  0  0  0  0  0  0  0  0  0  0
   -2.7061   -8.3565    3.6364 H   0  0  0  0  0  0  0  0  0  0  0  0
   -0.5790   -9.1448    3.8437 H   0  0  0  0  0  0  0  0  0  0  0  0
    1.2055   -9.5344    4.4343 H   0  0  0  0  0  0  0  0  0  0  0  0
    2.3908   -8.3163    4.8464 H   0  0  0  0  0  0  0  0  0  0  0  0
    2.7664   -9.6773    3.8083 H   0  0  0  0  0  0  0  0  0  0  0  0
    2.6106   -6.9600    1.2997 H   0  0  0  0  0  0  0  0  0  0  0  0
    4.0272   -9.4673    2.2405 H   0  0  0  0  0  0  0  0  0  0  0  0
    3.4583   -9.0010    0.6909 H   0  0  0  0  0  0  0  0  0  0  0  0
    5.9739   -8.3480    2.1557 H   0  0  0  0  0  0  0  0  0  0  0  0
    5.7524   -8.6729    0.4743 H   0  0  0  0  0  0  0  0  0  0  0  0
    4.6849   -6.3894    0.1892 H   0  0  0  0  0  0  0  0  0  0  0  0
    7.4072   -6.3975    0.1749 H   0  0  0  0  0  0  0  0  0  0  0  0
    8.2943   -5.8063    2.4964 H   0  0  0  0  0  0  0  0  0  0  0  0
    6.2878   -5.8329    4.1793 H   0  0  0  0  0  0  0  0  0  0  0  0
    5.1647   -1.7429    0.1234 H   0  0  0  0  0  0  0  0  0  0  0  0
    3.0622   -1.0797    1.2639 H   0  0  0  0  0  0  0  0  0  0  0  0
    1.3227   -1.7246    2.6180 H   0  0  0  0  0  0  0  0  0  0  0  0
    3.9424   -6.8643    4.0330 H   0  0  0  0  0  0  0  0  0  0  0  0
    7.3351   -3.7790    0.5212 H   0  0  0  0  0  0  0  0  0  0  0  0
    6.2365   -4.4016   -0.6862 H   0  0  0  0  0  0  0  0  0  0  0  0
  1  2  2  0
  1 25  1  0
  1 26  1  0
  2  3  1  0
  2 27  1  0
  3  4  2  0
  3  5  1  0
  5  6  1  0
  5  7  1  0
  6 28  1  0
  6 29  1  0
  6 30  1  0
  7 23  1  0
  7  8  1  0
  7 31  1  6
  8  9  1  0
  8 32  1  0
  8 33  1  0
  9 10  1  0
  9 34  1  0
  9 35  1  0
 10 14  1  0
 10 11  1  0
 10 36  1  6
 11 24  1  0
 11 12  1  0
 11 37  1  6
 12 13  2  0
 12 38  1  0
 14 13  1  1
 13 39  1  0
 14 23  1  0
 14 15  1  0
 15 21  1  0
 15 16  2  0
 16 17  1  0
 16 24  1  0
 17 18  2  0
 17 40  1  0
 18 19  1  0
 18 41  1  0
 19 20  1  0
 19 21  2  0
 20 42  1  0
 21 22  1  0
 22 23  1  0
 23 43  1  1
 24 44  1  0
 24 45  1  0
M  END
>  <i_m_ct_stereo_status>  (110) 
1

>  <s_m_source_file>  (110) 
/var/tmp/pbs.5076255.sched01/tmpb5cfx69f/43pm4c6kpw.sdf

>  <i_m_source_file_index>  (110) 
1

>  <i_lp_mmshare_version>  (110) 
48012

>  <i_f3d_flags>  (110) 
0

>  <s_epik_input>  (110) 
W0NIMl09W0NIXUMoPU8pTihbQ0gzXSlbQ0BIXShbQ0gyXVtDSDJdMSlbQ0BASF0yT2MoYyhbT0hdKVtjSF1bY0hdMyljNGMzW0NIMl1bQ0BIXShbQ0BASF0xW0NAXTI0NSlbQ0hdPVtDSF01

>  <s_epik_cmdline>  (110) 
J2VwaWtfcHl0aG9uJywgJy1waHQnLCAnMi4wJywgJy1waCcsICc3LjAnLCAnLXRuJywgJzgnLCAnLW1hJywgJzIwMCcsICctaW1hZScsICc8aW5maWxlLm1hZT4nLCAnLW9tYWUnLCAnPG91dGZpbGUubWFlPic=

>  <r_lp_tautomer_probability>  (110) 
1

>  <r_epik_Ionization_Penalty>  (110) 
0.00176097

>  <r_epik_Ionization_Penalty_Charging>  (110) 
0

>  <r_epik_Ionization_Penalty_Neutral>  (110) 
0.00176097

>  <r_epik_State_Penalty>  (110) 
0.00119174

>  <r_epik_Charging_Adjusted_Penalty>  (110) 
0.00119174

>  <i_epik_Tot_Q>  (110) 
0

>  <i_epik_Tot_abs_Q>  (110) 
0

>  <s_lp_Force_Field>  (110) 
OPLS3e

>  <r_lp_Energy>  (110) 
64.8718

>  <b_lp_Chiralities_Consistent>  (110) 
1

>  <s_lp_Variant>  (110) 
27:0-1

>  <s_i_glide_gridfile>  (110) 
pfpi4k_grid

>  <i_i_glide_lignum>  (110) 
1

>  <i_i_glide_rotatable_bonds>  (110) 
4

>  <r_i_docking_score>  (110) 
-2.63013

>  <r_i_glide_ligand_efficiency>  (110) 
-0.109589

>  <r_i_glide_ligand_efficiency_sa>  (110) 
-0.316108

>  <r_i_glide_ligand_efficiency_ln>  (110) 
-0.62951

>  <r_i_glide_gscore>  (110) 
-2.63013

>  <r_i_glide_lipo>  (110) 
-0.471684

>  <r_i_glide_hbond>  (110) 
-0.0384492

>  <r_i_glide_metal>  (110) 
-0

>  <r_i_glide_rewards>  (110) 
-1.20419

>  <r_i_glide_evdw>  (110) 
-22.4257

>  <r_i_glide_ecoul>  (110) 
-1.81435

>  <r_i_glide_erotb>  (110) 
0.536822

>  <r_i_glide_esite>  (110) 
-0.0591912

>  <r_i_glide_emodel>  (110) 
-24.9117

>  <r_i_glide_energy>  (110) 
-24.24

>  <r_i_glide_einternal>  (110) 
7.88102

>  <r_i_glide_intrahb_reward>  (110) 
-0

>  <i_i_glide_confnum>  (110) 
2

>  <i_i_glide_posenum>  (110) 
2

>  <r_i_glide_eff_state_penalty>  (110) 
0

>  <ligand_id>  (110) 
27

>  <original_smiles>  (110) 
C=CC(=O)N(C)C1CCC2C3C=CC24c2c(ccc(O)c2OC14)C3

>  <smiles>  (110) 
[H]Oc1c([H])c([H])c2c3c1OC1([H])C34C([H])=C([H])C([H])(C2([H])[H])C4([H])C([H])([H])C([H])([H])C1([H])N(C(=O)C([H])=C([H])[H])C([H])([H])[H]

$$$$
28:0:0
     RDKit          3D

 49 53  0  0  1  0  0  0  0  0999 V2000
    4.9675   -3.6552    2.7764 C   0  0  0  0  0  0  0  0  0  0  0  0
    4.7737   -4.9641    2.0732 N   0  0  1  0  0  0  0  0  0  0  0  0
    5.8274   -5.2166    1.0368 C   0  0  0  0  0  0  0  0  0  0  0  0
    6.0772   -4.0456    0.1349 C   0  0  0  0  0  0  0  0  0  0  0  0
    7.2046   -3.2923   -0.0625 C   0  0  0  0  0  0  0  0  0  0  0  0
    6.9757   -2.2597   -0.9678 N   0  0  0  0  0  0  0  0  0  0  0  0
    5.7007   -2.3883   -1.3366 C   0  0  0  0  0  0  0  0  0  0  0  0
    5.0019   -1.6212   -2.1852 N   0  0  0  0  0  0  0  0  0  0  0  0
    3.7213   -1.9222   -2.3831 C   0  0  0  0  0  0  0  0  0  0  0  0
    3.0704   -3.0132   -1.7597 C   0  0  0  0  0  0  0  0  0  0  0  0
    3.7831   -3.7972   -0.9000 C   0  0  0  0  0  0  0  0  0  0  0  0
    5.0970   -3.4906   -0.6757 N   0  0  0  0  0  0  0  0  0  0  0  0
    4.5256   -6.1241    2.9959 C   0  0  2  0  0  0  0  0  0  0  0  0
    4.1219   -7.4267    2.2246 C   0  0  1  0  0  0  0  0  0  0  0  0
    3.9422   -8.5915    3.2136 C   0  0  0  0  0  0  0  0  0  0  0  0
    2.8227   -8.2585    4.2149 C   0  0  1  0  0  0  0  0  0  0  0  0
    3.2001   -6.9901    4.9926 C   0  0  0  0  0  0  0  0  0  0  0  0
    3.3750   -5.8204    4.0144 C   0  0  2  0  0  0  0  0  0  0  0  0
    2.0531   -5.5677    3.2384 C   0  0  0  0  0  0  0  0  0  0  0  0
    1.6580   -6.8533    2.4534 C   0  0  2  0  0  0  0  0  0  0  0  0
    0.3261   -6.6366    1.6921 C   0  0  0  0  0  0  0  0  0  0  0  0
    0.3843   -6.2543    0.5022 O   0  0  0  0  0  0  0  0  0  0  0  0
   -0.7316   -6.6683    2.3568 O   0  0  0  0  0  0  0  0  0  0  0  0
    1.5034   -8.0221    3.4569 C   0  0  0  0  0  0  0  0  0  0  0  0
    2.7976   -7.1996    1.4624 C   0  0  0  0  0  0  0  0  0  0  0  0
    5.8272   -3.7193    3.4446 H   0  0  0  0  0  0  0  0  0  0  0  0
    4.0959   -3.3721    3.3719 H   0  0  0  0  0  0  0  0  0  0  0  0
    5.1058   -2.8149    2.0868 H   0  0  0  0  0  0  0  0  0  0  0  0
    6.7595   -5.5095    1.5287 H   0  0  0  0  0  0  0  0  0  0  0  0
    5.5383   -6.0490    0.3903 H   0  0  0  0  0  0  0  0  0  0  0  0
    8.1745   -3.4106    0.3964 H   0  0  0  0  0  0  0  0  0  0  0  0
    3.1597   -1.2927   -3.0715 H   0  0  0  0  0  0  0  0  0  0  0  0
    2.0205   -3.2310   -1.9525 H   0  0  0  0  0  0  0  0  0  0  0  0
    3.3553   -4.6551   -0.3915 H   0  0  0  0  0  0  0  0  0  0  0  0
    5.4521   -6.3165    3.5469 H   0  0  0  0  0  0  0  0  0  0  0  0
    4.8978   -7.7463    1.5266 H   0  0  0  0  0  0  0  0  0  0  0  0
    3.6941   -9.4997    2.6636 H   0  0  0  0  0  0  0  0  0  0  0  0
    4.8788   -8.7877    3.7364 H   0  0  0  0  0  0  0  0  0  0  0  0
    2.6915   -9.0843    4.9137 H   0  0  0  0  0  0  0  0  0  0  0  0
    2.4280   -6.7417    5.7204 H   0  0  0  0  0  0  0  0  0  0  0  0
    4.1181   -7.1471    5.5587 H   0  0  0  0  0  0  0  0  0  0  0  0
    3.6198   -4.9797    4.6666 H   0  0  0  0  0  0  0  0  0  0  0  0
    1.2722   -5.2625    3.9354 H   0  0  0  0  0  0  0  0  0  0  0  0
    2.1660   -4.7235    2.5548 H   0  0  0  0  0  0  0  0  0  0  0  0
    1.2217   -8.9243    2.9141 H   0  0  0  0  0  0  0  0  0  0  0  0
    0.7080   -7.8188    4.1738 H   0  0  0  0  0  0  0  0  0  0  0  0
    2.9280   -6.4074    0.7290 H   0  0  0  0  0  0  0  0  0  0  0  0
    2.5403   -8.0901    0.8899 H   0  0  0  0  0  0  0  0  0  0  0  0
    3.9110   -4.8643    1.5567 H   0  0  0  0  0  0  0  0  0  0  0  0
  1  2  1  0
  1 26  1  0
  1 27  1  0
  1 28  1  0
  2  3  1  0
  2 13  1  0
  2 49  1  6
  3  4  1  0
  3 29  1  0
  3 30  1  0
  4 12  1  0
  4  5  2  0
  5  6  1  0
  5 31  1  0
  6  7  2  0
  7 12  1  0
  7  8  1  0
  8  9  2  0
  9 10  1  0
  9 32  1  0
 10 11  2  0
 10 33  1  0
 11 12  1  0
 11 34  1  0
 13 18  1  0
 13 14  1  0
 13 35  1  1
 14 25  1  0
 14 15  1  0
 14 36  1  6
 15 16  1  0
 15 37  1  0
 15 38  1  0
 16 24  1  0
 16 17  1  0
 16 39  1  1
 17 18  1  0
 17 40  1  0
 17 41  1  0
 18 19  1  0
 18 42  1  1
 19 20  1  0
 19 43  1  0
 19 44  1  0
 20 21  1  6
 20 24  1  0
 20 25  1  0
 21 22  2  0
 21 23  1  0
 24 45  1  0
 24 46  1  0
 25 47  1  0
 25 48  1  0
M  CHG  2   2   1  23  -1
M  END
>  <i_m_ct_stereo_status>  (111) 
1

>  <s_m_source_file>  (111) 
/var/tmp/pbs.5076255.sched01/tmpb5cfx69f/43pm4c6kpw.sdf

>  <i_m_source_file_index>  (111) 
2

>  <i_lp_mmshare_version>  (111) 
48012

>  <i_f3d_flags>  (111) 
0

>  <s_epik_input>  (111) 
Tz1DKFtPSF0pW0NAQF0xMltDSDJdW0NAQEhdM1tDQEBIXShbQ0BIXShbQ0gyXTIpW0NIMl1bQ0BASF0oW0NIMl0zKVtDSDJdMSlOKFtDSDNdKVtDSDJdYyhbY0hdbjQpbihjNDUpW2NIXVtjSF1bY0hdbjU=

>  <s_epik_cmdline>  (111) 
J2VwaWtfcHl0aG9uJywgJy1waHQnLCAnMi4wJywgJy1waCcsICc3LjAnLCAnLXRuJywgJzgnLCAnLW1hJywgJzIwMCcsICctaW1hZScsICc8aW5maWxlLm1hZT4nLCAnLW9tYWUnLCAnPG91dGZpbGUubWFlPic=

>  <r_epik_Ionization_Penalty>  (111) 
0.0569419

>  <r_epik_Ionization_Penalty_Charging>  (111) 
0.0569419

>  <r_epik_Ionization_Penalty_Neutral>  (111) 
1.79209e-12

>  <r_epik_State_Penalty>  (111) 
0.0460206

>  <r_epik_Charging_Adjusted_Penalty>  (111) 
0.102962

>  <i_epik_Tot_Q>  (111) 
0

>  <i_epik_Tot_abs_Q>  (111) 
2

>  <s_lp_Force_Field>  (111) 
OPLS3e

>  <r_lp_Energy>  (111) 
41.1237

>  <b_lp_Chiralities_Consistent>  (111) 
1

>  <s_lp_Variant>  (111) 
28:0-1

>  <s_i_glide_gridfile>  (111) 
pfpi4k_grid

>  <i_i_glide_lignum>  (111) 
2

>  <i_i_glide_rotatable_bonds>  (111) 
4

>  <r_i_docking_score>  (111) 
-4.52331

>  <r_i_glide_ligand_efficiency>  (111) 
-0.180932

>  <r_i_glide_ligand_efficiency_sa>  (111) 
-0.529049

>  <r_i_glide_ligand_efficiency_ln>  (111) 
-1.07216

>  <r_i_glide_gscore>  (111) 
-4.52331

>  <r_i_glide_lipo>  (111) 
-0.383515

>  <r_i_glide_hbond>  (111) 
-0.593457

>  <r_i_glide_metal>  (111) 
-0

>  <r_i_glide_rewards>  (111) 
-1.16141

>  <r_i_glide_evdw>  (111) 
-20.7103

>  <r_i_glide_ecoul>  (111) 
-11.4073

>  <r_i_glide_erotb>  (111) 
0.490237

>  <r_i_glide_esite>  (111) 
-0.128556

>  <r_i_glide_emodel>  (111) 
-45.8052

>  <r_i_glide_energy>  (111) 
-32.1176

>  <r_i_glide_einternal>  (111) 
1.39681

>  <r_i_glide_intrahb_reward>  (111) 
-0

>  <i_i_glide_confnum>  (111) 
4

>  <i_i_glide_posenum>  (111) 
40

>  <r_i_glide_eff_state_penalty>  (111) 
0

>  <ligand_id>  (111) 
28

>  <original_smiles>  (111) 
CN(Cc1cnc2ncccn12)C1C2CC3CC1CC(C(=O)O)(C3)C2

>  <smiles>  (111) 
[H]c1nc2nc([H])c(C([H])([H])[N+]([H])(C([H])([H])[H])C3([H])C4([H])C([H])([H])C5([H])C([H])([H])C3([H])C([H])([H])C(C(=O)[O-])(C5([H])[H])C4([H])[H])n2c([H])c1[H]

$$$$
28:0:1
     RDKit          3D

 49 53  0  0  1  0  0  0  0  0999 V2000
    5.0094   -3.2109    2.3042 C   0  0  0  0  0  0  0  0  0  0  0  0
    4.4313   -4.4324    1.6742 N   0  0  1  0  0  0  0  0  0  0  0  0
    4.9386   -4.7123    0.2948 C   0  0  0  0  0  0  0  0  0  0  0  0
    5.2266   -3.5128   -0.5207 C   0  0  0  0  0  0  0  0  0  0  0  0
    6.3462   -2.7242   -0.4947 C   0  0  0  0  0  0  0  0  0  0  0  0
    6.1896   -1.6471   -1.3489 N   0  0  0  0  0  0  0  0  0  0  0  0
    5.0033   -1.8040   -1.9574 C   0  0  0  0  0  0  0  0  0  0  0  0
    4.4405   -1.0256   -2.8766 N   0  0  0  0  0  0  0  0  0  0  0  0
    3.2577   -1.4039   -3.3538 C   0  0  0  0  0  0  0  0  0  0  0  0
    2.5924   -2.5791   -2.9246 C   0  0  0  0  0  0  0  0  0  0  0  0
    3.1498   -3.3465   -1.9483 C   0  0  0  0  0  0  0  0  0  0  0  0
    4.3833   -2.9784   -1.4658 N   0  0  0  0  0  0  0  0  0  0  0  0
    4.4731   -5.6199    2.5968 C   0  0  2  0  0  0  0  0  0  0  0  0
    4.0910   -6.9760    1.9164 C   0  0  1  0  0  0  0  0  0  0  0  0
    4.2543   -8.1363    2.9138 C   0  0  0  0  0  0  0  0  0  0  0  0
    3.3055   -7.9251    4.1031 C   0  0  1  0  0  0  0  0  0  0  0  0
    3.6619   -6.6068    4.8059 C   0  0  0  0  0  0  0  0  0  0  0  0
    3.5073   -5.4343    3.8144 C   0  0  2  0  0  0  0  0  0  0  0  0
    2.0417   -5.3629    3.3185 C   0  0  0  0  0  0  0  0  0  0  0  0
    1.6631   -6.6996    2.6108 C   0  0  2  0  0  0  0  0  0  0  0  0
    0.2060   -6.6399    2.0856 C   0  0  0  0  0  0  0  0  0  0  0  0
    0.0312   -6.2945    0.8894 O   0  0  0  0  0  0  0  0  0  0  0  0
   -0.7338   -6.7021    2.9224 O   0  0  0  0  0  0  0  0  0  0  0  0
    1.8508   -7.8672    3.6050 C   0  0  0  0  0  0  0  0  0  0  0  0
    2.6296   -6.9238    1.4235 C   0  0  0  0  0  0  0  0  0  0  0  0
    6.0804   -3.3432    2.4616 H   0  0  0  0  0  0  0  0  0  0  0  0
    4.5580   -2.9578    3.2587 H   0  0  0  0  0  0  0  0  0  0  0  0
    4.8472   -2.3074    1.7161 H   0  0  0  0  0  0  0  0  0  0  0  0
    5.8660   -5.2729    0.3109 H   0  0  0  0  0  0  0  0  0  0  0  0
    4.2418   -5.3284   -0.2629 H   0  0  0  0  0  0  0  0  0  0  0  0
    7.2078   -2.8063    0.1543 H   0  0  0  0  0  0  0  0  0  0  0  0
    2.8052   -0.7609   -4.0986 H   0  0  0  0  0  0  0  0  0  0  0  0
    1.6142   -2.8470   -3.3252 H   0  0  0  0  0  0  0  0  0  0  0  0
    2.6798   -4.2438   -1.5399 H   0  0  0  0  0  0  0  0  0  0  0  0
    5.4983   -5.7207    2.9714 H   0  0  0  0  0  0  0  0  0  0  0  0
    4.7500   -7.2522    1.0933 H   0  0  0  0  0  0  0  0  0  0  0  0
    4.0252   -9.0736    2.4063 H   0  0  0  0  0  0  0  0  0  0  0  0
    5.2903   -8.2069    3.2492 H   0  0  0  0  0  0  0  0  0  0  0  0
    3.4043   -8.7515    4.8040 H   0  0  0  0  0  0  0  0  0  0  0  0
    3.0109   -6.4534    5.6670 H   0  0  0  0  0  0  0  0  0  0  0  0
    4.6779   -6.6468    5.1983 H   0  0  0  0  0  0  0  0  0  0  0  0
    3.7403   -4.5467    4.4038 H   0  0  0  0  0  0  0  0  0  0  0  0
    1.3773   -5.1620    4.1589 H   0  0  0  0  0  0  0  0  0  0  0  0
    1.9152   -4.5130    2.6452 H   0  0  0  0  0  0  0  0  0  0  0  0
    1.5956   -8.8013    3.1035 H   0  0  0  0  0  0  0  0  0  0  0  0
    1.1841   -7.7632    4.4607 H   0  0  0  0  0  0  0  0  0  0  0  0
    2.4742   -6.1207    0.7053 H   0  0  0  0  0  0  0  0  0  0  0  0
    2.3899   -7.8421    0.8843 H   0  0  0  0  0  0  0  0  0  0  0  0
    3.4472   -4.2284    1.5494 H   0  0  0  0  0  0  0  0  0  0  0  0
  1  2  1  0
  1 26  1  0
  1 27  1  0
  1 28  1  0
  2  3  1  0
  2 13  1  0
  2 49  1  6
  3  4  1  0
  3 29  1  0
  3 30  1  0
  4 12  1  0
  4  5  2  0
  5  6  1  0
  5 31  1  0
  6  7  2  0
  7 12  1  0
  7  8  1  0
  8  9  2  0
  9 10  1  0
  9 32  1  0
 10 11  2  0
 10 33  1  0
 11 12  1  0
 11 34  1  0
 13 18  1  0
 13 14  1  0
 13 35  1  1
 14 25  1  0
 14 15  1  0
 14 36  1  6
 15 16  1  0
 15 37  1  0
 15 38  1  0
 16 24  1  0
 16 17  1  0
 16 39  1  1
 17 18  1  0
 17 40  1  0
 17 41  1  0
 18 19  1  0
 18 42  1  1
 19 20  1  0
 19 43  1  0
 19 44  1  0
 20 21  1  6
 20 24  1  0
 20 25  1  0
 21 22  2  0
 21 23  1  0
 24 45  1  0
 24 46  1  0
 25 47  1  0
 25 48  1  0
M  CHG  2   2   1  23  -1
M  END
>  <i_m_ct_stereo_status>  (112) 
1

>  <s_m_source_file>  (112) 
/var/tmp/pbs.5076255.sched01/tmpb5cfx69f/43pm4c6kpw.sdf

>  <i_m_source_file_index>  (112) 
2

>  <i_lp_mmshare_version>  (112) 
48012

>  <i_f3d_flags>  (112) 
0

>  <s_epik_input>  (112) 
Tz1DKFtPSF0pW0NAQF0xMltDSDJdW0NAQEhdM1tDQEBIXShbQ0BIXShbQ0gyXTIpW0NIMl1bQ0BASF0oW0NIMl0zKVtDSDJdMSlOKFtDSDNdKVtDSDJdYyhbY0hdbjQpbihjNDUpW2NIXVtjSF1bY0hdbjU=

>  <s_epik_cmdline>  (112) 
J2VwaWtfcHl0aG9uJywgJy1waHQnLCAnMi4wJywgJy1waCcsICc3LjAnLCAnLXRuJywgJzgnLCAnLW1hJywgJzIwMCcsICctaW1hZScsICc8aW5maWxlLm1hZT4nLCAnLW9tYWUnLCAnPG91dGZpbGUubWFlPic=

>  <r_epik_Ionization_Penalty>  (112) 
0.0569419

>  <r_epik_Ionization_Penalty_Charging>  (112) 
0.0569419

>  <r_epik_Ionization_Penalty_Neutral>  (112) 
1.79209e-12

>  <r_epik_State_Penalty>  (112) 
0.0460206

>  <r_epik_Charging_Adjusted_Penalty>  (112) 
0.102962

>  <i_epik_Tot_Q>  (112) 
0

>  <i_epik_Tot_abs_Q>  (112) 
2

>  <s_lp_Force_Field>  (112) 
OPLS3e

>  <r_lp_Energy>  (112) 
41.1237

>  <b_lp_Chiralities_Consistent>  (112) 
1

>  <s_lp_Variant>  (112) 
28:0-1

>  <s_i_glide_gridfile>  (112) 
pfpi4k_grid

>  <i_i_glide_lignum>  (112) 
2

>  <i_i_glide_rotatable_bonds>  (112) 
4

>  <r_i_docking_score>  (112) 
-4.46185

>  <r_i_glide_ligand_efficiency>  (112) 
-0.178474

>  <r_i_glide_ligand_efficiency_sa>  (112) 
-0.521861

>  <r_i_glide_ligand_efficiency_ln>  (112) 
-1.05759

>  <r_i_glide_gscore>  (112) 
-4.46185

>  <r_i_glide_lipo>  (112) 
-0.345923

>  <r_i_glide_hbond>  (112) 
-0.549912

>  <r_i_glide_metal>  (112) 
-0

>  <r_i_glide_rewards>  (112) 
-1.08805

>  <r_i_glide_evdw>  (112) 
-19.4489

>  <r_i_glide_ecoul>  (112) 
-12.4027

>  <r_i_glide_erotb>  (112) 
0.490237

>  <r_i_glide_esite>  (112) 
-0.135357

>  <r_i_glide_emodel>  (112) 
-44.1786

>  <r_i_glide_energy>  (112) 
-31.8515

>  <r_i_glide_einternal>  (112) 
2.55448

>  <r_i_glide_intrahb_reward>  (112) 
-0

>  <i_i_glide_confnum>  (112) 
1

>  <i_i_glide_posenum>  (112) 
17

>  <r_i_glide_eff_state_penalty>  (112) 
0

>  <ligand_id>  (112) 
28

>  <original_smiles>  (112) 
CN(Cc1cnc2ncccn12)C1C2CC3CC1CC(C(=O)O)(C3)C2

>  <smiles>  (112) 
[H]c1nc2nc([H])c(C([H])([H])[N+]([H])(C([H])([H])[H])C3([H])C4([H])C([H])([H])C5([H])C([H])([H])C3([H])C([H])([H])C(C(=O)[O-])(C5([H])[H])C4([H])[H])n2c([H])c1[H]

$$$$
28:0:2
     RDKit          3D

 49 53  0  0  1  0  0  0  0  0999 V2000
    5.3124   -4.2893    2.3581 C   0  0  0  0  0  0  0  0  0  0  0  0
    4.6059   -5.3266    1.5473 N   0  0  1  0  0  0  0  0  0  0  0  0
    5.0566   -5.3945    0.1239 C   0  0  0  0  0  0  0  0  0  0  0  0
    5.5006   -4.0762   -0.4446 C   0  0  0  0  0  0  0  0  0  0  0  0
    6.6999   -3.4184   -0.3046 C   0  0  0  0  0  0  0  0  0  0  0  0
    6.6653   -2.1713   -0.9023 N   0  0  0  0  0  0  0  0  0  0  0  0
    5.4583   -2.0734   -1.4570 C   0  0  0  0  0  0  0  0  0  0  0  0
    4.9643   -1.0493   -2.1624 N   0  0  0  0  0  0  0  0  0  0  0  0
    3.7260   -1.1712   -2.6330 C   0  0  0  0  0  0  0  0  0  0  0  0
    2.9253   -2.3167   -2.4228 C   0  0  0  0  0  0  0  0  0  0  0  0
    3.4258   -3.3534   -1.6756 C   0  0  0  0  0  0  0  0  0  0  0  0
    4.7022   -3.2441   -1.2028 N   0  0  0  0  0  0  0  0  0  0  0  0
    4.5611   -6.6665    2.2234 C   0  0  2  0  0  0  0  0  0  0  0  0
    3.7462   -7.7276    1.4140 C   0  0  1  0  0  0  0  0  0  0  0  0
    3.7933   -9.0939    2.1308 C   0  0  0  0  0  0  0  0  0  0  0  0
    3.1682   -8.9666    3.5335 C   0  0  1  0  0  0  0  0  0  0  0  0
    3.9631   -7.9436    4.3542 C   0  0  0  0  0  0  0  0  0  0  0  0
    3.9209   -6.5790    3.6499 C   0  0  2  0  0  0  0  0  0  0  0  0
    2.4604   -6.0853    3.5268 C   0  0  0  0  0  0  0  0  0  0  0  0
    1.6558   -7.1191    2.7110 C   0  0  2  0  0  0  0  0  0  0  0  0
    0.1837   -6.6612    2.5818 C   0  0  0  0  0  0  0  0  0  0  0  0
   -0.1969   -6.2609    1.4611 O   0  0  0  0  0  0  0  0  0  0  0  0
   -0.5219   -6.6371    3.6088 O   0  0  0  0  0  0  0  0  0  0  0  0
    1.7063   -8.4974    3.4116 C   0  0  0  0  0  0  0  0  0  0  0  0
    2.2792   -7.2628    1.3055 C   0  0  0  0  0  0  0  0  0  0  0  0
    6.3623   -4.5732    2.4843 H   0  0  0  0  0  0  0  0  0  0  0  0
    4.8693   -4.1228    3.3385 H   0  0  0  0  0  0  0  0  0  0  0  0
    5.2497   -3.2925    1.9158 H   0  0  0  0  0  0  0  0  0  0  0  0
    5.8790   -6.0983    0.0213 H   0  0  0  0  0  0  0  0  0  0  0  0
    4.2459   -5.7954   -0.4845 H   0  0  0  0  0  0  0  0  0  0  0  0
    7.5742   -3.7259    0.2648 H   0  0  0  0  0  0  0  0  0  0  0  0
    3.3275   -0.3268   -3.1916 H   0  0  0  0  0  0  0  0  0  0  0  0
    1.9076   -2.3629   -2.7953 H   0  0  0  0  0  0  0  0  0  0  0  0
    2.8590   -4.2595   -1.4465 H   0  0  0  0  0  0  0  0  0  0  0  0
    5.5927   -7.0309    2.3220 H   0  0  0  0  0  0  0  0  0  0  0  0
    4.1683   -7.8853    0.4201 H   0  0  0  0  0  0  0  0  0  0  0  0
    3.2528   -9.8359    1.5458 H   0  0  0  0  0  0  0  0  0  0  0  0
    4.8212   -9.4462    2.2020 H   0  0  0  0  0  0  0  0  0  0  0  0
    3.1984   -9.9318    4.0420 H   0  0  0  0  0  0  0  0  0  0  0  0
    3.5489   -7.8445    5.3564 H   0  0  0  0  0  0  0  0  0  0  0  0
    4.9966   -8.2643    4.4781 H   0  0  0  0  0  0  0  0  0  0  0  0
    4.4806   -5.9346    4.3247 H   0  0  0  0  0  0  0  0  0  0  0  0
    2.0291   -5.9371    4.5126 H   0  0  0  0  0  0  0  0  0  0  0  0
    2.4171   -5.1108    3.0373 H   0  0  0  0  0  0  0  0  0  0  0  0
    1.1342   -9.2313    2.8402 H   0  0  0  0  0  0  0  0  0  0  0  0
    1.2513   -8.4504    4.4022 H   0  0  0  0  0  0  0  0  0  0  0  0
    2.2266   -6.3246    0.7457 H   0  0  0  0  0  0  0  0  0  0  0  0
    1.6802   -7.9937    0.7667 H   0  0  0  0  0  0  0  0  0  0  0  0
    3.6472   -5.0269    1.4988 H   0  0  0  0  0  0  0  0  0  0  0  0
  1  2  1  0
  1 26  1  0
  1 27  1  0
  1 28  1  0
  2  3  1  0
  2 13  1  0
  2 49  1  6
  3  4  1  0
  3 29  1  0
  3 30  1  0
  4 12  1  0
  4  5  2  0
  5  6  1  0
  5 31  1  0
  6  7  2  0
  7 12  1  0
  7  8  1  0
  8  9  2  0
  9 10  1  0
  9 32  1  0
 10 11  2  0
 10 33  1  0
 11 12  1  0
 11 34  1  0
 13 18  1  0
 13 14  1  0
 13 35  1  1
 14 25  1  0
 14 15  1  0
 14 36  1  6
 15 16  1  0
 15 37  1  0
 15 38  1  0
 16 24  1  0
 16 17  1  0
 16 39  1  1
 17 18  1  0
 17 40  1  0
 17 41  1  0
 18 19  1  0
 18 42  1  1
 19 20  1  0
 19 43  1  0
 19 44  1  0
 20 21  1  6
 20 24  1  0
 20 25  1  0
 21 22  2  0
 21 23  1  0
 24 45  1  0
 24 46  1  0
 25 47  1  0
 25 48  1  0
M  CHG  2   2   1  23  -1
M  END
>  <i_m_ct_stereo_status>  (113) 
1

>  <s_m_source_file>  (113) 
/var/tmp/pbs.5076255.sched01/tmpb5cfx69f/43pm4c6kpw.sdf

>  <i_m_source_file_index>  (113) 
2

>  <i_lp_mmshare_version>  (113) 
48012

>  <i_f3d_flags>  (113) 
0

>  <s_epik_input>  (113) 
Tz1DKFtPSF0pW0NAQF0xMltDSDJdW0NAQEhdM1tDQEBIXShbQ0BIXShbQ0gyXTIpW0NIMl1bQ0BASF0oW0NIMl0zKVtDSDJdMSlOKFtDSDNdKVtDSDJdYyhbY0hdbjQpbihjNDUpW2NIXVtjSF1bY0hdbjU=

>  <s_epik_cmdline>  (113) 
J2VwaWtfcHl0aG9uJywgJy1waHQnLCAnMi4wJywgJy1waCcsICc3LjAnLCAnLXRuJywgJzgnLCAnLW1hJywgJzIwMCcsICctaW1hZScsICc8aW5maWxlLm1hZT4nLCAnLW9tYWUnLCAnPG91dGZpbGUubWFlPic=

>  <r_epik_Ionization_Penalty>  (113) 
0.0569419

>  <r_epik_Ionization_Penalty_Charging>  (113) 
0.0569419

>  <r_epik_Ionization_Penalty_Neutral>  (113) 
1.79209e-12

>  <r_epik_State_Penalty>  (113) 
0.0460206

>  <r_epik_Charging_Adjusted_Penalty>  (113) 
0.102962

>  <i_epik_Tot_Q>  (113) 
0

>  <i_epik_Tot_abs_Q>  (113) 
2

>  <s_lp_Force_Field>  (113) 
OPLS3e

>  <r_lp_Energy>  (113) 
41.1237

>  <b_lp_Chiralities_Consistent>  (113) 
1

>  <s_lp_Variant>  (113) 
28:0-1

>  <s_i_glide_gridfile>  (113) 
pfpi4k_grid

>  <i_i_glide_lignum>  (113) 
2

>  <i_i_glide_rotatable_bonds>  (113) 
4

>  <r_i_docking_score>  (113) 
-4.30683

>  <r_i_glide_ligand_efficiency>  (113) 
-0.172273

>  <r_i_glide_ligand_efficiency_sa>  (113) 
-0.50373

>  <r_i_glide_ligand_efficiency_ln>  (113) 
-1.02085

>  <r_i_glide_gscore>  (113) 
-4.30683

>  <r_i_glide_lipo>  (113) 
-0.348584

>  <r_i_glide_hbond>  (113) 
-0.643864

>  <r_i_glide_metal>  (113) 
-0

>  <r_i_glide_rewards>  (113) 
-1.12232

>  <r_i_glide_evdw>  (113) 
-21.2352

>  <r_i_glide_ecoul>  (113) 
-9.96342

>  <r_i_glide_erotb>  (113) 
0.490237

>  <r_i_glide_esite>  (113) 
-0.12603

>  <r_i_glide_emodel>  (113) 
-43.2322

>  <r_i_glide_energy>  (113) 
-31.1986

>  <r_i_glide_einternal>  (113) 
2.66053

>  <r_i_glide_intrahb_reward>  (113) 
-0

>  <i_i_glide_confnum>  (113) 
4

>  <i_i_glide_posenum>  (113) 
35

>  <r_i_glide_eff_state_penalty>  (113) 
0

>  <ligand_id>  (113) 
28

>  <original_smiles>  (113) 
CN(Cc1cnc2ncccn12)C1C2CC3CC1CC(C(=O)O)(C3)C2

>  <smiles>  (113) 
[H]c1nc2nc([H])c(C([H])([H])[N+]([H])(C([H])([H])[H])C3([H])C4([H])C([H])([H])C5([H])C([H])([H])C3([H])C([H])([H])C(C(=O)[O-])(C5([H])[H])C4([H])[H])n2c([H])c1[H]

$$$$
28:1:0
     RDKit          3D

 48 52  0  0  1  0  0  0  0  0999 V2000
    6.2034   -4.9900    1.0019 C   0  0  0  0  0  0  0  0  0  0  0  0
    5.1631   -4.0196    1.3644 N   0  0  0  0  0  0  0  0  0  0  0  0
    5.4481   -2.7228    0.7416 C   0  0  0  0  0  0  0  0  0  0  0  0
    5.5086   -2.8193   -0.7385 C   0  0  0  0  0  0  0  0  0  0  0  0
    6.5857   -2.9168   -1.5764 C   0  0  0  0  0  0  0  0  0  0  0  0
    6.1782   -3.0664   -2.8926 N   0  0  0  0  0  0  0  0  0  0  0  0
    4.8512   -3.0753   -2.8790 C   0  0  0  0  0  0  0  0  0  0  0  0
    4.0047   -3.1697   -3.9232 N   0  0  0  0  0  0  0  0  0  0  0  0
    2.7081   -3.1682   -3.6498 C   0  0  0  0  0  0  0  0  0  0  0  0
    2.1802   -3.0502   -2.3436 C   0  0  0  0  0  0  0  0  0  0  0  0
    3.0487   -2.9180   -1.2889 C   0  0  0  0  0  0  0  0  0  0  0  0
    4.3814   -2.9250   -1.5510 N   0  0  0  0  0  0  0  0  0  0  0  0
    4.9146   -3.9277    2.8202 C   0  0  2  0  0  0  0  0  0  0  0  0
    4.7282   -5.3305    3.4859 C   0  0  1  0  0  0  0  0  0  0  0  0
    4.5440   -5.1778    5.0050 C   0  0  0  0  0  0  0  0  0  0  0  0
    3.2871   -4.3458    5.2940 C   0  0  1  0  0  0  0  0  0  0  0  0
    3.4503   -2.9513    4.6633 C   0  0  0  0  0  0  0  0  0  0  0  0
    3.6328   -3.0884    3.1382 C   0  0  2  0  0  0  0  0  0  0  0  0
    2.3933   -3.7924    2.5415 C   0  0  0  0  0  0  0  0  0  0  0  0
    2.2165   -5.2006    3.1614 C   0  0  2  0  0  0  0  0  0  0  0  0
    0.9948   -5.8836    2.5089 C   0  0  0  0  0  0  0  0  0  0  0  0
    0.0476   -6.2626    3.2417 O   0  0  0  0  0  0  0  0  0  0  0  0
    0.9512   -5.9374    1.2598 O   0  0  0  0  0  0  0  0  0  0  0  0
    2.0550   -5.0547    4.6961 C   0  0  0  0  0  0  0  0  0  0  0  0
    3.4894   -6.0360    2.8757 C   0  0  0  0  0  0  0  0  0  0  0  0
    6.2497   -5.1237   -0.0801 H   0  0  0  0  0  0  0  0  0  0  0  0
    5.9988   -5.9937    1.3695 H   0  0  0  0  0  0  0  0  0  0  0  0
    7.1819   -4.6702    1.3639 H   0  0  0  0  0  0  0  0  0  0  0  0
    4.6742   -1.9906    0.9654 H   0  0  0  0  0  0  0  0  0  0  0  0
    6.3878   -2.3250    1.1310 H   0  0  0  0  0  0  0  0  0  0  0  0
    7.6307   -2.9131   -1.3285 H   0  0  0  0  0  0  0  0  0  0  0  0
    2.0207   -3.2718   -4.4892 H   0  0  0  0  0  0  0  0  0  0  0  0
    1.1025   -3.0588   -2.1726 H   0  0  0  0  0  0  0  0  0  0  0  0
    2.7206   -2.7782   -0.2662 H   0  0  0  0  0  0  0  0  0  0  0  0
    5.7817   -3.4396    3.2718 H   0  0  0  0  0  0  0  0  0  0  0  0
    5.6141   -5.9561    3.3914 H   0  0  0  0  0  0  0  0  0  0  0  0
    4.4565   -6.1650    5.4547 H   0  0  0  0  0  0  0  0  0  0  0  0
    5.4276   -4.7132    5.4413 H   0  0  0  0  0  0  0  0  0  0  0  0
    3.1584   -4.2473    6.3713 H   0  0  0  0  0  0  0  0  0  0  0  0
    2.5727   -2.3406    4.8747 H   0  0  0  0  0  0  0  0  0  0  0  0
    4.3043   -2.4310    5.0998 H   0  0  0  0  0  0  0  0  0  0  0  0
    3.6982   -2.0687    2.7607 H   0  0  0  0  0  0  0  0  0  0  0  0
    1.5030   -3.1772    2.6735 H   0  0  0  0  0  0  0  0  0  0  0  0
    2.5222   -3.9079    1.4701 H   0  0  0  0  0  0  0  0  0  0  0  0
    1.9491   -6.0408    5.1519 H   0  0  0  0  0  0  0  0  0  0  0  0
    1.1547   -4.4866    4.9341 H   0  0  0  0  0  0  0  0  0  0  0  0
    3.6174   -6.1662    1.7987 H   0  0  0  0  0  0  0  0  0  0  0  0
    3.3892   -7.0408    3.2844 H   0  0  0  0  0  0  0  0  0  0  0  0
  1  2  1  0
  1 26  1  0
  1 27  1  0
  1 28  1  0
  2  3  1  0
  2 13  1  0
  3  4  1  0
  3 29  1  0
  3 30  1  0
  4 12  1  0
  4  5  2  0
  5  6  1  0
  5 31  1  0
  6  7  2  0
  7 12  1  0
  7  8  1  0
  8  9  2  0
  9 10  1  0
  9 32  1  0
 10 11  2  0
 10 33  1  0
 11 12  1  0
 11 34  1  0
 13 18  1  0
 13 14  1  0
 13 35  1  1
 14 25  1  0
 14 15  1  0
 14 36  1  1
 15 16  1  0
 15 37  1  0
 15 38  1  0
 16 24  1  0
 16 17  1  0
 16 39  1  1
 17 18  1  0
 17 40  1  0
 17 41  1  0
 18 19  1  0
 18 42  1  6
 19 20  1  0
 19 43  1  0
 19 44  1  0
 20 21  1  6
 20 24  1  0
 20 25  1  0
 21 22  2  0
 21 23  1  0
 24 45  1  0
 24 46  1  0
 25 47  1  0
 25 48  1  0
M  CHG  1  23  -1
M  END
>  <i_m_ct_stereo_status>  (114) 
1

>  <s_m_source_file>  (114) 
/var/tmp/pbs.5076255.sched01/tmpb5cfx69f/43pm4c6kpw.sdf

>  <i_m_source_file_index>  (114) 
3

>  <i_lp_mmshare_version>  (114) 
48012

>  <i_f3d_flags>  (114) 
0

>  <s_epik_input>  (114) 
Tz1DKFtPSF0pW0NAQF0xMltDSDJdW0NAQEhdM1tDQEBIXShbQ0BIXShbQ0gyXTIpW0NIMl1bQ0BASF0oW0NIMl0zKVtDSDJdMSlOKFtDSDNdKVtDSDJdYyhbY0hdbjQpbihjNDUpW2NIXVtjSF1bY0hdbjU=

>  <s_epik_cmdline>  (114) 
J2VwaWtfcHl0aG9uJywgJy1waHQnLCAnMi4wJywgJy1waCcsICc3LjAnLCAnLXRuJywgJzgnLCAnLW1hJywgJzIwMCcsICctaW1hZScsICc8aW5maWxlLm1hZT4nLCAnLW9tYWUnLCAnPG91dGZpbGUubWFlPic=

>  <r_epik_Ionization_Penalty>  (114) 
1.45808

>  <r_epik_Ionization_Penalty_Charging>  (114) 
0.00744818

>  <r_epik_Ionization_Penalty_Neutral>  (114) 
1.45063

>  <r_epik_State_Penalty>  (114) 
1.5368

>  <r_epik_Charging_Adjusted_Penalty>  (114) 
1.54425

>  <i_epik_Tot_Q>  (114) 
-1

>  <i_epik_Tot_abs_Q>  (114) 
1

>  <s_lp_Force_Field>  (114) 
OPLS3e

>  <r_lp_Energy>  (114) 
45.774

>  <b_lp_Chiralities_Consistent>  (114) 
1

>  <s_lp_Variant>  (114) 
28:0-2

>  <s_i_glide_gridfile>  (114) 
pfpi4k_grid

>  <i_i_glide_lignum>  (114) 
3

>  <i_i_glide_rotatable_bonds>  (114) 
4

>  <r_i_docking_score>  (114) 
-4.47099

>  <r_i_glide_ligand_efficiency>  (114) 
-0.17884

>  <r_i_glide_ligand_efficiency_sa>  (114) 
-0.522931

>  <r_i_glide_ligand_efficiency_ln>  (114) 
-1.05976

>  <r_i_glide_gscore>  (114) 
-4.47099

>  <r_i_glide_lipo>  (114) 
-0.492647

>  <r_i_glide_hbond>  (114) 
-0.405967

>  <r_i_glide_metal>  (114) 
-0

>  <r_i_glide_rewards>  (114) 
-2.04975

>  <r_i_glide_evdw>  (114) 
-20.9017

>  <r_i_glide_ecoul>  (114) 
-5.99011

>  <r_i_glide_erotb>  (114) 
0.492821

>  <r_i_glide_esite>  (114) 
-0.0718486

>  <r_i_glide_emodel>  (114) 
-39.3412

>  <r_i_glide_energy>  (114) 
-26.8919

>  <r_i_glide_einternal>  (114) 
0.519351

>  <r_i_glide_intrahb_reward>  (114) 
-0

>  <i_i_glide_confnum>  (114) 
6

>  <i_i_glide_posenum>  (114) 
2

>  <r_i_glide_eff_state_penalty>  (114) 
0

>  <ligand_id>  (114) 
28

>  <original_smiles>  (114) 
CN(Cc1cnc2ncccn12)C1C2CC3CC1CC(C(=O)O)(C3)C2

>  <smiles>  (114) 
[H]c1nc2nc([H])c(C([H])([H])N(C([H])([H])[H])C3([H])C4([H])C([H])([H])C5([H])C([H])([H])C3([H])C([H])([H])C(C(=O)[O-])(C5([H])[H])C4([H])[H])n2c([H])c1[H]

$$$$
28:1:1
     RDKit          3D

 48 52  0  0  1  0  0  0  0  0999 V2000
    5.5017   -6.1794    0.1721 C   0  0  0  0  0  0  0  0  0  0  0  0
    4.8041   -5.4417    1.2268 N   0  0  0  0  0  0  0  0  0  0  0  0
    5.4680   -4.1618    1.4730 C   0  0  0  0  0  0  0  0  0  0  0  0
    5.6845   -3.3569    0.2331 C   0  0  0  0  0  0  0  0  0  0  0  0
    6.8295   -2.8207   -0.2716 C   0  0  0  0  0  0  0  0  0  0  0  0
    6.6085   -2.2505   -1.5345 N   0  0  0  0  0  0  0  0  0  0  0  0
    5.3072   -2.4013   -1.7808 C   0  0  0  0  0  0  0  0  0  0  0  0
    4.5981   -2.0263   -2.8692 N   0  0  0  0  0  0  0  0  0  0  0  0
    3.3074   -2.3402   -2.8937 C   0  0  0  0  0  0  0  0  0  0  0  0
    2.6445   -3.0512   -1.8611 C   0  0  0  0  0  0  0  0  0  0  0  0
    3.3741   -3.4230   -0.7607 C   0  0  0  0  0  0  0  0  0  0  0  0
    4.6941   -3.0823   -0.6993 N   0  0  0  0  0  0  0  0  0  0  0  0
    4.5504   -6.2404    2.4518 C   0  0  2  0  0  0  0  0  0  0  0  0
    3.9462   -7.6593    2.1580 C   0  0  1  0  0  0  0  0  0  0  0  0
    3.7949   -8.4615    3.4529 C   0  0  0  0  0  0  0  0  0  0  0  0
    2.8476   -7.7328    4.4054 C   0  0  1  0  0  0  0  0  0  0  0  0
    3.4245   -6.3438    4.7356 C   0  0  0  0  0  0  0  0  0  0  0  0
    3.5665   -5.5153    3.4396 C   0  0  2  0  0  0  0  0  0  0  0  0
    2.1688   -5.3598    2.7924 C   0  0  0  0  0  0  0  0  0  0  0  0
    1.5840   -6.7644    2.4254 C   0  0  2  0  0  0  0  0  0  0  0  0
    0.2089   -6.6135    1.7335 C   0  0  0  0  0  0  0  0  0  0  0  0
   -0.8312   -6.6661    2.4119 O   0  0  0  0  0  0  0  0  0  0  0  0
    0.2165   -6.2731    0.5358 O   0  0  0  0  0  0  0  0  0  0  0  0
    1.4640   -7.5840    3.7424 C   0  0  0  0  0  0  0  0  0  0  0  0
    2.5720   -7.4886    1.4815 C   0  0  0  0  0  0  0  0  0  0  0  0
    5.5384   -5.5986   -0.7441 H   0  0  0  0  0  0  0  0  0  0  0  0
    4.9808   -7.0883   -0.1389 H   0  0  0  0  0  0  0  0  0  0  0  0
    6.5200   -6.4213    0.4693 H   0  0  0  0  0  0  0  0  0  0  0  0
    4.8690   -3.5497    2.1400 H   0  0  0  0  0  0  0  0  0  0  0  0
    6.4290   -4.3353    1.9468 H   0  0  0  0  0  0  0  0  0  0  0  0
    7.8226   -2.8612    0.1462 H   0  0  0  0  0  0  0  0  0  0  0  0
    2.7358   -2.0096   -3.7562 H   0  0  0  0  0  0  0  0  0  0  0  0
    1.5731   -3.2791   -1.9297 H   0  0  0  0  0  0  0  0  0  0  0  0
    2.9343   -3.9820    0.0603 H   0  0  0  0  0  0  0  0  0  0  0  0
    5.5159   -6.3837    2.9564 H   0  0  0  0  0  0  0  0  0  0  0  0
    4.6069   -8.2864    1.5514 H   0  0  0  0  0  0  0  0  0  0  0  0
    3.4036   -9.4419    3.2054 H   0  0  0  0  0  0  0  0  0  0  0  0
    4.7702   -8.6096    3.9083 H   0  0  0  0  0  0  0  0  0  0  0  0
    2.7313   -8.3056    5.3230 H   0  0  0  0  0  0  0  0  0  0  0  0
    2.7671   -5.8183    5.4308 H   0  0  0  0  0  0  0  0  0  0  0  0
    4.3935   -6.4426    5.2313 H   0  0  0  0  0  0  0  0  0  0  0  0
    3.9452   -4.5447    3.7606 H   0  0  0  0  0  0  0  0  0  0  0  0
    1.4997   -4.8117    3.4575 H   0  0  0  0  0  0  0  0  0  0  0  0
    2.2469   -4.7486    1.9007 H   0  0  0  0  0  0  0  0  0  0  0  0
    1.0512   -8.5707    3.5153 H   0  0  0  0  0  0  0  0  0  0  0  0
    0.7920   -7.0873    4.4490 H   0  0  0  0  0  0  0  0  0  0  0  0
    2.6901   -6.9087    0.5645 H   0  0  0  0  0  0  0  0  0  0  0  0
    2.1753   -8.4583    1.1838 H   0  0  0  0  0  0  0  0  0  0  0  0
  1  2  1  0
  1 26  1  0
  1 27  1  0
  1 28  1  0
  2  3  1  0
  2 13  1  0
  3  4  1  0
  3 29  1  0
  3 30  1  0
  4 12  1  0
  4  5  2  0
  5  6  1  0
  5 31  1  0
  6  7  2  0
  7 12  1  0
  7  8  1  0
  8  9  2  0
  9 10  1  0
  9 32  1  0
 10 11  2  0
 10 33  1  0
 11 12  1  0
 11 34  1  0
 13 18  1  0
 13 14  1  0
 13 35  1  1
 14 25  1  0
 14 15  1  0
 14 36  1  6
 15 16  1  0
 15 37  1  0
 15 38  1  0
 16 24  1  0
 16 17  1  0
 16 39  1  1
 17 18  1  0
 17 40  1  0
 17 41  1  0
 18 19  1  0
 18 42  1  1
 19 20  1  0
 19 43  1  0
 19 44  1  0
 20 21  1  6
 20 24  1  0
 20 25  1  0
 21 22  2  0
 21 23  1  0
 24 45  1  0
 24 46  1  0
 25 47  1  0
 25 48  1  0
M  CHG  1  23  -1
M  END
>  <i_m_ct_stereo_status>  (115) 
1

>  <s_m_source_file>  (115) 
/var/tmp/pbs.5076255.sched01/tmpb5cfx69f/43pm4c6kpw.sdf

>  <i_m_source_file_index>  (115) 
3

>  <i_lp_mmshare_version>  (115) 
48012

>  <i_f3d_flags>  (115) 
0

>  <s_epik_input>  (115) 
Tz1DKFtPSF0pW0NAQF0xMltDSDJdW0NAQEhdM1tDQEBIXShbQ0BIXShbQ0gyXTIpW0NIMl1bQ0BASF0oW0NIMl0zKVtDSDJdMSlOKFtDSDNdKVtDSDJdYyhbY0hdbjQpbihjNDUpW2NIXVtjSF1bY0hdbjU=

>  <s_epik_cmdline>  (115) 
J2VwaWtfcHl0aG9uJywgJy1waHQnLCAnMi4wJywgJy1waCcsICc3LjAnLCAnLXRuJywgJzgnLCAnLW1hJywgJzIwMCcsICctaW1hZScsICc8aW5maWxlLm1hZT4nLCAnLW9tYWUnLCAnPG91dGZpbGUubWFlPic=

>  <r_epik_Ionization_Penalty>  (115) 
1.45808

>  <r_epik_Ionization_Penalty_Charging>  (115) 
0.00744818

>  <r_epik_Ionization_Penalty_Neutral>  (115) 
1.45063

>  <r_epik_State_Penalty>  (115) 
1.5368

>  <r_epik_Charging_Adjusted_Penalty>  (115) 
1.54425

>  <i_epik_Tot_Q>  (115) 
-1

>  <i_epik_Tot_abs_Q>  (115) 
1

>  <s_lp_Force_Field>  (115) 
OPLS3e

>  <r_lp_Energy>  (115) 
45.774

>  <b_lp_Chiralities_Consistent>  (115) 
1

>  <s_lp_Variant>  (115) 
28:0-2

>  <s_i_glide_gridfile>  (115) 
pfpi4k_grid

>  <i_i_glide_lignum>  (115) 
3

>  <i_i_glide_rotatable_bonds>  (115) 
4

>  <r_i_docking_score>  (115) 
-4.13764

>  <r_i_glide_ligand_efficiency>  (115) 
-0.165506

>  <r_i_glide_ligand_efficiency_sa>  (115) 
-0.483942

>  <r_i_glide_ligand_efficiency_ln>  (115) 
-0.980745

>  <r_i_glide_gscore>  (115) 
-4.13764

>  <r_i_glide_lipo>  (115) 
-0.30297

>  <r_i_glide_hbond>  (115) 
-0.584034

>  <r_i_glide_metal>  (115) 
-0

>  <r_i_glide_rewards>  (115) 
-1.12283

>  <r_i_glide_evdw>  (115) 
-21.5809

>  <r_i_glide_ecoul>  (115) 
-9.51975

>  <r_i_glide_erotb>  (115) 
0.492821

>  <r_i_glide_esite>  (115) 
-0.113627

>  <r_i_glide_emodel>  (115) 
-41.4918

>  <r_i_glide_energy>  (115) 
-31.1006

>  <r_i_glide_einternal>  (115) 
1.97479

>  <r_i_glide_intrahb_reward>  (115) 
-0

>  <i_i_glide_confnum>  (115) 
6

>  <i_i_glide_posenum>  (115) 
11

>  <r_i_glide_eff_state_penalty>  (115) 
0

>  <ligand_id>  (115) 
28

>  <original_smiles>  (115) 
CN(Cc1cnc2ncccn12)C1C2CC3CC1CC(C(=O)O)(C3)C2

>  <smiles>  (115) 
[H]c1nc2nc([H])c(C([H])([H])N(C([H])([H])[H])C3([H])C4([H])C([H])([H])C5([H])C([H])([H])C3([H])C([H])([H])C(C(=O)[O-])(C5([H])[H])C4([H])[H])n2c([H])c1[H]

$$$$
28:1:2
     RDKit          3D

 48 52  0  0  1  0  0  0  0  0999 V2000
    5.6004   -6.8180    0.7955 C   0  0  0  0  0  0  0  0  0  0  0  0
    4.8580   -6.1864    1.8890 N   0  0  0  0  0  0  0  0  0  0  0  0
    5.6499   -5.1111    2.4968 C   0  0  0  0  0  0  0  0  0  0  0  0
    6.1918   -4.1560    1.4856 C   0  0  0  0  0  0  0  0  0  0  0  0
    7.4286   -4.0977    0.9104 C   0  0  0  0  0  0  0  0  0  0  0  0
    7.4873   -3.1146   -0.0849 N   0  0  0  0  0  0  0  0  0  0  0  0
    6.2767   -2.5767   -0.1107 C   0  0  0  0  0  0  0  0  0  0  0  0
    5.8251   -1.5863   -0.9040 N   0  0  0  0  0  0  0  0  0  0  0  0
    4.5596   -1.2176   -0.7626 C   0  0  0  0  0  0  0  0  0  0  0  0
    3.6618   -1.8099    0.1581 C   0  0  0  0  0  0  0  0  0  0  0  0
    4.1225   -2.8252    0.9634 C   0  0  0  0  0  0  0  0  0  0  0  0
    5.4302   -3.1936    0.8458 N   0  0  0  0  0  0  0  0  0  0  0  0
    4.3449   -7.1664    2.8806 C   0  0  2  0  0  0  0  0  0  0  0  0
    3.6149   -8.3873    2.2229 C   0  0  1  0  0  0  0  0  0  0  0  0
    3.1735   -9.3987    3.2833 C   0  0  0  0  0  0  0  0  0  0  0  0
    2.1953   -8.7320    4.2569 C   0  0  1  0  0  0  0  0  0  0  0  0
    2.8952   -7.5433    4.9406 C   0  0  0  0  0  0  0  0  0  0  0  0
    3.3382   -6.5086    3.8831 C   0  0  2  0  0  0  0  0  0  0  0  0
    2.0902   -6.0058    3.1111 C   0  0  0  0  0  0  0  0  0  0  0  0
    1.3805   -7.1971    2.4083 C   0  0  2  0  0  0  0  0  0  0  0  0
    0.1447   -6.6860    1.6386 C   0  0  0  0  0  0  0  0  0  0  0  0
    0.3047   -6.2608    0.4708 O   0  0  0  0  0  0  0  0  0  0  0  0
   -0.9523   -6.6608    2.2270 O   0  0  0  0  0  0  0  0  0  0  0  0
    0.9618   -8.2340    3.4823 C   0  0  0  0  0  0  0  0  0  0  0  0
    2.3856   -7.8717    1.4450 C   0  0  0  0  0  0  0  0  0  0  0  0
    5.8227   -6.0867    0.0152 H   0  0  0  0  0  0  0  0  0  0  0  0
    5.0194   -7.5554    0.2433 H   0  0  0  0  0  0  0  0  0  0  0  0
    6.5341   -7.2571    1.1558 H   0  0  0  0  0  0  0  0  0  0  0  0
    5.0224   -4.5342    3.1779 H   0  0  0  0  0  0  0  0  0  0  0  0
    6.4745   -5.5375    3.0733 H   0  0  0  0  0  0  0  0  0  0  0  0
    8.2834   -4.7337    1.1147 H   0  0  0  0  0  0  0  0  0  0  0  0
    4.2077   -0.4103   -1.4089 H   0  0  0  0  0  0  0  0  0  0  0  0
    2.6231   -1.4801    0.2158 H   0  0  0  0  0  0  0  0  0  0  0  0
    3.5050   -3.3556    1.6880 H   0  0  0  0  0  0  0  0  0  0  0  0
    5.2007   -7.5511    3.4405 H   0  0  0  0  0  0  0  0  0  0  0  0
    4.2603   -8.9873    1.5817 H   0  0  0  0  0  0  0  0  0  0  0  0
    2.7048  -10.2479    2.7881 H   0  0  0  0  0  0  0  0  0  0  0  0
    4.0453   -9.7878    3.8085 H   0  0  0  0  0  0  0  0  0  0  0  0
    1.8775   -9.4602    5.0061 H   0  0  0  0  0  0  0  0  0  0  0  0
    2.2176   -7.0780    5.6542 H   0  0  0  0  0  0  0  0  0  0  0  0
    3.7536   -7.8946    5.5146 H   0  0  0  0  0  0  0  0  0  0  0  0
    3.7949   -5.6913    4.4433 H   0  0  0  0  0  0  0  0  0  0  0  0
    1.4185   -5.4801    3.7908 H   0  0  0  0  0  0  0  0  0  0  0  0
    2.3965   -5.2665    2.3690 H   0  0  0  0  0  0  0  0  0  0  0  0
    0.4659   -9.0753    2.9962 H   0  0  0  0  0  0  0  0  0  0  0  0
    0.2511   -7.8087    4.1913 H   0  0  0  0  0  0  0  0  0  0  0  0
    2.7123   -7.1375    0.7056 H   0  0  0  0  0  0  0  0  0  0  0  0
    1.9086   -8.6884    0.9052 H   0  0  0  0  0  0  0  0  0  0  0  0
  1  2  1  0
  1 26  1  0
  1 27  1  0
  1 28  1  0
  2  3  1  0
  2 13  1  0
  3  4  1  0
  3 29  1  0
  3 30  1  0
  4 12  1  0
  4  5  2  0
  5  6  1  0
  5 31  1  0
  6  7  2  0
  7 12  1  0
  7  8  1  0
  8  9  2  0
  9 10  1  0
  9 32  1  0
 10 11  2  0
 10 33  1  0
 11 12  1  0
 11 34  1  0
 13 18  1  0
 13 14  1  0
 13 35  1  1
 14 25  1  0
 14 15  1  0
 14 36  1  6
 15 16  1  0
 15 37  1  0
 15 38  1  0
 16 24  1  0
 16 17  1  0
 16 39  1  1
 17 18  1  0
 17 40  1  0
 17 41  1  0
 18 19  1  0
 18 42  1  1
 19 20  1  0
 19 43  1  0
 19 44  1  0
 20 21  1  6
 20 24  1  0
 20 25  1  0
 21 22  2  0
 21 23  1  0
 24 45  1  0
 24 46  1  0
 25 47  1  0
 25 48  1  0
M  CHG  1  23  -1
M  END
>  <i_m_ct_stereo_status>  (116) 
1

>  <s_m_source_file>  (116) 
/var/tmp/pbs.5076255.sched01/tmpb5cfx69f/43pm4c6kpw.sdf

>  <i_m_source_file_index>  (116) 
3

>  <i_lp_mmshare_version>  (116) 
48012

>  <i_f3d_flags>  (116) 
0

>  <s_epik_input>  (116) 
Tz1DKFtPSF0pW0NAQF0xMltDSDJdW0NAQEhdM1tDQEBIXShbQ0BIXShbQ0gyXTIpW0NIMl1bQ0BASF0oW0NIMl0zKVtDSDJdMSlOKFtDSDNdKVtDSDJdYyhbY0hdbjQpbihjNDUpW2NIXVtjSF1bY0hdbjU=

>  <s_epik_cmdline>  (116) 
J2VwaWtfcHl0aG9uJywgJy1waHQnLCAnMi4wJywgJy1waCcsICc3LjAnLCAnLXRuJywgJzgnLCAnLW1hJywgJzIwMCcsICctaW1hZScsICc8aW5maWxlLm1hZT4nLCAnLW9tYWUnLCAnPG91dGZpbGUubWFlPic=

>  <r_epik_Ionization_Penalty>  (116) 
1.45808

>  <r_epik_Ionization_Penalty_Charging>  (116) 
0.00744818

>  <r_epik_Ionization_Penalty_Neutral>  (116) 
1.45063

>  <r_epik_State_Penalty>  (116) 
1.5368

>  <r_epik_Charging_Adjusted_Penalty>  (116) 
1.54425

>  <i_epik_Tot_Q>  (116) 
-1

>  <i_epik_Tot_abs_Q>  (116) 
1

>  <s_lp_Force_Field>  (116) 
OPLS3e

>  <r_lp_Energy>  (116) 
45.774

>  <b_lp_Chiralities_Consistent>  (116) 
1

>  <s_lp_Variant>  (116) 
28:0-2

>  <s_i_glide_gridfile>  (116) 
pfpi4k_grid

>  <i_i_glide_lignum>  (116) 
3

>  <i_i_glide_rotatable_bonds>  (116) 
4

>  <r_i_docking_score>  (116) 
-3.98211

>  <r_i_glide_ligand_efficiency>  (116) 
-0.159284

>  <r_i_glide_ligand_efficiency_sa>  (116) 
-0.46575

>  <r_i_glide_ligand_efficiency_ln>  (116) 
-0.943879

>  <r_i_glide_gscore>  (116) 
-3.98211

>  <r_i_glide_lipo>  (116) 
-0.288041

>  <r_i_glide_hbond>  (116) 
-0.477497

>  <r_i_glide_metal>  (116) 
-0

>  <r_i_glide_rewards>  (116) 
-1.17968

>  <r_i_glide_evdw>  (116) 
-18.8857

>  <r_i_glide_ecoul>  (116) 
-9.90281

>  <r_i_glide_erotb>  (116) 
0.492821

>  <r_i_glide_esite>  (116) 
-0.1

>  <r_i_glide_emodel>  (116) 
-38.9959

>  <r_i_glide_energy>  (116) 
-28.7885

>  <r_i_glide_einternal>  (116) 
1.68839

>  <r_i_glide_intrahb_reward>  (116) 
-0

>  <i_i_glide_confnum>  (116) 
6

>  <i_i_glide_posenum>  (116) 
1

>  <r_i_glide_eff_state_penalty>  (116) 
0

>  <ligand_id>  (116) 
28

>  <original_smiles>  (116) 
CN(Cc1cnc2ncccn12)C1C2CC3CC1CC(C(=O)O)(C3)C2

>  <smiles>  (116) 
[H]c1nc2nc([H])c(C([H])([H])N(C([H])([H])[H])C3([H])C4([H])C([H])([H])C5([H])C([H])([H])C3([H])C([H])([H])C(C(=O)[O-])(C5([H])[H])C4([H])[H])n2c([H])c1[H]

$$$$
29:0:0
     RDKit          3D

 57 61  0  0  1  0  0  0  0  0999 V2000
    0.8880   -5.9684    4.8679 C   0  0  0  0  0  0  0  0  0  0  0  0
    1.3315   -5.6995    3.4203 C   0  0  2  0  0  0  0  0  0  0  0  0
    2.0334   -6.9461    2.7704 C   0  0  0  0  0  0  0  0  0  0  0  0
    3.5860   -7.1269    2.6561 C   0  0  0  0  0  0  0  0  0  0  0  0
    4.1996   -7.5197    4.0132 C   0  0  0  0  0  0  0  0  0  0  0  0
    3.8751   -8.2728    1.6707 C   0  0  0  0  0  0  0  0  0  0  0  0
    4.3118   -6.0307    2.0659 O   0  0  0  0  0  0  0  0  0  0  0  0
    3.9745   -4.7399    2.5519 C   0  0  1  0  0  0  0  0  0  0  0  0
    4.8880   -3.6054    2.6627 C   0  0  1  0  0  0  0  0  0  0  0  0
    5.1204   -3.2965    1.0638 C   0  0  1  0  0  0  0  0  0  0  0  0
    4.2733   -4.2160    0.0400 C   0  0  0  0  0  0  0  0  0  0  0  0
    2.7519   -4.3837    0.4395 C   0  0  1  0  0  0  0  0  0  0  0  0
    2.2649   -5.6516    0.0834 O   0  0  0  0  0  0  0  0  0  0  0  0
    2.7148   -3.9790    1.9259 C   0  0  2  0  0  0  0  0  0  0  0  0
    2.6676   -2.3871    1.6675 C   0  0  0  0  0  0  0  0  0  0  0  0
    3.4712   -1.5455    0.9644 C   0  0  0  0  0  0  0  0  0  0  0  0
    4.9047   -1.8434    0.6243 C   0  0  0  0  0  0  0  0  0  0  0  0
    5.8226   -0.9048    1.4287 C   0  0  0  0  0  0  0  0  0  0  0  0
    5.2112   -1.5466   -0.8657 C   0  0  0  0  0  0  0  0  0  0  0  0
    2.2125   -1.7146    2.7393 O   0  0  0  0  0  0  0  0  0  0  0  0
    3.4987   -1.5029    3.5311 O   0  0  0  0  0  0  0  0  0  0  0  0
    4.0196   -2.7965    3.8657 C   0  0  2  0  0  0  0  0  0  0  0  0
    4.9292   -2.5313    5.0745 C   0  0  0  0  0  0  0  0  0  0  0  0
    2.6323   -3.5235    4.3696 C   0  0  0  0  0  0  0  0  0  0  0  0
    1.8165   -4.2253    3.1646 C   0  0  2  0  0  0  0  0  0  0  0  0
    1.7358   -6.1509    5.5275 H   0  0  0  0  0  0  0  0  0  0  0  0
    0.2472   -6.8485    4.9185 H   0  0  0  0  0  0  0  0  0  0  0  0
    0.3131   -5.1310    5.2683 H   0  0  0  0  0  0  0  0  0  0  0  0
    0.3807   -5.7079    2.8895 H   0  0  0  0  0  0  0  0  0  0  0  0
    1.6716   -7.8203    3.3132 H   0  0  0  0  0  0  0  0  0  0  0  0
    1.5806   -7.1122    1.7965 H   0  0  0  0  0  0  0  0  0  0  0  0
    3.8396   -8.4985    4.3260 H   0  0  0  0  0  0  0  0  0  0  0  0
    3.9455   -6.8247    4.8104 H   0  0  0  0  0  0  0  0  0  0  0  0
    5.2841   -7.5741    3.9423 H   0  0  0  0  0  0  0  0  0  0  0  0
    3.3863   -9.2014    1.9717 H   0  0  0  0  0  0  0  0  0  0  0  0
    4.9454   -8.4670    1.5971 H   0  0  0  0  0  0  0  0  0  0  0  0
    3.5251   -8.0268    0.6686 H   0  0  0  0  0  0  0  0  0  0  0  0
    3.9956   -5.0926    3.5714 H   0  0  0  0  0  0  0  0  0  0  0  0
    5.8357   -3.9491    3.0948 H   0  0  0  0  0  0  0  0  0  0  0  0
    6.1719   -3.5193    0.8676 H   0  0  0  0  0  0  0  0  0  0  0  0
    4.3393   -3.9121   -0.9999 H   0  0  0  0  0  0  0  0  0  0  0  0
    4.7647   -5.1870   -0.0025 H   0  0  0  0  0  0  0  0  0  0  0  0
    2.1608   -3.6890   -0.1686 H   0  0  0  0  0  0  0  0  0  0  0  0
    2.5305   -5.8178   -0.8170 H   0  0  0  0  0  0  0  0  0  0  0  0
    3.2859   -0.4867    1.0798 H   0  0  0  0  0  0  0  0  0  0  0  0
    6.8791   -1.0817    1.2019 H   0  0  0  0  0  0  0  0  0  0  0  0
    5.7057   -1.0177    2.5028 H   0  0  0  0  0  0  0  0  0  0  0  0
    5.6114    0.1380    1.1960 H   0  0  0  0  0  0  0  0  0  0  0  0
    6.1497   -2.0062   -1.1717 H   0  0  0  0  0  0  0  0  0  0  0  0
    5.3095   -0.4773   -1.0469 H   0  0  0  0  0  0  0  0  0  0  0  0
    4.4355   -1.8853   -1.5474 H   0  0  0  0  0  0  0  0  0  0  0  0
    5.3590   -3.4532    5.4671 H   0  0  0  0  0  0  0  0  0  0  0  0
    4.3800   -2.0530    5.8884 H   0  0  0  0  0  0  0  0  0  0  0  0
    5.7585   -1.8615    4.8137 H   0  0  0  0  0  0  0  0  0  0  0  0
    2.8964   -4.2598    5.1281 H   0  0  0  0  0  0  0  0  0  0  0  0
    2.0153   -2.8206    4.9202 H   0  0  0  0  0  0  0  0  0  0  0  0
    0.8995   -3.6485    3.0347 H   0  0  0  0  0  0  0  0  0  0  0  0
  1  2  1  0
  1 26  1  0
  1 27  1  0
  1 28  1  0
  2 25  1  0
  2  3  1  0
  2 29  1  6
  3  4  1  0
  3 30  1  0
  3 31  1  0
  4  5  1  0
  4  6  1  0
  4  7  1  0
  5 32  1  0
  5 33  1  0
  5 34  1  0
  6 35  1  0
  6 36  1  0
  6 37  1  0
  7  8  1  0
  8 14  1  0
  8  9  1  0
  8 38  1  1
  9 22  1  0
  9 10  1  0
  9 39  1  1
 10 17  1  0
 10 11  1  0
 10 40  1  6
 11 12  1  0
 11 41  1  0
 11 42  1  0
 12 13  1  0
 12 14  1  0
 12 43  1  6
 13 44  1  0
 14 25  1  0
 14 15  1  6
 15 16  2  0
 15 20  1  0
 16 17  1  0
 16 45  1  0
 17 18  1  0
 17 19  1  0
 18 46  1  0
 18 47  1  0
 18 48  1  0
 19 49  1  0
 19 50  1  0
 19 51  1  0
 20 21  1  0
 21 22  1  0
 22 23  1  1
 22 24  1  0
 23 52  1  0
 23 53  1  0
 23 54  1  0
 24 25  1  0
 24 55  1  0
 24 56  1  0
 25 57  1  6
M  END
>  <i_m_ct_stereo_status>  (117) 
1

>  <s_m_source_file>  (117) 
/var/tmp/pbs.5076255.sched01/tmpb5cfx69f/43pm4c6kpw.sdf

>  <i_m_source_file_index>  (117) 
4

>  <i_lp_mmshare_version>  (117) 
48012

>  <i_f3d_flags>  (117) 
0

>  <s_epik_input>  (117) 
W0NIM11DKE8xKShbQ0gzXSlbQ0gyXVtDQEBIXShbQ0gzXSlbQ0BIXTJbQ0gyXVtDQF0zKFtDSDNdKU9PQzQ9W0NIXUMoW0NIM10pKFtDSDNdKVtDQEBIXShbQ0BASF0zW0NASF0xW0NAQF0yNDUpW0NIMl1bQ0BIXTVbT0hd

>  <s_epik_cmdline>  (117) 
J2VwaWtfcHl0aG9uJywgJy1waHQnLCAnMi4wJywgJy1waCcsICc3LjAnLCAnLXRuJywgJzgnLCAnLW1hJywgJzIwMCcsICctaW1hZScsICc8aW5maWxlLm1hZT4nLCAnLW9tYWUnLCAnPG91dGZpbGUubWFlPic=

>  <r_lp_tautomer_probability>  (117) 
1

>  <r_epik_Ionization_Penalty>  (117) 
4.67283e-08

>  <r_epik_Ionization_Penalty_Charging>  (117) 
0

>  <r_epik_Ionization_Penalty_Neutral>  (117) 
4.67283e-08

>  <r_epik_State_Penalty>  (117) 
-0

>  <r_epik_Charging_Adjusted_Penalty>  (117) 
0

>  <i_epik_Tot_Q>  (117) 
0

>  <i_epik_Tot_abs_Q>  (117) 
0

>  <s_lp_Force_Field>  (117) 
OPLS3e

>  <r_lp_Energy>  (117) 
234.956

>  <b_lp_Chiralities_Consistent>  (117) 
1

>  <s_lp_Variant>  (117) 
29:0-1

>  <s_i_glide_gridfile>  (117) 
pfpi4k_grid

>  <i_i_glide_lignum>  (117) 
4

>  <i_i_glide_rotatable_bonds>  (117) 
1

>  <r_i_docking_score>  (117) 
-2.96013

>  <r_i_glide_ligand_efficiency>  (117) 
-0.118405

>  <r_i_glide_ligand_efficiency_sa>  (117) 
-0.346219

>  <r_i_glide_ligand_efficiency_ln>  (117) 
-0.701639

>  <r_i_glide_gscore>  (117) 
-2.96013

>  <r_i_glide_lipo>  (117) 
-0.238076

>  <r_i_glide_hbond>  (117) 
0

>  <r_i_glide_metal>  (117) 
-0

>  <r_i_glide_rewards>  (117) 
-1.03312

>  <r_i_glide_evdw>  (117) 
-21.4331

>  <r_i_glide_ecoul>  (117) 
-4.1152

>  <r_i_glide_erotb>  (117) 
0

>  <r_i_glide_esite>  (117) 
0

>  <r_i_glide_emodel>  (117) 
-29.8789

>  <r_i_glide_energy>  (117) 
-25.5483

>  <r_i_glide_einternal>  (117) 
0.41221

>  <r_i_glide_intrahb_reward>  (117) 
-0

>  <i_i_glide_confnum>  (117) 
1

>  <i_i_glide_posenum>  (117) 
39

>  <r_i_glide_eff_state_penalty>  (117) 
0

>  <ligand_id>  (117) 
29

>  <original_smiles>  (117) 
CC1CC(C)(C)OC2C3C4CC(O)C25C(=CC4(C)C)OOC3(C)CC15

>  <smiles>  (117) 
[H]OC1([H])C([H])([H])C2([H])C3([H])C4([H])OC(C([H])([H])[H])(C([H])([H])[H])C([H])([H])C([H])(C([H])([H])[H])C5([H])C([H])([H])C3(C([H])([H])[H])OOC(=C([H])C2(C([H])([H])[H])C([H])([H])[H])C145

$$$$
29:0:1
     RDKit          3D

 57 61  0  0  1  0  0  0  0  0999 V2000
    4.3526   -3.3250   -2.0407 C   0  0  0  0  0  0  0  0  0  0  0  0
    3.6564   -3.0229   -0.7050 C   0  0  2  0  0  0  0  0  0  0  0  0
    4.2487   -1.7169   -0.0680 C   0  0  0  0  0  0  0  0  0  0  0  0
    5.3403   -1.7138    1.0416 C   0  0  0  0  0  0  0  0  0  0  0  0
    6.7199   -2.0541    0.4683 C   0  0  0  0  0  0  0  0  0  0  0  0
    5.4006   -0.3033    1.6203 C   0  0  0  0  0  0  0  0  0  0  0  0
    5.0716   -2.4952    2.2234 O   0  0  0  0  0  0  0  0  0  0  0  0
    4.6010   -3.8090    1.9743 C   0  0  1  0  0  0  0  0  0  0  0  0
    4.8510   -4.9637    2.8301 C   0  0  1  0  0  0  0  0  0  0  0  0
    3.9335   -4.5476    4.1256 C   0  0  1  0  0  0  0  0  0  0  0  0
    3.0983   -3.1695    3.9689 C   0  0  0  0  0  0  0  0  0  0  0  0
    2.3388   -3.0096    2.5917 C   0  0  1  0  0  0  0  0  0  0  0  0
    2.2926   -1.6530    2.2119 O   0  0  0  0  0  0  0  0  0  0  0  0
    3.0455   -4.0402    1.6834 C   0  0  2  0  0  0  0  0  0  0  0  0
    2.2198   -5.3137    2.2211 C   0  0  0  0  0  0  0  0  0  0  0  0
    2.0233   -5.8500    3.4533 C   0  0  0  0  0  0  0  0  0  0  0  0
    2.9415   -5.6042    4.6178 C   0  0  0  0  0  0  0  0  0  0  0  0
    3.6885   -6.9164    4.9784 C   0  0  0  0  0  0  0  0  0  0  0  0
    2.1461   -5.2245    5.8930 C   0  0  0  0  0  0  0  0  0  0  0  0
    2.2510   -6.3499    1.3443 O   0  0  0  0  0  0  0  0  0  0  0  0
    3.5460   -7.0520    1.7804 O   0  0  0  0  0  0  0  0  0  0  0  0
    4.6241   -6.1106    1.6197 C   0  0  2  0  0  0  0  0  0  0  0  0
    5.8688   -7.0146    1.5396 C   0  0  0  0  0  0  0  0  0  0  0  0
    4.2589   -5.5427    0.1347 C   0  0  0  0  0  0  0  0  0  0  0  0
    3.2502   -4.2757    0.1645 C   0  0  2  0  0  0  0  0  0  0  0  0
    5.3877   -3.6425   -1.9293 H   0  0  0  0  0  0  0  0  0  0  0  0
    4.3192   -2.4572   -2.6999 H   0  0  0  0  0  0  0  0  0  0  0  0
    3.7984   -4.0728   -2.5804 H   0  0  0  0  0  0  0  0  0  0  0  0
    2.6846   -2.6662   -1.0276 H   0  0  0  0  0  0  0  0  0  0  0  0
    4.6756   -1.1489   -0.8976 H   0  0  0  0  0  0  0  0  0  0  0  0
    3.4183   -1.0776    0.2092 H   0  0  0  0  0  0  0  0  0  0  0  0
    7.0483   -1.2877   -0.2213 H   0  0  0  0  0  0  0  0  0  0  0  0
    6.7534   -2.9974   -0.0646 H   0  0  0  0  0  0  0  0  0  0  0  0
    7.4487   -2.1040    1.2740 H   0  0  0  0  0  0  0  0  0  0  0  0
    5.6270    0.4331    0.8498 H   0  0  0  0  0  0  0  0  0  0  0  0
    6.1802   -0.2499    2.3886 H   0  0  0  0  0  0  0  0  0  0  0  0
    4.4519   -0.0119    2.0929 H   0  0  0  0  0  0  0  0  0  0  0  0
    5.3688   -3.9620    1.2348 H   0  0  0  0  0  0  0  0  0  0  0  0
    5.9086   -4.9860    3.1428 H   0  0  0  0  0  0  0  0  0  0  0  0
    4.6455   -4.3791    4.9473 H   0  0  0  0  0  0  0  0  0  0  0  0
    2.4034   -2.9662    4.7866 H   0  0  0  0  0  0  0  0  0  0  0  0
    3.8109   -2.3569    4.1023 H   0  0  0  0  0  0  0  0  0  0  0  0
    1.2924   -3.2863    2.7333 H   0  0  0  0  0  0  0  0  0  0  0  0
    1.8685   -1.5795    1.3690 H   0  0  0  0  0  0  0  0  0  0  0  0
    1.5803   -6.8297    3.4855 H   0  0  0  0  0  0  0  0  0  0  0  0
    4.3546   -6.7750    5.8275 H   0  0  0  0  0  0  0  0  0  0  0  0
    4.2811   -7.2867    4.1476 H   0  0  0  0  0  0  0  0  0  0  0  0
    2.9813   -7.7084    5.2338 H   0  0  0  0  0  0  0  0  0  0  0  0
    2.8080   -4.7972    6.6496 H   0  0  0  0  0  0  0  0  0  0  0  0
    1.6820   -6.0981    6.3508 H   0  0  0  0  0  0  0  0  0  0  0  0
    1.3488   -4.5188    5.7195 H   0  0  0  0  0  0  0  0  0  0  0  0
    6.7621   -6.4448    1.3272 H   0  0  0  0  0  0  0  0  0  0  0  0
    5.7383   -7.7527    0.7528 H   0  0  0  0  0  0  0  0  0  0  0  0
    6.0307   -7.5792    2.4772 H   0  0  0  0  0  0  0  0  0  0  0  0
    5.1828   -5.2772   -0.3808 H   0  0  0  0  0  0  0  0  0  0  0  0
    3.8724   -6.3642   -0.4697 H   0  0  0  0  0  0  0  0  0  0  0  0
    2.3072   -4.6085   -0.2583 H   0  0  0  0  0  0  0  0  0  0  0  0
  1  2  1  0
  1 26  1  0
  1 27  1  0
  1 28  1  0
  2 25  1  0
  2  3  1  0
  2 29  1  6
  3  4  1  0
  3 30  1  0
  3 31  1  0
  4  5  1  0
  4  6  1  0
  4  7  1  0
  5 32  1  0
  5 33  1  0
  5 34  1  0
  6 35  1  0
  6 36  1  0
  6 37  1  0
  7  8  1  0
  8 14  1  0
  8  9  1  0
  8 38  1  6
  9 22  1  0
  9 10  1  0
  9 39  1  1
 10 17  1  0
 10 11  1  0
 10 40  1  1
 11 12  1  0
 11 41  1  0
 11 42  1  0
 12 13  1  0
 12 14  1  0
 12 43  1  1
 13 44  1  0
 14 25  1  0
 14 15  1  1
 15 16  2  0
 15 20  1  0
 16 17  1  0
 16 45  1  0
 17 18  1  0
 17 19  1  0
 18 46  1  0
 18 47  1  0
 18 48  1  0
 19 49  1  0
 19 50  1  0
 19 51  1  0
 20 21  1  0
 21 22  1  0
 22 23  1  6
 22 24  1  0
 23 52  1  0
 23 53  1  0
 23 54  1  0
 24 25  1  0
 24 55  1  0
 24 56  1  0
 25 57  1  6
M  END
>  <i_m_ct_stereo_status>  (118) 
1

>  <s_m_source_file>  (118) 
/var/tmp/pbs.5076255.sched01/tmpb5cfx69f/43pm4c6kpw.sdf

>  <i_m_source_file_index>  (118) 
4

>  <i_lp_mmshare_version>  (118) 
48012

>  <i_f3d_flags>  (118) 
0

>  <s_epik_input>  (118) 
W0NIM11DKE8xKShbQ0gzXSlbQ0gyXVtDQEBIXShbQ0gzXSlbQ0BIXTJbQ0gyXVtDQF0zKFtDSDNdKU9PQzQ9W0NIXUMoW0NIM10pKFtDSDNdKVtDQEBIXShbQ0BASF0zW0NASF0xW0NAQF0yNDUpW0NIMl1bQ0BIXTVbT0hd

>  <s_epik_cmdline>  (118) 
J2VwaWtfcHl0aG9uJywgJy1waHQnLCAnMi4wJywgJy1waCcsICc3LjAnLCAnLXRuJywgJzgnLCAnLW1hJywgJzIwMCcsICctaW1hZScsICc8aW5maWxlLm1hZT4nLCAnLW9tYWUnLCAnPG91dGZpbGUubWFlPic=

>  <r_lp_tautomer_probability>  (118) 
1

>  <r_epik_Ionization_Penalty>  (118) 
4.67283e-08

>  <r_epik_Ionization_Penalty_Charging>  (118) 
0

>  <r_epik_Ionization_Penalty_Neutral>  (118) 
4.67283e-08

>  <r_epik_State_Penalty>  (118) 
-0

>  <r_epik_Charging_Adjusted_Penalty>  (118) 
0

>  <i_epik_Tot_Q>  (118) 
0

>  <i_epik_Tot_abs_Q>  (118) 
0

>  <s_lp_Force_Field>  (118) 
OPLS3e

>  <r_lp_Energy>  (118) 
234.956

>  <b_lp_Chiralities_Consistent>  (118) 
1

>  <s_lp_Variant>  (118) 
29:0-1

>  <s_i_glide_gridfile>  (118) 
pfpi4k_grid

>  <i_i_glide_lignum>  (118) 
4

>  <i_i_glide_rotatable_bonds>  (118) 
1

>  <r_i_docking_score>  (118) 
-2.78358

>  <r_i_glide_ligand_efficiency>  (118) 
-0.111343

>  <r_i_glide_ligand_efficiency_sa>  (118) 
-0.32557

>  <r_i_glide_ligand_efficiency_ln>  (118) 
-0.659792

>  <r_i_glide_gscore>  (118) 
-2.78358

>  <r_i_glide_lipo>  (118) 
-0.420317

>  <r_i_glide_hbond>  (118) 
0

>  <r_i_glide_metal>  (118) 
-0

>  <r_i_glide_rewards>  (118) 
-1.03312

>  <r_i_glide_evdw>  (118) 
-21.6709

>  <r_i_glide_ecoul>  (118) 
-1.64403

>  <r_i_glide_erotb>  (118) 
0

>  <r_i_glide_esite>  (118) 
0

>  <r_i_glide_emodel>  (118) 
-27.2526

>  <r_i_glide_energy>  (118) 
-23.3149

>  <r_i_glide_einternal>  (118) 
0.32984

>  <r_i_glide_intrahb_reward>  (118) 
-0

>  <i_i_glide_confnum>  (118) 
2

>  <i_i_glide_posenum>  (118) 
2

>  <r_i_glide_eff_state_penalty>  (118) 
0

>  <ligand_id>  (118) 
29

>  <original_smiles>  (118) 
CC1CC(C)(C)OC2C3C4CC(O)C25C(=CC4(C)C)OOC3(C)CC15

>  <smiles>  (118) 
[H]OC1([H])C([H])([H])C2([H])C3([H])C4([H])OC(C([H])([H])[H])(C([H])([H])[H])C([H])([H])C([H])(C([H])([H])[H])C5([H])C([H])([H])C3(C([H])([H])[H])OOC(=C([H])C2(C([H])([H])[H])C([H])([H])[H])C145

$$$$
29:0:2
     RDKit          3D

 57 61  0  0  1  0  0  0  0  0999 V2000
    0.6981   -3.8021    5.2724 C   0  0  0  0  0  0  0  0  0  0  0  0
    1.2018   -4.1588    3.8660 C   0  0  2  0  0  0  0  0  0  0  0  0
    1.7381   -5.6291    3.7715 C   0  0  0  0  0  0  0  0  0  0  0  0
    3.2546   -6.0178    3.8267 C   0  0  0  0  0  0  0  0  0  0  0  0
    3.7920   -5.9293    5.2671 C   0  0  0  0  0  0  0  0  0  0  0  0
    3.4004   -7.4775    3.3610 C   0  0  0  0  0  0  0  0  0  0  0  0
    4.1222   -5.3198    2.9138 O   0  0  0  0  0  0  0  0  0  0  0  0
    3.9420   -3.9121    2.8540 C   0  0  1  0  0  0  0  0  0  0  0  0
    4.9923   -2.9336    2.5859 C   0  0  1  0  0  0  0  0  0  0  0  0
    5.2867   -3.2914    1.0048 C   0  0  1  0  0  0  0  0  0  0  0  0
    4.3395   -4.4275    0.3506 C   0  0  0  0  0  0  0  0  0  0  0  0
    2.8026   -4.2580    0.6891 C   0  0  1  0  0  0  0  0  0  0  0  0
    2.1521   -5.5047    0.7850 O   0  0  0  0  0  0  0  0  0  0  0  0
    2.8020   -3.3115    1.9092 C   0  0  2  0  0  0  0  0  0  0  0  0
    2.9673   -1.9415    1.0718 C   0  0  0  0  0  0  0  0  0  0  0  0
    3.8846   -1.5356    0.1433 C   0  0  0  0  0  0  0  0  0  0  0  0
    5.2664   -2.1026    0.0365 C   0  0  0  0  0  0  0  0  0  0  0  0
    6.2944   -1.0442    0.4878 C   0  0  0  0  0  0  0  0  0  0  0  0
    5.6295   -2.4320   -1.4345 C   0  0  0  0  0  0  0  0  0  0  0  0
    2.5905   -0.8617    1.7690 O   0  0  0  0  0  0  0  0  0  0  0  0
    3.8748   -0.5117    2.5060 O   0  0  0  0  0  0  0  0  0  0  0  0
    4.2143   -1.6305    3.3352 C   0  0  2  0  0  0  0  0  0  0  0  0
    5.1282   -1.0208    4.4077 C   0  0  0  0  0  0  0  0  0  0  0  0
    2.7430   -1.9458    3.9890 C   0  0  0  0  0  0  0  0  0  0  0  0
    1.8606   -2.9595    3.0930 C   0  0  2  0  0  0  0  0  0  0  0  0
    1.5009   -3.8102    6.0118 H   0  0  0  0  0  0  0  0  0  0  0  0
   -0.0527   -4.5174    5.6022 H   0  0  0  0  0  0  0  0  0  0  0  0
    0.2288   -2.8173    5.2828 H   0  0  0  0  0  0  0  0  0  0  0  0
    0.2641   -4.2641    3.3189 H   0  0  0  0  0  0  0  0  0  0  0  0
    1.2590   -6.1851    4.5785 H   0  0  0  0  0  0  0  0  0  0  0  0
    1.2832   -6.0942    2.9028 H   0  0  0  0  0  0  0  0  0  0  0  0
    3.3039   -6.6654    5.9044 H   0  0  0  0  0  0  0  0  0  0  0  0
    3.6172   -4.9578    5.7249 H   0  0  0  0  0  0  0  0  0  0  0  0
    4.8614   -6.1278    5.2912 H   0  0  0  0  0  0  0  0  0  0  0  0
    2.7949   -8.1551    3.9664 H   0  0  0  0  0  0  0  0  0  0  0  0
    4.4381   -7.8045    3.4304 H   0  0  0  0  0  0  0  0  0  0  0  0
    3.0892   -7.5984    2.3208 H   0  0  0  0  0  0  0  0  0  0  0  0
    3.9050   -3.8472    3.9305 H   0  0  0  0  0  0  0  0  0  0  0  0
    5.8749   -3.1955    3.1776 H   0  0  0  0  0  0  0  0  0  0  0  0
    6.3044   -3.6904    0.9738 H   0  0  0  0  0  0  0  0  0  0  0  0
    4.4597   -4.5550   -0.7212 H   0  0  0  0  0  0  0  0  0  0  0  0
    4.7041   -5.3887    0.7098 H   0  0  0  0  0  0  0  0  0  0  0  0
    2.3059   -3.7810   -0.1628 H   0  0  0  0  0  0  0  0  0  0  0  0
    2.4091   -6.0265    0.0340 H   0  0  0  0  0  0  0  0  0  0  0  0
    3.8373   -0.4963   -0.1439 H   0  0  0  0  0  0  0  0  0  0  0  0
    7.3192   -1.4091    0.4113 H   0  0  0  0  0  0  0  0  0  0  0  0
    6.1406   -0.7252    1.5159 H   0  0  0  0  0  0  0  0  0  0  0  0
    6.2133   -0.1418   -0.1172 H   0  0  0  0  0  0  0  0  0  0  0  0
    6.5087   -3.0713   -1.4901 H   0  0  0  0  0  0  0  0  0  0  0  0
    5.8575   -1.5310   -2.0000 H   0  0  0  0  0  0  0  0  0  0  0  0
    4.8275   -2.9200   -1.9832 H   0  0  0  0  0  0  0  0  0  0  0  0
    5.4302   -1.7660    5.1438 H   0  0  0  0  0  0  0  0  0  0  0  0
    4.6331   -0.2098    4.9450 H   0  0  0  0  0  0  0  0  0  0  0  0
    6.0381   -0.6006    3.9601 H   0  0  0  0  0  0  0  0  0  0  0  0
    2.9013   -2.3600    4.9851 H   0  0  0  0  0  0  0  0  0  0  0  0
    2.2121   -1.0187    4.1921 H   0  0  0  0  0  0  0  0  0  0  0  0
    1.0256   -2.3844    2.6952 H   0  0  0  0  0  0  0  0  0  0  0  0
  1  2  1  0
  1 26  1  0
  1 27  1  0
  1 28  1  0
  2 25  1  0
  2  3  1  0
  2 29  1  6
  3  4  1  0
  3 30  1  0
  3 31  1  0
  4  5  1  0
  4  6  1  0
  4  7  1  0
  5 32  1  0
  5 33  1  0
  5 34  1  0
  6 35  1  0
  6 36  1  0
  6 37  1  0
  7  8  1  0
  8 14  1  0
  8  9  1  0
  8 38  1  1
  9 22  1  0
  9 10  1  0
  9 39  1  1
 10 17  1  0
 10 11  1  0
 10 40  1  1
 11 12  1  0
 11 41  1  0
 11 42  1  0
 12 13  1  0
 12 14  1  0
 12 43  1  6
 13 44  1  0
 14 25  1  0
 14 15  1  6
 15 16  2  0
 15 20  1  0
 16 17  1  0
 16 45  1  0
 17 18  1  0
 17 19  1  0
 18 46  1  0
 18 47  1  0
 18 48  1  0
 19 49  1  0
 19 50  1  0
 19 51  1  0
 20 21  1  0
 21 22  1  0
 22 23  1  1
 22 24  1  0
 23 52  1  0
 23 53  1  0
 23 54  1  0
 24 25  1  0
 24 55  1  0
 24 56  1  0
 25 57  1  6
M  END
>  <i_m_ct_stereo_status>  (119) 
1

>  <s_m_source_file>  (119) 
/var/tmp/pbs.5076255.sched01/tmpb5cfx69f/43pm4c6kpw.sdf

>  <i_m_source_file_index>  (119) 
4

>  <i_lp_mmshare_version>  (119) 
48012

>  <i_f3d_flags>  (119) 
0

>  <s_epik_input>  (119) 
W0NIM11DKE8xKShbQ0gzXSlbQ0gyXVtDQEBIXShbQ0gzXSlbQ0BIXTJbQ0gyXVtDQF0zKFtDSDNdKU9PQzQ9W0NIXUMoW0NIM10pKFtDSDNdKVtDQEBIXShbQ0BASF0zW0NASF0xW0NAQF0yNDUpW0NIMl1bQ0BIXTVbT0hd

>  <s_epik_cmdline>  (119) 
J2VwaWtfcHl0aG9uJywgJy1waHQnLCAnMi4wJywgJy1waCcsICc3LjAnLCAnLXRuJywgJzgnLCAnLW1hJywgJzIwMCcsICctaW1hZScsICc8aW5maWxlLm1hZT4nLCAnLW9tYWUnLCAnPG91dGZpbGUubWFlPic=

>  <r_lp_tautomer_probability>  (119) 
1

>  <r_epik_Ionization_Penalty>  (119) 
4.67283e-08

>  <r_epik_Ionization_Penalty_Charging>  (119) 
0

>  <r_epik_Ionization_Penalty_Neutral>  (119) 
4.67283e-08

>  <r_epik_State_Penalty>  (119) 
-0

>  <r_epik_Charging_Adjusted_Penalty>  (119) 
0

>  <i_epik_Tot_Q>  (119) 
0

>  <i_epik_Tot_abs_Q>  (119) 
0

>  <s_lp_Force_Field>  (119) 
OPLS3e

>  <r_lp_Energy>  (119) 
234.956

>  <b_lp_Chiralities_Consistent>  (119) 
1

>  <s_lp_Variant>  (119) 
29:0-1

>  <s_i_glide_gridfile>  (119) 
pfpi4k_grid

>  <i_i_glide_lignum>  (119) 
4

>  <i_i_glide_rotatable_bonds>  (119) 
1

>  <r_i_docking_score>  (119) 
-2.62301

>  <r_i_glide_ligand_efficiency>  (119) 
-0.10492

>  <r_i_glide_ligand_efficiency_sa>  (119) 
-0.306789

>  <r_i_glide_ligand_efficiency_ln>  (119) 
-0.621732

>  <r_i_glide_gscore>  (119) 
-2.62301

>  <r_i_glide_lipo>  (119) 
-0.273959

>  <r_i_glide_hbond>  (119) 
0

>  <r_i_glide_metal>  (119) 
-0

>  <r_i_glide_rewards>  (119) 
-1.03312

>  <r_i_glide_evdw>  (119) 
-21.1647

>  <r_i_glide_ecoul>  (119) 
-1.718

>  <r_i_glide_erotb>  (119) 
0

>  <r_i_glide_esite>  (119) 
0

>  <r_i_glide_emodel>  (119) 
-26.7009

>  <r_i_glide_energy>  (119) 
-22.8827

>  <r_i_glide_einternal>  (119) 
0.40257

>  <r_i_glide_intrahb_reward>  (119) 
-0

>  <i_i_glide_confnum>  (119) 
1

>  <i_i_glide_posenum>  (119) 
1

>  <r_i_glide_eff_state_penalty>  (119) 
0

>  <ligand_id>  (119) 
29

>  <original_smiles>  (119) 
CC1CC(C)(C)OC2C3C4CC(O)C25C(=CC4(C)C)OOC3(C)CC15

>  <smiles>  (119) 
[H]OC1([H])C([H])([H])C2([H])C3([H])C4([H])OC(C([H])([H])[H])(C([H])([H])[H])C([H])([H])C([H])(C([H])([H])[H])C5([H])C([H])([H])C3(C([H])([H])[H])OOC(=C([H])C2(C([H])([H])[H])C([H])([H])[H])C145

$$$$
30:0:0
     RDKit          3D

 75 81  0  0  1  0  0  0  0  0999 V2000
    2.9774   -1.4506   -3.9582 C   0  0  0  0  0  0  0  0  0  0  0  0
    4.2279   -2.0458   -4.2501 O   0  0  0  0  0  0  0  0  0  0  0  0
    4.6003   -3.0753   -3.3886 C   0  0  0  0  0  0  0  0  0  0  0  0
    4.7840   -2.6313   -2.0827 O   0  0  0  0  0  0  0  0  0  0  0  0
    5.4675   -3.5849   -1.2709 C   0  0  2  0  0  0  0  0  0  0  0  0
    4.6121   -4.6860   -0.7157 C   0  0  1  0  0  0  0  0  0  0  0  0
    4.7805   -5.8898    0.1648 C   0  0  0  0  0  0  0  0  0  0  0  0
    3.6994   -5.7553    1.2775 C   0  0  1  0  0  0  0  0  0  0  0  0
    3.9391   -6.7843    2.2061 O   0  0  0  0  0  0  0  0  0  0  0  0
    2.8093   -7.2277    2.9055 C   0  0  1  0  0  0  0  0  0  0  0  0
    1.8469   -8.0793    2.1004 C   0  0  0  0  0  0  0  0  0  0  0  0
    0.6724   -7.9342    2.6981 C   0  0  0  0  0  0  0  0  0  0  0  0
    0.9432   -7.0397    3.8829 C   0  0  1  0  0  0  0  0  0  0  0  0
   -0.1866   -6.2335    4.5120 C   0  0  0  0  0  0  0  0  0  0  0  0
    0.0955   -6.2971    6.0224 C   0  0  0  0  0  0  0  0  0  0  0  0
    1.5666   -6.7361    6.2389 C   0  0  2  0  0  0  0  0  0  0  0  0
    1.6861   -7.4601    7.6080 C   0  0  0  0  0  0  0  0  0  0  0  0
    2.4415   -5.4493    6.3711 C   0  0  2  0  0  0  0  0  0  0  0  0
    2.4678   -4.1928    5.4915 C   0  0  1  0  0  0  0  0  0  0  0  0
    1.5800   -2.9925    5.8364 C   0  0  0  0  0  0  0  0  0  0  0  0
    1.5633   -2.0441    4.7768 O   0  0  0  0  0  0  0  0  0  0  0  0
    0.7758   -2.4267    3.6561 C   0  0  0  0  0  0  0  0  0  0  0  0
    3.8419   -3.9597    5.9090 O   0  0  0  0  0  0  0  0  0  0  0  0
    3.9598   -5.3684    6.2592 C   0  0  2  0  0  0  0  0  0  0  0  0
    4.7531   -6.0500    5.1439 C   0  0  0  0  0  0  0  0  0  0  0  0
    4.4678   -7.5415    4.9262 C   0  0  1  0  0  0  0  0  0  0  0  0
    4.6581   -8.2731    6.1241 O   0  0  0  0  0  0  0  0  0  0  0  0
    3.1215   -7.9291    4.2668 C   0  0  1  0  0  0  0  0  0  0  0  0
    1.7538   -7.7315    5.0065 C   0  0  2  0  0  0  0  0  0  0  0  0
    1.1607   -9.1409    5.3387 C   0  0  0  0  0  0  0  0  0  0  0  0
    1.9671   -6.2311    3.3387 O   0  0  0  0  0  0  0  0  0  0  0  0
    3.7250   -4.4503    1.8841 O   0  0  0  0  0  0  0  0  0  0  0  0
    3.8396   -3.2818    1.0185 C   0  0  1  0  0  0  0  0  0  0  0  0
    4.0295   -1.9984    1.8440 C   0  0  0  0  0  0  0  0  0  0  0  0
    5.0688   -3.5400    0.1778 C   0  0  2  0  0  0  0  0  0  0  0  0
    2.8069   -0.6509   -4.6782 H   0  0  0  0  0  0  0  0  0  0  0  0
    2.9665   -1.0081   -2.9619 H   0  0  0  0  0  0  0  0  0  0  0  0
    2.1546   -2.1613   -4.0505 H   0  0  0  0  0  0  0  0  0  0  0  0
    3.8595   -3.8769   -3.4139 H   0  0  0  0  0  0  0  0  0  0  0  0
    5.5511   -3.4721   -3.7554 H   0  0  0  0  0  0  0  0  0  0  0  0
    6.5048   -3.7598   -1.5414 H   0  0  0  0  0  0  0  0  0  0  0  0
    3.6101   -4.6464   -1.1271 H   0  0  0  0  0  0  0  0  0  0  0  0
    4.6094   -6.8024   -0.4062 H   0  0  0  0  0  0  0  0  0  0  0  0
    5.7669   -5.9198    0.6133 H   0  0  0  0  0  0  0  0  0  0  0  0
    2.7221   -5.8872    0.8092 H   0  0  0  0  0  0  0  0  0  0  0  0
    2.0893   -8.6884    1.2420 H   0  0  0  0  0  0  0  0  0  0  0  0
   -0.2687   -8.3954    2.4428 H   0  0  0  0  0  0  0  0  0  0  0  0
   -0.1709   -5.2087    4.1461 H   0  0  0  0  0  0  0  0  0  0  0  0
   -1.1716   -6.6470    4.2917 H   0  0  0  0  0  0  0  0  0  0  0  0
   -0.1504   -5.3661    6.5287 H   0  0  0  0  0  0  0  0  0  0  0  0
   -0.5707   -7.0413    6.4487 H   0  0  0  0  0  0  0  0  0  0  0  0
    2.6871   -7.8505    7.7810 H   0  0  0  0  0  0  0  0  0  0  0  0
    0.9860   -8.2831    7.7429 H   0  0  0  0  0  0  0  0  0  0  0  0
    1.4769   -6.7741    8.4291 H   0  0  0  0  0  0  0  0  0  0  0  0
    2.2340   -5.0350    7.3609 H   0  0  0  0  0  0  0  0  0  0  0  0
    2.4615   -4.4088    4.4306 H   0  0  0  0  0  0  0  0  0  0  0  0
    0.5573   -3.3039    6.0544 H   0  0  0  0  0  0  0  0  0  0  0  0
    1.9389   -2.5074    6.7477 H   0  0  0  0  0  0  0  0  0  0  0  0
    0.7955   -1.6286    2.9129 H   0  0  0  0  0  0  0  0  0  0  0  0
   -0.2645   -2.5885    3.9384 H   0  0  0  0  0  0  0  0  0  0  0  0
    1.1578   -3.3303    3.1805 H   0  0  0  0  0  0  0  0  0  0  0  0
    4.4164   -5.5051    7.2407 H   0  0  0  0  0  0  0  0  0  0  0  0
    4.6143   -5.5228    4.1998 H   0  0  0  0  0  0  0  0  0  0  0  0
    5.8182   -5.9382    5.3528 H   0  0  0  0  0  0  0  0  0  0  0  0
    5.2391   -7.9124    4.2505 H   0  0  0  0  0  0  0  0  0  0  0  0
    3.9338   -8.1068    6.7070 H   0  0  0  0  0  0  0  0  0  0  0  0
    3.2387   -8.9888    4.0308 H   0  0  0  0  0  0  0  0  0  0  0  0
    1.7622   -9.6642    6.0825 H   0  0  0  0  0  0  0  0  0  0  0  0
    1.1336   -9.8036    4.4735 H   0  0  0  0  0  0  0  0  0  0  0  0
    0.1372   -9.0914    5.7090 H   0  0  0  0  0  0  0  0  0  0  0  0
    2.9467   -3.1825    0.3819 H   0  0  0  0  0  0  0  0  0  0  0  0
    4.1327   -1.1488    1.1715 H   0  0  0  0  0  0  0  0  0  0  0  0
    4.9294   -2.0392    2.4596 H   0  0  0  0  0  0  0  0  0  0  0  0
    3.1879   -1.7914    2.5011 H   0  0  0  0  0  0  0  0  0  0  0  0
    5.9399   -3.6676    0.8171 H   0  0  0  0  0  0  0  0  0  0  0  0
  1  2  1  0
  1 36  1  0
  1 37  1  0
  1 38  1  0
  2  3  1  0
  3  4  1  0
  3 39  1  0
  3 40  1  0
  4  5  1  0
  5 35  1  0
  5  6  1  0
  5 41  1  1
  6 35  1  0
  6  7  1  0
  6 42  1  6
  7  8  1  0
  7 43  1  0
  7 44  1  0
  8  9  1  0
  8 32  1  0
  8 45  1  6
 10  9  1  6
 10 28  1  0
 10 31  1  0
 10 11  1  0
 11 12  2  0
 11 46  1  0
 12 13  1  0
 12 47  1  0
 13 29  1  0
 13 14  1  1
 13 31  1  0
 14 15  1  0
 14 48  1  0
 14 49  1  0
 15 16  1  0
 15 50  1  0
 15 51  1  0
 16 29  1  0
 16 17  1  1
 16 18  1  0
 17 52  1  0
 17 53  1  0
 17 54  1  0
 18 24  1  0
 18 19  1  0
 18 55  1  1
 19 20  1  0
 19 23  1  0
 19 56  1  6
 20 21  1  0
 20 57  1  0
 20 58  1  0
 21 22  1  0
 22 59  1  0
 22 60  1  0
 22 61  1  0
 23 24  1  0
 24 25  1  0
 24 62  1  1
 25 26  1  0
 25 63  1  0
 25 64  1  0
 26 27  1  0
 26 28  1  0
 26 65  1  6
 27 66  1  0
 28 29  1  0
 28 67  1  6
 29 30  1  1
 30 68  1  0
 30 69  1  0
 30 70  1  0
 32 33  1  0
 33 34  1  0
 33 35  1  0
 33 71  1  6
 34 72  1  0
 34 73  1  0
 34 74  1  0
 35 75  1  1
M  END
>  <i_m_ct_stereo_status>  (120) 
1

>  <s_m_source_file>  (120) 
/var/tmp/pbs.5076255.sched01/tmpb5cfx69f/43pm4c6kpw.sdf

>  <i_m_source_file_index>  (120) 
5

>  <i_lp_mmshare_version>  (120) 
48012

>  <i_f3d_flags>  (120) 
0

>  <s_epik_input>  (120) 
W0NIM11PW0NIMl1PW0NASF0xW0NASF0oW0NAQEhdMTIpW0NASF0oW0NIM10pT1tDQEBIXShbQ0gyXTIpT1tDQEBdKE8zKShbQ0hdPVtDSF00KVtDQEhdNVtDQEhdKFtPSF0pW0NIMl1bQ0BIXShbQ0BASF02W0NAQF0oW0NIM10pKFtDSDJdW0NIMl03KVtDQF01KFtDQEBdMzQ3KVtDSDNdKU9bQ0BASF02W0NIMl1PW0NIM10=

>  <s_epik_cmdline>  (120) 
J2VwaWtfcHl0aG9uJywgJy1waHQnLCAnMi4wJywgJy1waCcsICc3LjAnLCAnLXRuJywgJzgnLCAnLW1hJywgJzIwMCcsICctaW1hZScsICc8aW5maWxlLm1hZT4nLCAnLW9tYWUnLCAnPG91dGZpbGUubWFlPic=

>  <r_lp_tautomer_probability>  (120) 
1

>  <r_epik_Ionization_Penalty>  (120) 
4.49521e-08

>  <r_epik_Ionization_Penalty_Charging>  (120) 
0

>  <r_epik_Ionization_Penalty_Neutral>  (120) 
4.49521e-08

>  <r_epik_State_Penalty>  (120) 
-0

>  <r_epik_Charging_Adjusted_Penalty>  (120) 
0

>  <i_epik_Tot_Q>  (120) 
0

>  <i_epik_Tot_abs_Q>  (120) 
0

>  <s_epik_Chemistry_Notes>  (120) 
This compound contains an acetal/aminal-like group ( X-CH(R)-Y where X, Y are N, S, or O) that may be acid/base labile, releasing an aldehyde.

>  <s_lp_Force_Field>  (120) 
OPLS3e

>  <r_lp_Energy>  (120) 
90.3571

>  <b_lp_Chiralities_Consistent>  (120) 
1

>  <s_lp_Variant>  (120) 
30:0-1

>  <s_i_glide_gridfile>  (120) 
pfpi4k_grid

>  <i_i_glide_lignum>  (120) 
5

>  <i_i_glide_rotatable_bonds>  (120) 
8

>  <r_i_docking_score>  (120) 
-2.44691

>  <r_i_glide_ligand_efficiency>  (120) 
-0.0699116

>  <r_i_glide_ligand_efficiency_sa>  (120) 
-0.228685

>  <r_i_glide_ligand_efficiency_ln>  (120) 
-0.53715

>  <r_i_glide_gscore>  (120) 
-2.44691

>  <r_i_glide_lipo>  (120) 
-0.315101

>  <r_i_glide_hbond>  (120) 
-0.32

>  <r_i_glide_metal>  (120) 
-0

>  <r_i_glide_rewards>  (120) 
-0.332007

>  <r_i_glide_evdw>  (120) 
-24.408

>  <r_i_glide_ecoul>  (120) 
-4.51285

>  <r_i_glide_erotb>  (120) 
0.41964

>  <r_i_glide_esite>  (120) 
-0.00211115

>  <r_i_glide_emodel>  (120) 
-31.2407

>  <r_i_glide_energy>  (120) 
-28.9208

>  <r_i_glide_einternal>  (120) 
4.43603

>  <r_i_glide_intrahb_reward>  (120) 
-0

>  <i_i_glide_confnum>  (120) 
2

>  <i_i_glide_posenum>  (120) 
23

>  <r_i_glide_eff_state_penalty>  (120) 
0

>  <ligand_id>  (120) 
30

>  <original_smiles>  (120) 
COCOC1C2CC(OC34C=CC5(CCC6(C)C7C(COC)OC7CC(O)C3C56C)O4)OC(C)C21

>  <smiles>  (120) 
[H]OC1([H])C([H])([H])C2([H])OC([H])(C([H])([H])OC([H])([H])[H])C2([H])C2(C([H])([H])[H])C([H])([H])C([H])([H])C34OC(OC5([H])OC([H])(C([H])([H])[H])C6([H])C([H])(OC([H])([H])OC([H])([H])[H])C6([H])C5([H])[H])(C([H])=C3[H])C1([H])C42C([H])([H])[H]

$$$$
30:0:1
     RDKit          3D

 75 81  0  0  1  0  0  0  0  0999 V2000
    2.9900   -2.2069   -3.8896 C   0  0  0  0  0  0  0  0  0  0  0  0
    4.4109   -2.2099   -3.8549 O   0  0  0  0  0  0  0  0  0  0  0  0
    4.9547   -3.0648   -2.9050 C   0  0  0  0  0  0  0  0  0  0  0  0
    4.5915   -2.6937   -1.6112 O   0  0  0  0  0  0  0  0  0  0  0  0
    5.3785   -3.3381   -0.6160 C   0  0  2  0  0  0  0  0  0  0  0  0
    4.9615   -4.7341   -0.2732 C   0  0  1  0  0  0  0  0  0  0  0  0
    5.3465   -5.8222    0.6763 C   0  0  0  0  0  0  0  0  0  0  0  0
    4.0734   -6.2401    1.4247 C   0  0  1  0  0  0  0  0  0  0  0  0
    4.4712   -7.1554    2.4144 O   0  0  0  0  0  0  0  0  0  0  0  0
    3.4737   -8.0340    2.8595 C   0  0  1  0  0  0  0  0  0  0  0  0
    3.0541   -9.0829    1.8532 C   0  0  0  0  0  0  0  0  0  0  0  0
    1.8127   -9.4182    2.2071 C   0  0  0  0  0  0  0  0  0  0  0  0
    1.5180   -8.5992    3.4340 C   0  0  1  0  0  0  0  0  0  0  0  0
    0.0728   -8.3064    3.8320 C   0  0  0  0  0  0  0  0  0  0  0  0
    0.0678   -8.4251    5.3644 C   0  0  0  0  0  0  0  0  0  0  0  0
    1.5317   -8.3454    5.8634 C   0  0  2  0  0  0  0  0  0  0  0  0
    1.6540   -9.0982    7.2150 C   0  0  0  0  0  0  0  0  0  0  0  0
    1.8516   -6.8551    6.2004 C   0  0  2  0  0  0  0  0  0  0  0  0
    1.5907   -5.5776    5.3967 C   0  0  1  0  0  0  0  0  0  0  0  0
    0.3104   -4.7662    5.6213 C   0  0  0  0  0  0  0  0  0  0  0  0
    0.2277   -3.6539    4.7325 O   0  0  0  0  0  0  0  0  0  0  0  0
    1.1284   -2.5959    5.0380 C   0  0  0  0  0  0  0  0  0  0  0  0
    2.7044   -4.9465    6.0923 O   0  0  0  0  0  0  0  0  0  0  0  0
    3.2312   -6.2607    6.4121 C   0  0  2  0  0  0  0  0  0  0  0  0
    4.4097   -6.4859    5.4799 C   0  0  0  0  0  0  0  0  0  0  0  0
    4.7324   -7.9553    5.1663 C   0  0  1  0  0  0  0  0  0  0  0  0
    4.9317   -8.6821    6.3601 O   0  0  0  0  0  0  0  0  0  0  0  0
    3.7589   -8.7146    4.2377 C   0  0  1  0  0  0  0  0  0  0  0  0
    2.2915   -9.0773    4.6838 C   0  0  2  0  0  0  0  0  0  0  0  0
    2.1988  -10.6297    4.8512 C   0  0  0  0  0  0  0  0  0  0  0  0
    2.2689   -7.4321    3.1390 O   0  0  0  0  0  0  0  0  0  0  0  0
    3.4152   -5.0952    1.9622 O   0  0  0  0  0  0  0  0  0  0  0  0
    3.2313   -3.9399    1.1125 C   0  0  1  0  0  0  0  0  0  0  0  0
    2.6228   -2.7754    1.9164 C   0  0  0  0  0  0  0  0  0  0  0  0
    4.6240   -3.5889    0.6663 C   0  0  2  0  0  0  0  0  0  0  0  0
    2.6762   -1.5020   -4.6574 H   0  0  0  0  0  0  0  0  0  0  0  0
    2.5718   -1.8621   -2.9441 H   0  0  0  0  0  0  0  0  0  0  0  0
    2.5622   -3.1809   -4.1360 H   0  0  0  0  0  0  0  0  0  0  0  0
    4.6479   -4.0985   -3.1000 H   0  0  0  0  0  0  0  0  0  0  0  0
    6.0421   -2.9992   -3.0039 H   0  0  0  0  0  0  0  0  0  0  0  0
    6.4334   -3.0386   -0.5873 H   0  0  0  0  0  0  0  0  0  0  0  0
    4.1974   -5.0803   -0.9682 H   0  0  0  0  0  0  0  0  0  0  0  0
    5.7527   -6.6603    0.1088 H   0  0  0  0  0  0  0  0  0  0  0  0
    6.1087   -5.4820    1.3741 H   0  0  0  0  0  0  0  0  0  0  0  0
    3.3912   -6.7062    0.7218 H   0  0  0  0  0  0  0  0  0  0  0  0
    3.6342   -9.4906    1.0456 H   0  0  0  0  0  0  0  0  0  0  0  0
    1.1630  -10.1396    1.7522 H   0  0  0  0  0  0  0  0  0  0  0  0
   -0.2101   -7.3083    3.5008 H   0  0  0  0  0  0  0  0  0  0  0  0
   -0.6356   -9.0098    3.3952 H   0  0  0  0  0  0  0  0  0  0  0  0
   -0.5697   -7.6714    5.8116 H   0  0  0  0  0  0  0  0  0  0  0  0
   -0.3708   -9.3880    5.6316 H   0  0  0  0  0  0  0  0  0  0  0  0
    2.6824   -9.1321    7.5695 H   0  0  0  0  0  0  0  0  0  0  0  0
    1.2818  -10.1210    7.1868 H   0  0  0  0  0  0  0  0  0  0  0  0
    1.0716   -8.6082    7.9931 H   0  0  0  0  0  0  0  0  0  0  0  0
    1.3346   -6.6420    7.1343 H   0  0  0  0  0  0  0  0  0  0  0  0
    1.8201   -5.6624    4.3456 H   0  0  0  0  0  0  0  0  0  0  0  0
   -0.5508   -5.3923    5.3728 H   0  0  0  0  0  0  0  0  0  0  0  0
    0.1827   -4.4670    6.6629 H   0  0  0  0  0  0  0  0  0  0  0  0
    0.9703   -1.7677    4.3464 H   0  0  0  0  0  0  0  0  0  0  0  0
    2.1713   -2.8962    4.9342 H   0  0  0  0  0  0  0  0  0  0  0  0
    0.9640   -2.2336    6.0528 H   0  0  0  0  0  0  0  0  0  0  0  0
    3.5027   -6.3529    7.4608 H   0  0  0  0  0  0  0  0  0  0  0  0
    4.2693   -5.9525    4.5450 H   0  0  0  0  0  0  0  0  0  0  0  0
    5.3011   -6.0370    5.9135 H   0  0  0  0  0  0  0  0  0  0  0  0
    5.6996   -7.9751    4.6512 H   0  0  0  0  0  0  0  0  0  0  0  0
    5.0920   -9.5941    6.1480 H   0  0  0  0  0  0  0  0  0  0  0  0
    4.2829   -9.6428    3.9997 H   0  0  0  0  0  0  0  0  0  0  0  0
    2.7932  -10.9801    5.6962 H   0  0  0  0  0  0  0  0  0  0  0  0
    2.5710  -11.1780    3.9841 H   0  0  0  0  0  0  0  0  0  0  0  0
    1.1732  -10.9697    5.0069 H   0  0  0  0  0  0  0  0  0  0  0  0
    2.5919   -4.1823    0.2637 H   0  0  0  0  0  0  0  0  0  0  0  0
    2.5328   -1.8972    1.2685 H   0  0  0  0  0  0  0  0  0  0  0  0
    3.2526   -2.4883    2.7590 H   0  0  0  0  0  0  0  0  0  0  0  0
    1.6305   -3.0065    2.2912 H   0  0  0  0  0  0  0  0  0  0  0  0
    5.2639   -3.3911    1.5200 H   0  0  0  0  0  0  0  0  0  0  0  0
  1  2  1  0
  1 36  1  0
  1 37  1  0
  1 38  1  0
  2  3  1  0
  3  4  1  0
  3 39  1  0
  3 40  1  0
  4  5  1  0
  5 35  1  0
  5  6  1  0
  5 41  1  1
  6 35  1  0
  6  7  1  0
  6 42  1  6
  7  8  1  0
  7 43  1  0
  7 44  1  0
  8  9  1  0
  8 32  1  0
  8 45  1  6
 10  9  1  6
 10 28  1  0
 10 31  1  0
 10 11  1  0
 11 12  2  0
 11 46  1  0
 12 13  1  0
 12 47  1  0
 13 29  1  0
 13 14  1  1
 13 31  1  0
 14 15  1  0
 14 48  1  0
 14 49  1  0
 15 16  1  0
 15 50  1  0
 15 51  1  0
 16 29  1  0
 16 17  1  1
 16 18  1  0
 17 52  1  0
 17 53  1  0
 17 54  1  0
 18 24  1  0
 18 19  1  0
 18 55  1  1
 19 20  1  0
 19 23  1  0
 19 56  1  6
 20 21  1  0
 20 57  1  0
 20 58  1  0
 21 22  1  0
 22 59  1  0
 22 60  1  0
 22 61  1  0
 23 24  1  0
 24 25  1  0
 24 62  1  1
 25 26  1  0
 25 63  1  0
 25 64  1  0
 26 27  1  0
 26 28  1  0
 26 65  1  6
 27 66  1  0
 28 29  1  0
 28 67  1  6
 29 30  1  1
 30 68  1  0
 30 69  1  0
 30 70  1  0
 32 33  1  0
 33 34  1  0
 33 35  1  0
 33 71  1  6
 34 72  1  0
 34 73  1  0
 34 74  1  0
 35 75  1  1
M  END
>  <i_m_ct_stereo_status>  (121) 
1

>  <s_m_source_file>  (121) 
/var/tmp/pbs.5076255.sched01/tmpb5cfx69f/43pm4c6kpw.sdf

>  <i_m_source_file_index>  (121) 
5

>  <i_lp_mmshare_version>  (121) 
48012

>  <i_f3d_flags>  (121) 
0

>  <s_epik_input>  (121) 
W0NIM11PW0NIMl1PW0NASF0xW0NASF0oW0NAQEhdMTIpW0NASF0oW0NIM10pT1tDQEBIXShbQ0gyXTIpT1tDQEBdKE8zKShbQ0hdPVtDSF00KVtDQEhdNVtDQEhdKFtPSF0pW0NIMl1bQ0BIXShbQ0BASF02W0NAQF0oW0NIM10pKFtDSDJdW0NIMl03KVtDQF01KFtDQEBdMzQ3KVtDSDNdKU9bQ0BASF02W0NIMl1PW0NIM10=

>  <s_epik_cmdline>  (121) 
J2VwaWtfcHl0aG9uJywgJy1waHQnLCAnMi4wJywgJy1waCcsICc3LjAnLCAnLXRuJywgJzgnLCAnLW1hJywgJzIwMCcsICctaW1hZScsICc8aW5maWxlLm1hZT4nLCAnLW9tYWUnLCAnPG91dGZpbGUubWFlPic=

>  <r_lp_tautomer_probability>  (121) 
1

>  <r_epik_Ionization_Penalty>  (121) 
4.49521e-08

>  <r_epik_Ionization_Penalty_Charging>  (121) 
0

>  <r_epik_Ionization_Penalty_Neutral>  (121) 
4.49521e-08

>  <r_epik_State_Penalty>  (121) 
-0

>  <r_epik_Charging_Adjusted_Penalty>  (121) 
0

>  <i_epik_Tot_Q>  (121) 
0

>  <i_epik_Tot_abs_Q>  (121) 
0

>  <s_epik_Chemistry_Notes>  (121) 
This compound contains an acetal/aminal-like group ( X-CH(R)-Y where X, Y are N, S, or O) that may be acid/base labile, releasing an aldehyde.

>  <s_lp_Force_Field>  (121) 
OPLS3e

>  <r_lp_Energy>  (121) 
90.3571

>  <b_lp_Chiralities_Consistent>  (121) 
1

>  <s_lp_Variant>  (121) 
30:0-1

>  <s_i_glide_gridfile>  (121) 
pfpi4k_grid

>  <i_i_glide_lignum>  (121) 
5

>  <i_i_glide_rotatable_bonds>  (121) 
8

>  <r_i_docking_score>  (121) 
-2.07532

>  <r_i_glide_ligand_efficiency>  (121) 
-0.0592947

>  <r_i_glide_ligand_efficiency_sa>  (121) 
-0.193957

>  <r_i_glide_ligand_efficiency_ln>  (121) 
-0.455578

>  <r_i_glide_gscore>  (121) 
-2.07532

>  <r_i_glide_lipo>  (121) 
-0.414371

>  <r_i_glide_hbond>  (121) 
-0.10534

>  <r_i_glide_metal>  (121) 
-0

>  <r_i_glide_rewards>  (121) 
-0.361931

>  <r_i_glide_evdw>  (121) 
-24.9645

>  <r_i_glide_ecoul>  (121) 
-2.41646

>  <r_i_glide_erotb>  (121) 
0.41964

>  <r_i_glide_esite>  (121) 
-0.00261882

>  <r_i_glide_emodel>  (121) 
-28.8739

>  <r_i_glide_energy>  (121) 
-27.381

>  <r_i_glide_einternal>  (121) 
4.32285

>  <r_i_glide_intrahb_reward>  (121) 
-0

>  <i_i_glide_confnum>  (121) 
2

>  <i_i_glide_posenum>  (121) 
7

>  <r_i_glide_eff_state_penalty>  (121) 
0

>  <ligand_id>  (121) 
30

>  <original_smiles>  (121) 
COCOC1C2CC(OC34C=CC5(CCC6(C)C7C(COC)OC7CC(O)C3C56C)O4)OC(C)C21

>  <smiles>  (121) 
[H]OC1([H])C([H])([H])C2([H])OC([H])(C([H])([H])OC([H])([H])[H])C2([H])C2(C([H])([H])[H])C([H])([H])C([H])([H])C34OC(OC5([H])OC([H])(C([H])([H])[H])C6([H])C([H])(OC([H])([H])OC([H])([H])[H])C6([H])C5([H])[H])(C([H])=C3[H])C1([H])C42C([H])([H])[H]

$$$$
30:0:2
     RDKit          3D

 75 81  0  0  1  0  0  0  0  0999 V2000
    2.8614   -2.8319   -3.5921 C   0  0  0  0  0  0  0  0  0  0  0  0
    4.2689   -2.6710   -3.7032 O   0  0  0  0  0  0  0  0  0  0  0  0
    4.9974   -3.5024   -2.8520 C   0  0  0  0  0  0  0  0  0  0  0  0
    4.8313   -3.1554   -1.5181 O   0  0  0  0  0  0  0  0  0  0  0  0
    5.6404   -3.9584   -0.6521 C   0  0  2  0  0  0  0  0  0  0  0  0
    4.9748   -5.2389   -0.2099 C   0  0  1  0  0  0  0  0  0  0  0  0
    5.2757   -6.3953    0.6964 C   0  0  0  0  0  0  0  0  0  0  0  0
    4.0701   -6.5012    1.6746 C   0  0  1  0  0  0  0  0  0  0  0  0
    4.4050   -7.4781    2.6299 O   0  0  0  0  0  0  0  0  0  0  0  0
    3.3293   -8.2235    3.1294 C   0  0  1  0  0  0  0  0  0  0  0  0
    2.7588   -9.2659    2.1800 C   0  0  0  0  0  0  0  0  0  0  0  0
    1.5181   -9.4471    2.5681 C   0  0  0  0  0  0  0  0  0  0  0  0
    1.3374   -8.5524    3.7717 C   0  0  1  0  0  0  0  0  0  0  0  0
   -0.0485   -8.0943    4.1859 C   0  0  0  0  0  0  0  0  0  0  0  0
   -0.0273   -8.1357    5.7230 C   0  0  0  0  0  0  0  0  0  0  0  0
    1.4558   -8.1904    6.1925 C   0  0  2  0  0  0  0  0  0  0  0  0
    1.5284   -8.8979    7.5710 C   0  0  0  0  0  0  0  0  0  0  0  0
    1.9323   -6.7329    6.4461 C   0  0  2  0  0  0  0  0  0  0  0  0
    1.7683   -5.4701    5.5888 C   0  0  1  0  0  0  0  0  0  0  0  0
    0.5737   -4.5395    5.8129 C   0  0  0  0  0  0  0  0  0  0  0  0
    0.4755   -3.5547    4.7990 O   0  0  0  0  0  0  0  0  0  0  0  0
    1.4662   -2.5478    4.8963 C   0  0  0  0  0  0  0  0  0  0  0  0
    2.9652   -4.9224    6.2064 O   0  0  0  0  0  0  0  0  0  0  0  0
    3.3734   -6.2627    6.5958 C   0  0  2  0  0  0  0  0  0  0  0  0
    4.4952   -6.6785    5.6489 C   0  0  0  0  0  0  0  0  0  0  0  0
    4.6507   -8.1778    5.4018 C   0  0  1  0  0  0  0  0  0  0  0  0
    4.8132   -8.8788    6.6243 O   0  0  0  0  0  0  0  0  0  0  0  0
    3.5761   -8.8755    4.5295 C   0  0  1  0  0  0  0  0  0  0  0  0
    2.1006   -9.0622    5.0177 C   0  0  2  0  0  0  0  0  0  0  0  0
    1.8406  -10.5834    5.2589 C   0  0  0  0  0  0  0  0  0  0  0  0
    2.2018   -7.4930    3.4096 O   0  0  0  0  0  0  0  0  0  0  0  0
    3.7686   -5.2279    2.2803 O   0  0  0  0  0  0  0  0  0  0  0  0
    3.7622   -4.0509    1.4121 C   0  0  1  0  0  0  0  0  0  0  0  0
    3.5694   -2.7752    2.2143 C   0  0  0  0  0  0  0  0  0  0  0  0
    5.0939   -4.0529    0.7253 C   0  0  2  0  0  0  0  0  0  0  0  0
    2.3790   -2.1342   -4.2727 H   0  0  0  0  0  0  0  0  0  0  0  0
    2.5088   -2.6055   -2.5853 H   0  0  0  0  0  0  0  0  0  0  0  0
    2.5265   -3.8365   -3.8654 H   0  0  0  0  0  0  0  0  0  0  0  0
    4.7110   -4.5419   -3.0106 H   0  0  0  0  0  0  0  0  0  0  0  0
    6.0539   -3.3858   -3.1042 H   0  0  0  0  0  0  0  0  0  0  0  0
    6.7107   -3.8737   -0.8006 H   0  0  0  0  0  0  0  0  0  0  0  0
    4.0352   -5.3872   -0.7271 H   0  0  0  0  0  0  0  0  0  0  0  0
    5.3300   -7.3107    0.1335 H   0  0  0  0  0  0  0  0  0  0  0  0
    6.1764   -6.2327    1.2645 H   0  0  0  0  0  0  0  0  0  0  0  0
    3.1886   -6.8085    1.1037 H   0  0  0  0  0  0  0  0  0  0  0  0
    3.2930   -9.7661    1.3761 H   0  0  0  0  0  0  0  0  0  0  0  0
    0.7709  -10.1207    2.1625 H   0  0  0  0  0  0  0  0  0  0  0  0
   -0.2396   -7.0839    3.8203 H   0  0  0  0  0  0  0  0  0  0  0  0
   -0.8450   -8.7368    3.8058 H   0  0  0  0  0  0  0  0  0  0  0  0
   -0.5577   -7.2941    6.1354 H   0  0  0  0  0  0  0  0  0  0  0  0
   -0.5567   -9.0333    6.0502 H   0  0  0  0  0  0  0  0  0  0  0  0
    2.5537   -9.0275    7.9187 H   0  0  0  0  0  0  0  0  0  0  0  0
    1.0485   -9.8711    7.5993 H   0  0  0  0  0  0  0  0  0  0  0  0
    1.0189   -8.3121    8.3367 H   0  0  0  0  0  0  0  0  0  0  0  0
    1.4682   -6.4197    7.3817 H   0  0  0  0  0  0  0  0  0  0  0  0
    1.9558   -5.6295    4.5302 H   0  0  0  0  0  0  0  0  0  0  0  0
   -0.3535   -5.1071    5.7561 H   0  0  0  0  0  0  0  0  0  0  0  0
    0.6036   -4.0722    6.8033 H   0  0  0  0  0  0  0  0  0  0  0  0
    1.3272   -1.8301    4.0856 H   0  0  0  0  0  0  0  0  0  0  0  0
    2.4615   -2.9712    4.7655 H   0  0  0  0  0  0  0  0  0  0  0  0
    1.4253   -2.0375    5.8604 H   0  0  0  0  0  0  0  0  0  0  0  0
    3.6663   -6.3154    7.6400 H   0  0  0  0  0  0  0  0  0  0  0  0
    4.3856   -6.1659    4.6922 H   0  0  0  0  0  0  0  0  0  0  0  0
    5.4408   -6.2981    6.0408 H   0  0  0  0  0  0  0  0  0  0  0  0
    5.5898   -8.3156    4.8719 H   0  0  0  0  0  0  0  0  0  0  0  0
    3.9756   -8.9728    7.0400 H   0  0  0  0  0  0  0  0  0  0  0  0
    4.0002   -9.8636    4.3278 H   0  0  0  0  0  0  0  0  0  0  0  0
    2.4361  -10.9563    6.0905 H   0  0  0  0  0  0  0  0  0  0  0  0
    2.1240  -11.2001    4.4074 H   0  0  0  0  0  0  0  0  0  0  0  0
    0.7961  -10.8048    5.4639 H   0  0  0  0  0  0  0  0  0  0  0  0
    2.9410   -4.1326    0.6789 H   0  0  0  0  0  0  0  0  0  0  0  0
    3.6688   -1.9100    1.5611 H   0  0  0  0  0  0  0  0  0  0  0  0
    4.3353   -2.6689    2.9910 H   0  0  0  0  0  0  0  0  0  0  0  0
    2.5778   -2.7833    2.6576 H   0  0  0  0  0  0  0  0  0  0  0  0
    5.8937   -4.0128    1.4661 H   0  0  0  0  0  0  0  0  0  0  0  0
  1  2  1  0
  1 36  1  0
  1 37  1  0
  1 38  1  0
  2  3  1  0
  3  4  1  0
  3 39  1  0
  3 40  1  0
  4  5  1  0
  5 35  1  0
  5  6  1  0
  5 41  1  1
  6 35  1  0
  6  7  1  0
  6 42  1  6
  7  8  1  0
  7 43  1  0
  7 44  1  0
  8  9  1  0
  8 32  1  0
  8 45  1  6
 10  9  1  6
 10 28  1  0
 10 31  1  0
 10 11  1  0
 11 12  2  0
 11 46  1  0
 12 13  1  0
 12 47  1  0
 13 29  1  0
 13 14  1  1
 13 31  1  0
 14 15  1  0
 14 48  1  0
 14 49  1  0
 15 16  1  0
 15 50  1  0
 15 51  1  0
 16 29  1  0
 16 17  1  1
 16 18  1  0
 17 52  1  0
 17 53  1  0
 17 54  1  0
 18 24  1  0
 18 19  1  0
 18 55  1  1
 19 20  1  0
 19 23  1  0
 19 56  1  6
 20 21  1  0
 20 57  1  0
 20 58  1  0
 21 22  1  0
 22 59  1  0
 22 60  1  0
 22 61  1  0
 23 24  1  0
 24 25  1  0
 24 62  1  1
 25 26  1  0
 25 63  1  0
 25 64  1  0
 26 27  1  0
 26 28  1  0
 26 65  1  6
 27 66  1  0
 28 29  1  0
 28 67  1  6
 29 30  1  1
 30 68  1  0
 30 69  1  0
 30 70  1  0
 32 33  1  0
 33 34  1  0
 33 35  1  0
 33 71  1  6
 34 72  1  0
 34 73  1  0
 34 74  1  0
 35 75  1  1
M  END
>  <i_m_ct_stereo_status>  (122) 
1

>  <s_m_source_file>  (122) 
/var/tmp/pbs.5076255.sched01/tmpb5cfx69f/43pm4c6kpw.sdf

>  <i_m_source_file_index>  (122) 
5

>  <i_lp_mmshare_version>  (122) 
48012

>  <i_f3d_flags>  (122) 
0

>  <s_epik_input>  (122) 
W0NIM11PW0NIMl1PW0NASF0xW0NASF0oW0NAQEhdMTIpW0NASF0oW0NIM10pT1tDQEBIXShbQ0gyXTIpT1tDQEBdKE8zKShbQ0hdPVtDSF00KVtDQEhdNVtDQEhdKFtPSF0pW0NIMl1bQ0BIXShbQ0BASF02W0NAQF0oW0NIM10pKFtDSDJdW0NIMl03KVtDQF01KFtDQEBdMzQ3KVtDSDNdKU9bQ0BASF02W0NIMl1PW0NIM10=

>  <s_epik_cmdline>  (122) 
J2VwaWtfcHl0aG9uJywgJy1waHQnLCAnMi4wJywgJy1waCcsICc3LjAnLCAnLXRuJywgJzgnLCAnLW1hJywgJzIwMCcsICctaW1hZScsICc8aW5maWxlLm1hZT4nLCAnLW9tYWUnLCAnPG91dGZpbGUubWFlPic=

>  <r_lp_tautomer_probability>  (122) 
1

>  <r_epik_Ionization_Penalty>  (122) 
4.49521e-08

>  <r_epik_Ionization_Penalty_Charging>  (122) 
0

>  <r_epik_Ionization_Penalty_Neutral>  (122) 
4.49521e-08

>  <r_epik_State_Penalty>  (122) 
-0

>  <r_epik_Charging_Adjusted_Penalty>  (122) 
0

>  <i_epik_Tot_Q>  (122) 
0

>  <i_epik_Tot_abs_Q>  (122) 
0

>  <s_epik_Chemistry_Notes>  (122) 
This compound contains an acetal/aminal-like group ( X-CH(R)-Y where X, Y are N, S, or O) that may be acid/base labile, releasing an aldehyde.

>  <s_lp_Force_Field>  (122) 
OPLS3e

>  <r_lp_Energy>  (122) 
90.3571

>  <b_lp_Chiralities_Consistent>  (122) 
1

>  <s_lp_Variant>  (122) 
30:0-1

>  <s_i_glide_gridfile>  (122) 
pfpi4k_grid

>  <i_i_glide_lignum>  (122) 
5

>  <i_i_glide_rotatable_bonds>  (122) 
8

>  <r_i_docking_score>  (122) 
-2.03686

>  <r_i_glide_ligand_efficiency>  (122) 
-0.058196

>  <r_i_glide_ligand_efficiency_sa>  (122) 
-0.190363

>  <r_i_glide_ligand_efficiency_ln>  (122) 
-0.447136

>  <r_i_glide_gscore>  (122) 
-2.03686

>  <r_i_glide_lipo>  (122) 
-0.529096

>  <r_i_glide_hbond>  (122) 
0

>  <r_i_glide_metal>  (122) 
-0

>  <r_i_glide_rewards>  (122) 
-0.315163

>  <r_i_glide_evdw>  (122) 
-24.7303

>  <r_i_glide_ecoul>  (122) 
-2.49167

>  <r_i_glide_erotb>  (122) 
0.41964

>  <r_i_glide_esite>  (122) 
-0.00197729

>  <r_i_glide_emodel>  (122) 
-28.2359

>  <r_i_glide_energy>  (122) 
-27.222

>  <r_i_glide_einternal>  (122) 
4.33832

>  <r_i_glide_intrahb_reward>  (122) 
-0

>  <i_i_glide_confnum>  (122) 
2

>  <i_i_glide_posenum>  (122) 
11

>  <r_i_glide_eff_state_penalty>  (122) 
0

>  <ligand_id>  (122) 
30

>  <original_smiles>  (122) 
COCOC1C2CC(OC34C=CC5(CCC6(C)C7C(COC)OC7CC(O)C3C56C)O4)OC(C)C21

>  <smiles>  (122) 
[H]OC1([H])C([H])([H])C2([H])OC([H])(C([H])([H])OC([H])([H])[H])C2([H])C2(C([H])([H])[H])C([H])([H])C([H])([H])C34OC(OC5([H])OC([H])(C([H])([H])[H])C6([H])C([H])(OC([H])([H])OC([H])([H])[H])C6([H])C5([H])[H])(C([H])=C3[H])C1([H])C42C([H])([H])[H]

$$$$
31:0:0
     RDKit          3D

 26 28  0  0  1  0  0  0  0  0999 V2000
   -5.5087   -6.5510   -4.7348 C   0  0  0  0  0  0  0  0  0  0  0  0
   -6.5877   -5.9839   -5.3624 N   0  0  0  0  0  0  0  0  0  0  0  0
   -7.1341   -6.9198   -6.3313 C   0  0  0  0  0  0  0  0  0  0  0  0
   -6.1888   -8.1619   -6.3208 C   0  0  2  0  0  0  0  0  0  0  0  0
   -5.2000   -7.7425   -5.2475 C   0  0  0  0  0  0  0  0  0  0  0  0
   -5.5308   -8.2809   -7.6033 O   0  0  0  0  0  0  0  0  0  0  0  0
   -5.8043   -9.5661   -8.2871 N   0  0  0  0  0  0  0  0  0  0  0  0
   -5.2514  -10.6386   -7.4516 C   0  0  0  0  0  0  0  0  0  0  0  0
   -5.8758  -10.6140   -6.0521 C   0  0  0  0  0  0  0  0  0  0  0  0
   -6.9183   -9.4816   -5.9748 C   0  0  0  0  0  0  0  0  0  0  0  0
   -7.9687   -9.7379   -7.0689 C   0  0  0  0  0  0  0  0  0  0  0  0
   -7.2603   -9.7145   -8.4363 C   0  0  0  0  0  0  0  0  0  0  0  0
   -5.0404   -6.0118   -3.9247 H   0  0  0  0  0  0  0  0  0  0  0  0
   -7.1834   -6.4616   -7.3181 H   0  0  0  0  0  0  0  0  0  0  0  0
   -8.1510   -7.1588   -6.0097 H   0  0  0  0  0  0  0  0  0  0  0  0
   -5.4594  -11.6000   -7.9224 H   0  0  0  0  0  0  0  0  0  0  0  0
   -4.1680  -10.5453   -7.3878 H   0  0  0  0  0  0  0  0  0  0  0  0
   -6.3473  -11.5781   -5.8633 H   0  0  0  0  0  0  0  0  0  0  0  0
   -5.0935  -10.4962   -5.2968 H   0  0  0  0  0  0  0  0  0  0  0  0
   -7.3934   -9.4550   -5.0016 H   0  0  0  0  0  0  0  0  0  0  0  0
   -8.4674  -10.6940   -6.8973 H   0  0  0  0  0  0  0  0  0  0  0  0
   -8.7631   -8.9887   -7.0610 H   0  0  0  0  0  0  0  0  0  0  0  0
   -7.6365   -8.9030   -9.0621 H   0  0  0  0  0  0  0  0  0  0  0  0
   -7.4665  -10.6482   -8.9597 H   0  0  0  0  0  0  0  0  0  0  0  0
   -4.3814   -8.3625   -4.9092 H   0  0  0  0  0  0  0  0  0  0  0  0
   -7.1739   -5.2933   -4.9142 H   0  0  0  0  0  0  0  0  0  0  0  0
  1  5  2  0
  1 13  1  0
  1  2  1  0
  2  3  1  0
  2 26  1  0
  4  3  1  6
  3 14  1  0
  3 15  1  0
  4 10  1  0
  4  6  1  0
  4  5  1  0
  5 25  1  0
  6  7  1  0
  7 12  1  0
  7  8  1  0
  8  9  1  0
  8 16  1  0
  8 17  1  0
  9 10  1  0
  9 18  1  0
  9 19  1  0
 10 11  1  0
 10 20  1  0
 11 12  1  0
 11 21  1  0
 11 22  1  0
 12 23  1  0
 12 24  1  0
M  END
>  <i_m_ct_stereo_status>  (123) 
1

>  <s_m_source_file>  (123) 
/var/tmp/pbs.5076255.sched01/tmpb5cfx69f/43pm4c6kpw.sdf

>  <i_m_source_file_index>  (123) 
6

>  <i_lp_mmshare_version>  (123) 
48012

>  <i_f3d_flags>  (123) 
0

>  <s_epik_input>  (123) 
W0NIMl0xW0NIXT1OW0NIMl1bQ0BdMTJbQ0hdM1tDSDJdW0NIMl1OKE8yKVtDSDJdW0NIMl0z

>  <s_epik_cmdline>  (123) 
J2VwaWtfcHl0aG9uJywgJy1waHQnLCAnMi4wJywgJy1waCcsICc3LjAnLCAnLXRuJywgJzgnLCAnLW1hJywgJzIwMCcsICctaW1hZScsICc8aW5maWxlLm1hZT4nLCAnLW9tYWUnLCAnPG91dGZpbGUubWFlPic=

>  <r_lp_tautomer_probability>  (123) 
1

>  <r_epik_Ionization_Penalty>  (123) 
0.0114545

>  <r_epik_Ionization_Penalty_Charging>  (123) 
1.81047e-05

>  <r_epik_Ionization_Penalty_Neutral>  (123) 
0.0114364

>  <r_epik_State_Penalty>  (123) 
-0

>  <r_epik_Charging_Adjusted_Penalty>  (123) 
1.81047e-05

>  <i_epik_Tot_Q>  (123) 
0

>  <i_epik_Tot_abs_Q>  (123) 
0

>  <s_epik_Chemistry_Notes>  (123) 
This compound has an imine and may undergo hydrolysis. This compound has a N-S or N-O group and may undergo hydrolysis at high or low pH.

>  <s_lp_Force_Field>  (123) 
OPLS3e

>  <r_lp_Energy>  (123) 
25.3077

>  <b_lp_Chiralities_Consistent>  (123) 
1

>  <s_lp_Variant>  (123) 
31:0-1

>  <s_i_glide_gridfile>  (123) 
pfpi4k_grid

>  <i_i_glide_lignum>  (123) 
6

>  <i_i_glide_rotatable_bonds>  (123) 
0

>  <r_i_docking_score>  (123) 
-5.03633

>  <r_i_glide_ligand_efficiency>  (123) 
-0.419694

>  <r_i_glide_ligand_efficiency_sa>  (123) 
-0.96086

>  <r_i_glide_ligand_efficiency_ln>  (123) 
-1.44518

>  <r_i_glide_gscore>  (123) 
-5.03633

>  <r_i_glide_lipo>  (123) 
-1.60953

>  <r_i_glide_hbond>  (123) 
0

>  <r_i_glide_metal>  (123) 
-0

>  <r_i_glide_rewards>  (123) 
-2.4991

>  <r_i_glide_evdw>  (123) 
-15.9761

>  <r_i_glide_ecoul>  (123) 
-0.859282

>  <r_i_glide_erotb>  (123) 
0

>  <r_i_glide_esite>  (123) 
0

>  <r_i_glide_emodel>  (123) 
-23.1627

>  <r_i_glide_energy>  (123) 
-16.8354

>  <r_i_glide_einternal>  (123) 
0

>  <r_i_glide_intrahb_reward>  (123) 
-0

>  <i_i_glide_confnum>  (123) 
1

>  <i_i_glide_posenum>  (123) 
2

>  <r_i_glide_eff_state_penalty>  (123) 
0

>  <ligand_id>  (123) 
31

>  <original_smiles>  (123) 
C1=NCC2(C1)ON1CCC2CC1

>  <smiles>  (123) 
[H]C1=C([H])C2(ON3C([H])([H])C([H])([H])C2([H])C([H])([H])C3([H])[H])C([H])([H])N1[H]

$$$$
31:0:1
     RDKit          3D

 26 28  0  0  1  0  0  0  0  0999 V2000
    5.9988   -4.1430   -0.3092 C   0  0  0  0  0  0  0  0  0  0  0  0
    6.7247   -3.0033   -0.5130 N   0  0  0  0  0  0  0  0  0  0  0  0
    6.0406   -2.1732   -1.4913 C   0  0  0  0  0  0  0  0  0  0  0  0
    4.8042   -2.9835   -1.9786 C   0  0  2  0  0  0  0  0  0  0  0  0
    4.9426   -4.2206   -1.1151 C   0  0  0  0  0  0  0  0  0  0  0  0
    4.9603   -3.2992   -3.3857 O   0  0  0  0  0  0  0  0  0  0  0  0
    3.8642   -2.7672   -4.2340 N   0  0  0  0  0  0  0  0  0  0  0  0
    2.6169   -3.3999   -3.7972 C   0  0  0  0  0  0  0  0  0  0  0  0
    2.3480   -3.1272   -2.3051 C   0  0  0  0  0  0  0  0  0  0  0  0
    3.4729   -2.2431   -1.7385 C   0  0  0  0  0  0  0  0  0  0  0  0
    3.5104   -0.9544   -2.5784 C   0  0  0  0  0  0  0  0  0  0  0  0
    3.8021   -1.3141   -4.0457 C   0  0  0  0  0  0  0  0  0  0  0  0
    6.3266   -4.8367    0.4501 H   0  0  0  0  0  0  0  0  0  0  0  0
    6.7140   -1.9477   -2.3148 H   0  0  0  0  0  0  0  0  0  0  0  0
    5.7609   -1.2467   -0.9892 H   0  0  0  0  0  0  0  0  0  0  0  0
    1.7843   -3.0076   -4.3831 H   0  0  0  0  0  0  0  0  0  0  0  0
    2.6634   -4.4653   -4.0078 H   0  0  0  0  0  0  0  0  0  0  0  0
    1.3775   -2.6543   -2.2005 H   0  0  0  0  0  0  0  0  0  0  0  0
    2.2622   -4.0666   -1.7560 H   0  0  0  0  0  0  0  0  0  0  0  0
    3.3064   -2.0274   -0.6813 H   0  0  0  0  0  0  0  0  0  0  0  0
    2.5534   -0.4369   -2.5053 H   0  0  0  0  0  0  0  0  0  0  0  0
    4.2583   -0.2446   -2.2232 H   0  0  0  0  0  0  0  0  0  0  0  0
    4.7385   -0.8699   -4.3836 H   0  0  0  0  0  0  0  0  0  0  0  0
    3.0083   -0.9134   -4.6788 H   0  0  0  0  0  0  0  0  0  0  0  0
    4.2435   -5.0433   -1.1281 H   0  0  0  0  0  0  0  0  0  0  0  0
    7.3126   -2.6009    0.2021 H   0  0  0  0  0  0  0  0  0  0  0  0
  1  5  2  0
  1 13  1  0
  1  2  1  0
  2  3  1  0
  2 26  1  0
  4  3  1  1
  3 14  1  0
  3 15  1  0
  4 10  1  0
  4  6  1  0
  4  5  1  0
  5 25  1  0
  6  7  1  0
  7 12  1  0
  7  8  1  0
  8  9  1  0
  8 16  1  0
  8 17  1  0
  9 10  1  0
  9 18  1  0
  9 19  1  0
 10 11  1  0
 10 20  1  0
 11 12  1  0
 11 21  1  0
 11 22  1  0
 12 23  1  0
 12 24  1  0
M  END
>  <i_m_ct_stereo_status>  (124) 
1

>  <s_m_source_file>  (124) 
/var/tmp/pbs.5076255.sched01/tmpb5cfx69f/43pm4c6kpw.sdf

>  <i_m_source_file_index>  (124) 
6

>  <i_lp_mmshare_version>  (124) 
48012

>  <i_f3d_flags>  (124) 
0

>  <s_epik_input>  (124) 
W0NIMl0xW0NIXT1OW0NIMl1bQ0BdMTJbQ0hdM1tDSDJdW0NIMl1OKE8yKVtDSDJdW0NIMl0z

>  <s_epik_cmdline>  (124) 
J2VwaWtfcHl0aG9uJywgJy1waHQnLCAnMi4wJywgJy1waCcsICc3LjAnLCAnLXRuJywgJzgnLCAnLW1hJywgJzIwMCcsICctaW1hZScsICc8aW5maWxlLm1hZT4nLCAnLW9tYWUnLCAnPG91dGZpbGUubWFlPic=

>  <r_lp_tautomer_probability>  (124) 
1

>  <r_epik_Ionization_Penalty>  (124) 
0.0114545

>  <r_epik_Ionization_Penalty_Charging>  (124) 
1.81047e-05

>  <r_epik_Ionization_Penalty_Neutral>  (124) 
0.0114364

>  <r_epik_State_Penalty>  (124) 
-0

>  <r_epik_Charging_Adjusted_Penalty>  (124) 
1.81047e-05

>  <i_epik_Tot_Q>  (124) 
0

>  <i_epik_Tot_abs_Q>  (124) 
0

>  <s_epik_Chemistry_Notes>  (124) 
This compound has an imine and may undergo hydrolysis. This compound has a N-S or N-O group and may undergo hydrolysis at high or low pH.

>  <s_lp_Force_Field>  (124) 
OPLS3e

>  <r_lp_Energy>  (124) 
25.3077

>  <b_lp_Chiralities_Consistent>  (124) 
1

>  <s_lp_Variant>  (124) 
31:0-1

>  <s_i_glide_gridfile>  (124) 
pfpi4k_grid

>  <i_i_glide_lignum>  (124) 
6

>  <i_i_glide_rotatable_bonds>  (124) 
0

>  <r_i_docking_score>  (124) 
-4.06316

>  <r_i_glide_ligand_efficiency>  (124) 
-0.338597

>  <r_i_glide_ligand_efficiency_sa>  (124) 
-0.775193

>  <r_i_glide_ligand_efficiency_ln>  (124) 
-1.16593

>  <r_i_glide_gscore>  (124) 
-4.06316

>  <r_i_glide_lipo>  (124) 
-0.370438

>  <r_i_glide_hbond>  (124) 
0

>  <r_i_glide_metal>  (124) 
-0

>  <r_i_glide_rewards>  (124) 
-2.25

>  <r_i_glide_evdw>  (124) 
-18.2924

>  <r_i_glide_ecoul>  (124) 
-3.29434

>  <r_i_glide_erotb>  (124) 
0

>  <r_i_glide_esite>  (124) 
-0.0339511

>  <r_i_glide_emodel>  (124) 
-26.6615

>  <r_i_glide_energy>  (124) 
-21.5868

>  <r_i_glide_einternal>  (124) 
0

>  <r_i_glide_intrahb_reward>  (124) 
-0

>  <i_i_glide_confnum>  (124) 
1

>  <i_i_glide_posenum>  (124) 
1

>  <r_i_glide_eff_state_penalty>  (124) 
0

>  <ligand_id>  (124) 
31

>  <original_smiles>  (124) 
C1=NCC2(C1)ON1CCC2CC1

>  <smiles>  (124) 
[H]C1=C([H])C2(ON3C([H])([H])C([H])([H])C2([H])C([H])([H])C3([H])[H])C([H])([H])N1[H]

$$$$
31:0:2
     RDKit          3D

 26 28  0  0  1  0  0  0  0  0999 V2000
    3.4722   -1.8605   -3.2878 C   0  0  0  0  0  0  0  0  0  0  0  0
    4.0381   -0.6999   -2.8280 N   0  0  0  0  0  0  0  0  0  0  0  0
    4.6199   -0.9180   -1.5131 C   0  0  0  0  0  0  0  0  0  0  0  0
    4.3228   -2.4003   -1.1472 C   0  0  2  0  0  0  0  0  0  0  0  0
    3.5649   -2.8435   -2.3892 C   0  0  0  0  0  0  0  0  0  0  0  0
    3.4623   -2.4487    0.0167 O   0  0  0  0  0  0  0  0  0  0  0  0
    4.0533   -3.1763    1.1585 N   0  0  0  0  0  0  0  0  0  0  0  0
    4.2533   -4.5664    0.7324 C   0  0  0  0  0  0  0  0  0  0  0  0
    5.1753   -4.6421   -0.5037 C   0  0  0  0  0  0  0  0  0  0  0  0
    5.6125   -3.2195   -0.9058 C   0  0  0  0  0  0  0  0  0  0  0  0
    6.3338   -2.6007    0.3136 C   0  0  0  0  0  0  0  0  0  0  0  0
    5.3352   -2.5368    1.4927 C   0  0  0  0  0  0  0  0  0  0  0  0
    3.0073   -1.8638   -4.2664 H   0  0  0  0  0  0  0  0  0  0  0  0
    4.1996   -0.2446   -0.7704 H   0  0  0  0  0  0  0  0  0  0  0  0
    5.6839   -0.6971   -1.6144 H   0  0  0  0  0  0  0  0  0  0  0  0
    4.7022   -5.1241    1.5570 H   0  0  0  0  0  0  0  0  0  0  0  0
    3.2822   -5.0238    0.5279 H   0  0  0  0  0  0  0  0  0  0  0  0
    6.0462   -5.2640   -0.2866 H   0  0  0  0  0  0  0  0  0  0  0  0
    4.6429   -5.1384   -1.3178 H   0  0  0  0  0  0  0  0  0  0  0  0
    6.2518   -3.2379   -1.7893 H   0  0  0  0  0  0  0  0  0  0  0  0
    7.2101   -3.1974    0.5828 H   0  0  0  0  0  0  0  0  0  0  0  0
    6.7149   -1.5945    0.1202 H   0  0  0  0  0  0  0  0  0  0  0  0
    5.1386   -1.5052    1.7945 H   0  0  0  0  0  0  0  0  0  0  0  0
    5.7662   -3.0485    2.3552 H   0  0  0  0  0  0  0  0  0  0  0  0
    3.1692   -3.8405   -2.5273 H   0  0  0  0  0  0  0  0  0  0  0  0
    4.2480    0.1076   -3.3980 H   0  0  0  0  0  0  0  0  0  0  0  0
  1  5  2  0
  1 13  1  0
  1  2  1  0
  2  3  1  0
  2 26  1  0
  4  3  1  6
  3 14  1  0
  3 15  1  0
  4 10  1  0
  4  6  1  0
  4  5  1  0
  5 25  1  0
  6  7  1  0
  7 12  1  0
  7  8  1  0
  8  9  1  0
  8 16  1  0
  8 17  1  0
  9 10  1  0
  9 18  1  0
  9 19  1  0
 10 11  1  0
 10 20  1  0
 11 12  1  0
 11 21  1  0
 11 22  1  0
 12 23  1  0
 12 24  1  0
M  END
>  <i_m_ct_stereo_status>  (125) 
1

>  <s_m_source_file>  (125) 
/var/tmp/pbs.5076255.sched01/tmpb5cfx69f/43pm4c6kpw.sdf

>  <i_m_source_file_index>  (125) 
6

>  <i_lp_mmshare_version>  (125) 
48012

>  <i_f3d_flags>  (125) 
0

>  <s_epik_input>  (125) 
W0NIMl0xW0NIXT1OW0NIMl1bQ0BdMTJbQ0hdM1tDSDJdW0NIMl1OKE8yKVtDSDJdW0NIMl0z

>  <s_epik_cmdline>  (125) 
J2VwaWtfcHl0aG9uJywgJy1waHQnLCAnMi4wJywgJy1waCcsICc3LjAnLCAnLXRuJywgJzgnLCAnLW1hJywgJzIwMCcsICctaW1hZScsICc8aW5maWxlLm1hZT4nLCAnLW9tYWUnLCAnPG91dGZpbGUubWFlPic=

>  <r_lp_tautomer_probability>  (125) 
1

>  <r_epik_Ionization_Penalty>  (125) 
0.0114545

>  <r_epik_Ionization_Penalty_Charging>  (125) 
1.81047e-05

>  <r_epik_Ionization_Penalty_Neutral>  (125) 
0.0114364

>  <r_epik_State_Penalty>  (125) 
-0

>  <r_epik_Charging_Adjusted_Penalty>  (125) 
1.81047e-05

>  <i_epik_Tot_Q>  (125) 
0

>  <i_epik_Tot_abs_Q>  (125) 
0

>  <s_epik_Chemistry_Notes>  (125) 
This compound has an imine and may undergo hydrolysis. This compound has a N-S or N-O group and may undergo hydrolysis at high or low pH.

>  <s_lp_Force_Field>  (125) 
OPLS3e

>  <r_lp_Energy>  (125) 
25.3077

>  <b_lp_Chiralities_Consistent>  (125) 
1

>  <s_lp_Variant>  (125) 
31:0-1

>  <s_i_glide_gridfile>  (125) 
pfpi4k_grid

>  <i_i_glide_lignum>  (125) 
6

>  <i_i_glide_rotatable_bonds>  (125) 
0

>  <r_i_docking_score>  (125) 
-3.44731

>  <r_i_glide_ligand_efficiency>  (125) 
-0.287276

>  <r_i_glide_ligand_efficiency_sa>  (125) 
-0.657698

>  <r_i_glide_ligand_efficiency_ln>  (125) 
-0.989213

>  <r_i_glide_gscore>  (125) 
-3.44731

>  <r_i_glide_lipo>  (125) 
-0.371962

>  <r_i_glide_hbond>  (125) 
0

>  <r_i_glide_metal>  (125) 
-0

>  <r_i_glide_rewards>  (125) 
-2.25871

>  <r_i_glide_evdw>  (125) 
-17.788

>  <r_i_glide_ecoul>  (125) 
0.755567

>  <r_i_glide_erotb>  (125) 
0

>  <r_i_glide_esite>  (125) 
-0.0405725

>  <r_i_glide_emodel>  (125) 
-21.3439

>  <r_i_glide_energy>  (125) 
-17.0324

>  <r_i_glide_einternal>  (125) 
0

>  <r_i_glide_intrahb_reward>  (125) 
-0

>  <i_i_glide_confnum>  (125) 
1

>  <i_i_glide_posenum>  (125) 
18

>  <r_i_glide_eff_state_penalty>  (125) 
0

>  <ligand_id>  (125) 
31

>  <original_smiles>  (125) 
C1=NCC2(C1)ON1CCC2CC1

>  <smiles>  (125) 
[H]C1=C([H])C2(ON3C([H])([H])C([H])([H])C2([H])C([H])([H])C3([H])[H])C([H])([H])N1[H]

$$$$
32:0:0
     RDKit          3D

 59 65  0  0  1  0  0  0  0  0999 V2000
    2.9356   -8.6079    4.3236 C   0  0  0  0  0  0  0  0  0  0  0  0
    4.0499   -7.5550    4.1763 C   0  0  0  0  0  0  0  0  0  0  0  0
    4.6340   -7.2279    5.5650 C   0  0  0  0  0  0  0  0  0  0  0  0
    3.4906   -6.2994    3.4440 C   0  0  2  0  0  0  0  0  0  0  0  0
    2.6186   -5.4267    4.2442 O   0  0  0  0  0  0  0  0  0  0  0  0
    2.4428   -4.1697    3.5401 C   0  0  1  0  0  0  0  0  0  0  0  0
    3.9307   -3.3705    3.5077 C   0  0  1  0  0  0  0  0  0  0  0  0
    4.6906   -4.4012    3.9548 O   0  0  0  0  0  0  0  0  0  0  0  0
    4.3210   -5.3945    2.9949 C   0  0  2  0  0  0  0  0  0  0  0  0
    3.1262   -4.7485    1.3468 C   0  0  2  0  0  0  0  0  0  0  0  0
    2.4295   -5.3136    0.1337 O   0  0  0  0  0  0  0  0  0  0  0  0
    3.1210   -3.2690    0.5880 C   0  0  1  0  0  0  0  0  0  0  0  0
    3.4947   -2.2067    1.5215 C   0  0  1  0  0  0  0  0  0  0  0  0
    2.3233   -1.5163    2.3180 C   0  0  0  0  0  0  0  0  0  0  0  0
    1.8057   -0.3833    1.6502 O   0  0  0  0  0  0  0  0  0  0  0  0
    4.7203   -3.0135    2.0898 C   0  0  1  0  0  0  0  0  0  0  0  0
    5.7915   -2.0921    1.9425 O   0  0  0  0  0  0  0  0  0  0  0  0
    6.1904   -1.6699    0.6674 C   0  0  0  0  0  0  0  0  0  0  0  0
    7.2590   -1.0961    0.4794 O   0  0  0  0  0  0  0  0  0  0  0  0
    5.2235   -1.8453   -0.5738 C   0  0  0  0  0  0  0  0  0  0  0  0
    4.0935   -2.9869   -0.6890 C   0  0  2  0  0  0  0  0  0  0  0  0
    3.1856   -2.5572   -1.8631 C   0  0  0  0  0  0  0  0  0  0  0  0
    4.8639   -4.2197   -1.1679 C   0  0  0  0  0  0  0  0  0  0  0  0
    5.8602   -4.6456   -0.1227 C   0  0  0  0  0  0  0  0  0  0  0  0
    5.3575   -4.4685    1.3262 C   0  0  2  0  0  0  0  0  0  0  0  0
    3.8887   -5.8126    1.9215 C   0  0  1  0  0  0  0  0  0  0  0  0
    4.0735   -7.2139    1.1249 C   0  0  0  0  0  0  0  0  0  0  0  0
    2.3603   -5.1177    2.2931 C   0  0  1  0  0  0  0  0  0  0  0  0
    1.1220   -5.8530    2.1128 O   0  0  0  0  0  0  0  0  0  0  0  0
    2.1082   -8.2381    4.9311 H   0  0  0  0  0  0  0  0  0  0  0  0
    3.3036   -9.5179    4.8021 H   0  0  0  0  0  0  0  0  0  0  0  0
    2.5281   -8.8982    3.3562 H   0  0  0  0  0  0  0  0  0  0  0  0
    4.8494   -8.0186    3.5988 H   0  0  0  0  0  0  0  0  0  0  0  0
    3.8860   -6.7803    6.2221 H   0  0  0  0  0  0  0  0  0  0  0  0
    5.4733   -6.5350    5.4978 H   0  0  0  0  0  0  0  0  0  0  0  0
    4.9991   -8.1303    6.0619 H   0  0  0  0  0  0  0  0  0  0  0  0
    1.5493   -3.6370    3.8636 H   0  0  0  0  0  0  0  0  0  0  0  0
    3.9961   -2.5729    4.2482 H   0  0  0  0  0  0  0  0  0  0  0  0
    5.3994   -5.8310    3.1879 H   0  0  0  0  0  0  0  0  0  0  0  0
    3.0450   -5.3553   -0.5858 H   0  0  0  0  0  0  0  0  0  0  0  0
    2.1000   -3.0424    0.2787 H   0  0  0  0  0  0  0  0  0  0  0  0
    3.7693   -1.2714    1.0577 H   0  0  0  0  0  0  0  0  0  0  0  0
    1.4540   -2.1535    2.4463 H   0  0  0  0  0  0  0  0  0  0  0  0
    2.6459   -1.1309    3.2844 H   0  0  0  0  0  0  0  0  0  0  0  0
    1.4695   -0.6374    0.7846 H   0  0  0  0  0  0  0  0  0  0  0  0
    4.7560   -0.8692   -0.7194 H   0  0  0  0  0  0  0  0  0  0  0  0
    5.8836   -1.9368   -1.4355 H   0  0  0  0  0  0  0  0  0  0  0  0
    3.7541   -2.3572   -2.7719 H   0  0  0  0  0  0  0  0  0  0  0  0
    2.6376   -1.6450   -1.6291 H   0  0  0  0  0  0  0  0  0  0  0  0
    2.4478   -3.3234   -2.1024 H   0  0  0  0  0  0  0  0  0  0  0  0
    4.2208   -5.0451   -1.4261 H   0  0  0  0  0  0  0  0  0  0  0  0
    5.4006   -4.0058   -2.0956 H   0  0  0  0  0  0  0  0  0  0  0  0
    6.1202   -5.6905   -0.2880 H   0  0  0  0  0  0  0  0  0  0  0  0
    6.7955   -4.1057   -0.2653 H   0  0  0  0  0  0  0  0  0  0  0  0
    6.3076   -4.6501    1.8311 H   0  0  0  0  0  0  0  0  0  0  0  0
    4.1832   -7.0739    0.0508 H   0  0  0  0  0  0  0  0  0  0  0  0
    3.2277   -7.8841    1.2842 H   0  0  0  0  0  0  0  0  0  0  0  0
    4.9804   -7.7360    1.4294 H   0  0  0  0  0  0  0  0  0  0  0  0
    1.1705   -6.6069    2.6786 H   0  0  0  0  0  0  0  0  0  0  0  0
  1  2  1  0
  1 30  1  0
  1 31  1  0
  1 32  1  0
  2  3  1  0
  4  2  1  6
  2 33  1  0
  3 34  1  0
  3 35  1  0
  3 36  1  0
  4  9  1  0
  4 26  1  0
  4  5  1  0
  5  6  1  0
  6 28  1  0
  6  7  1  0
  6 37  1  1
  7 16  1  0
  7  8  1  0
  7 38  1  1
  8  9  1  0
  9 10  1  0
  9 39  1  6
 10 28  1  0
 10 11  1  6
 10 12  1  0
 11 40  1  0
 12 21  1  0
 12 13  1  0
 12 41  1  6
 13 14  1  0
 13 16  1  0
 13 42  1  6
 14 15  1  0
 14 43  1  0
 14 44  1  0
 15 45  1  0
 16 25  1  0
 16 17  1  1
 17 18  1  0
 18 19  2  0
 18 20  1  0
 20 21  1  0
 20 46  1  0
 20 47  1  0
 21 22  1  6
 21 23  1  0
 22 48  1  0
 22 49  1  0
 22 50  1  0
 23 24  1  0
 23 51  1  0
 23 52  1  0
 24 25  1  0
 24 53  1  0
 24 54  1  0
 25 26  1  0
 25 55  1  1
 26 27  1  6
 26 28  1  0
 27 56  1  0
 27 57  1  0
 27 58  1  0
 28 29  1  6
 29 59  1  0
M  END
>  <i_m_ct_stereo_status>  (126) 
1

>  <s_m_source_file>  (126) 
/var/tmp/pbs.5076255.sched01/tmpb5cfx69f/43pm4c6kpw.sdf

>  <i_m_source_file_index>  (126) 
7

>  <i_lp_mmshare_version>  (126) 
48012

>  <i_f3d_flags>  (126) 
0

>  <s_epik_input>  (126) 
W0NAXTEyM1tDQEhdNFtDQEhdNVtDQEBdNihbT0hdKVtDQF03KFtPSF0pW0NAQEhdKE80KVtDQF0oTzUpKFtDSF0oW0NIM10pW0NIM10pW0NAXTYoW0NIM10pW0NASF0zW0NIMl1bQ0gyXVtDQF0oW0NIM10pKFtDSDJdQyhPMik9TylbQ0BASF03W0NASF0xW0NIMl1bT0hd

>  <s_epik_cmdline>  (126) 
J2VwaWtfcHl0aG9uJywgJy1waHQnLCAnMi4wJywgJy1waCcsICc3LjAnLCAnLXRuJywgJzgnLCAnLW1hJywgJzIwMCcsICctaW1hZScsICc8aW5maWxlLm1hZT4nLCAnLW9tYWUnLCAnPG91dGZpbGUubWFlPic=

>  <r_lp_tautomer_probability>  (126) 
1

>  <r_epik_Ionization_Penalty>  (126) 
6.58619e-07

>  <r_epik_Ionization_Penalty_Charging>  (126) 
0

>  <r_epik_Ionization_Penalty_Neutral>  (126) 
6.58619e-07

>  <r_epik_State_Penalty>  (126) 
-0

>  <r_epik_Charging_Adjusted_Penalty>  (126) 
0

>  <i_epik_Tot_Q>  (126) 
0

>  <i_epik_Tot_abs_Q>  (126) 
0

>  <s_epik_Chemistry_Notes>  (126) 
This compound has an ester and may undergo hydrolysis at high or low pH.

>  <s_lp_Force_Field>  (126) 
OPLS3e

>  <r_lp_Energy>  (126) 
880.089

>  <b_lp_Chiralities_Consistent>  (126) 
1

>  <s_lp_Variant>  (126) 
32:0-1

>  <s_i_glide_gridfile>  (126) 
pfpi4k_grid

>  <i_i_glide_lignum>  (126) 
7

>  <i_i_glide_rotatable_bonds>  (126) 
5

>  <r_i_docking_score>  (126) 
-3.40953

>  <r_i_glide_ligand_efficiency>  (126) 
-0.11757

>  <r_i_glide_ligand_efficiency_sa>  (126) 
-0.361212

>  <r_i_glide_ligand_efficiency_ln>  (126) 
-0.780695

>  <r_i_glide_gscore>  (126) 
-3.40953

>  <r_i_glide_lipo>  (126) 
-0.259904

>  <r_i_glide_hbond>  (126) 
-0.187474

>  <r_i_glide_metal>  (126) 
-0

>  <r_i_glide_rewards>  (126) 
-0.782221

>  <r_i_glide_evdw>  (126) 
-17.6996

>  <r_i_glide_ecoul>  (126) 
-9.42637

>  <r_i_glide_erotb>  (126) 
0.11901

>  <r_i_glide_esite>  (126) 
0

>  <r_i_glide_emodel>  (126) 
-33.3645

>  <r_i_glide_energy>  (126) 
-27.126

>  <r_i_glide_einternal>  (126) 
1.2296

>  <r_i_glide_intrahb_reward>  (126) 
-0

>  <i_i_glide_confnum>  (126) 
2

>  <i_i_glide_posenum>  (126) 
9

>  <r_i_glide_eff_state_penalty>  (126) 
0

>  <ligand_id>  (126) 
32

>  <original_smiles>  (126) 
CC(C)C12OC3C4OC1C1(O)C5C(CO)C46OC(=O)CC5(C)CCC6C2(C)C31O

>  <smiles>  (126) 
[H]OC([H])([H])C1([H])C2([H])C3(O[H])C4([H])OC5([H])C6([H])OC4(C([H])(C([H])([H])[H])C([H])([H])[H])C(C([H])([H])[H])(C4([H])C([H])([H])C([H])([H])C2(C([H])([H])[H])C([H])([H])C(=O)OC514)C63O[H]

$$$$
32:0:1
     RDKit          3D

 59 65  0  0  1  0  0  0  0  0999 V2000
    2.2788   -1.8966   -4.1705 C   0  0  0  0  0  0  0  0  0  0  0  0
    2.9572   -1.0263   -3.0999 C   0  0  0  0  0  0  0  0  0  0  0  0
    3.6295    0.1514   -3.8456 C   0  0  0  0  0  0  0  0  0  0  0  0
    3.9617   -1.8791   -2.2829 C   0  0  2  0  0  0  0  0  0  0  0  0
    5.3658   -1.6442   -2.6177 O   0  0  0  0  0  0  0  0  0  0  0  0
    6.2176   -2.2587   -1.6269 C   0  0  1  0  0  0  0  0  0  0  0  0
    6.0115   -1.3878   -0.1811 C   0  0  1  0  0  0  0  0  0  0  0  0
    4.9553   -0.6559   -0.5920 O   0  0  0  0  0  0  0  0  0  0  0  0
    4.0605   -1.6965   -0.9917 C   0  0  2  0  0  0  0  0  0  0  0  0
    4.6965   -3.6856   -0.5236 C   0  0  2  0  0  0  0  0  0  0  0  0
    4.3249   -5.1140   -0.6825 O   0  0  0  0  0  0  0  0  0  0  0  0
    5.5767   -4.2129    0.7604 C   0  0  1  0  0  0  0  0  0  0  0  0
    6.4765   -3.1699    1.1953 C   0  0  1  0  0  0  0  0  0  0  0  0
    7.9420   -3.1484    0.6068 C   0  0  0  0  0  0  0  0  0  0  0  0
    8.6935   -4.2334    1.1348 O   0  0  0  0  0  0  0  0  0  0  0  0
    5.3692   -2.0547    1.1911 C   0  0  1  0  0  0  0  0  0  0  0  0
    5.4078   -1.4926    2.4848 O   0  0  0  0  0  0  0  0  0  0  0  0
    5.0915   -2.2772    3.5881 C   0  0  0  0  0  0  0  0  0  0  0  0
    4.8951   -1.7738    4.6894 O   0  0  0  0  0  0  0  0  0  0  0  0
    5.1017   -3.8547    3.4826 C   0  0  0  0  0  0  0  0  0  0  0  0
    4.8337   -4.6827    2.1303 C   0  0  2  0  0  0  0  0  0  0  0  0
    5.2921   -6.1219    2.4162 C   0  0  0  0  0  0  0  0  0  0  0  0
    3.3128   -4.7340    2.0302 C   0  0  0  0  0  0  0  0  0  0  0  0
    2.7844   -3.3285    1.8836 C   0  0  0  0  0  0  0  0  0  0  0  0
    3.6594   -2.4152    1.0147 C   0  0  2  0  0  0  0  0  0  0  0  0
    3.6338   -2.8688   -1.0079 C   0  0  1  0  0  0  0  0  0  0  0  0
    2.2377   -3.5758   -1.3944 C   0  0  0  0  0  0  0  0  0  0  0  0
    5.1234   -3.3787   -1.6778 C   0  0  1  0  0  0  0  0  0  0  0  0
    5.0841   -4.2233   -2.8669 O   0  0  0  0  0  0  0  0  0  0  0  0
    3.0631   -2.3637   -4.7919 H   0  0  0  0  0  0  0  0  0  0  0  0
    1.6163   -1.2651   -4.7189 H   0  0  0  0  0  0  0  0  0  0  0  0
    1.5895   -2.6577   -3.8248 H   0  0  0  0  0  0  0  0  0  0  0  0
    2.2106   -0.5788   -2.4611 H   0  0  0  0  0  0  0  0  0  0  0  0
    4.3858   -0.1691   -4.5761 H   0  0  0  0  0  0  0  0  0  0  0  0
    4.0966    0.8530   -3.1469 H   0  0  0  0  0  0  0  0  0  0  0  0
    2.8822    0.7142   -4.4129 H   0  0  0  0  0  0  0  0  0  0  0  0
    7.1899   -2.4076   -2.0818 H   0  0  0  0  0  0  0  0  0  0  0  0
    6.8244   -0.7037    0.0446 H   0  0  0  0  0  0  0  0  0  0  0  0
    3.2034   -0.9532   -0.6905 H   0  0  0  0  0  0  0  0  0  0  0  0
    3.7013   -5.1855   -1.3998 H   0  0  0  0  0  0  0  0  0  0  0  0
    6.2141   -5.0327    0.4269 H   0  0  0  0  0  0  0  0  0  0  0  0
    6.8647   -3.3639    2.1616 H   0  0  0  0  0  0  0  0  0  0  0  0
    8.0543   -3.3275   -0.4582 H   0  0  0  0  0  0  0  0  0  0  0  0
    8.4356   -2.2107    0.8697 H   0  0  0  0  0  0  0  0  0  0  0  0
    8.2331   -5.0328    0.9295 H   0  0  0  0  0  0  0  0  0  0  0  0
    6.0563   -4.1750    3.9009 H   0  0  0  0  0  0  0  0  0  0  0  0
    4.3878   -4.1932    4.2334 H   0  0  0  0  0  0  0  0  0  0  0  0
    4.8265   -6.5256    3.3139 H   0  0  0  0  0  0  0  0  0  0  0  0
    6.3695   -6.1797    2.5570 H   0  0  0  0  0  0  0  0  0  0  0  0
    5.0309   -6.7851    1.5949 H   0  0  0  0  0  0  0  0  0  0  0  0
    2.9475   -5.3821    1.2407 H   0  0  0  0  0  0  0  0  0  0  0  0
    2.8719   -5.1565    2.9335 H   0  0  0  0  0  0  0  0  0  0  0  0
    1.8194   -3.3663    1.4240 H   0  0  0  0  0  0  0  0  0  0  0  0
    2.6214   -2.8638    2.8577 H   0  0  0  0  0  0  0  0  0  0  0  0
    3.1487   -1.4727    1.2237 H   0  0  0  0  0  0  0  0  0  0  0  0
    1.9055   -4.3053   -0.6397 H   0  0  0  0  0  0  0  0  0  0  0  0
    2.3169   -4.1019   -2.3451 H   0  0  0  0  0  0  0  0  0  0  0  0
    1.4501   -2.8313   -1.5158 H   0  0  0  0  0  0  0  0  0  0  0  0
    4.4781   -4.9169   -2.7392 H   0  0  0  0  0  0  0  0  0  0  0  0
  1  2  1  0
  1 30  1  0
  1 31  1  0
  1 32  1  0
  2  3  1  0
  4  2  1  6
  2 33  1  0
  3 34  1  0
  3 35  1  0
  3 36  1  0
  4  9  1  0
  4 26  1  0
  4  5  1  0
  5  6  1  0
  6 28  1  0
  6  7  1  0
  6 37  1  6
  7 16  1  0
  7  8  1  0
  7 38  1  1
  8  9  1  0
  9 10  1  0
  9 39  1  1
 10 28  1  0
 10 11  1  6
 10 12  1  0
 11 40  1  0
 12 21  1  0
 12 13  1  0
 12 41  1  6
 13 14  1  0
 13 16  1  0
 13 42  1  1
 14 15  1  0
 14 43  1  0
 14 44  1  0
 15 45  1  0
 16 25  1  0
 16 17  1  1
 17 18  1  0
 18 19  2  0
 18 20  1  0
 20 21  1  0
 20 46  1  0
 20 47  1  0
 21 22  1  1
 21 23  1  0
 22 48  1  0
 22 49  1  0
 22 50  1  0
 23 24  1  0
 23 51  1  0
 23 52  1  0
 24 25  1  0
 24 53  1  0
 24 54  1  0
 25 26  1  0
 25 55  1  6
 26 27  1  6
 26 28  1  0
 27 56  1  0
 27 57  1  0
 27 58  1  0
 28 29  1  6
 29 59  1  0
M  END
>  <i_m_ct_stereo_status>  (127) 
1

>  <s_m_source_file>  (127) 
/var/tmp/pbs.5076255.sched01/tmpb5cfx69f/43pm4c6kpw.sdf

>  <i_m_source_file_index>  (127) 
7

>  <i_lp_mmshare_version>  (127) 
48012

>  <i_f3d_flags>  (127) 
0

>  <s_epik_input>  (127) 
W0NAXTEyM1tDQEhdNFtDQEhdNVtDQEBdNihbT0hdKVtDQF03KFtPSF0pW0NAQEhdKE80KVtDQF0oTzUpKFtDSF0oW0NIM10pW0NIM10pW0NAXTYoW0NIM10pW0NASF0zW0NIMl1bQ0gyXVtDQF0oW0NIM10pKFtDSDJdQyhPMik9TylbQ0BASF03W0NASF0xW0NIMl1bT0hd

>  <s_epik_cmdline>  (127) 
J2VwaWtfcHl0aG9uJywgJy1waHQnLCAnMi4wJywgJy1waCcsICc3LjAnLCAnLXRuJywgJzgnLCAnLW1hJywgJzIwMCcsICctaW1hZScsICc8aW5maWxlLm1hZT4nLCAnLW9tYWUnLCAnPG91dGZpbGUubWFlPic=

>  <r_lp_tautomer_probability>  (127) 
1

>  <r_epik_Ionization_Penalty>  (127) 
6.58619e-07

>  <r_epik_Ionization_Penalty_Charging>  (127) 
0

>  <r_epik_Ionization_Penalty_Neutral>  (127) 
6.58619e-07

>  <r_epik_State_Penalty>  (127) 
-0

>  <r_epik_Charging_Adjusted_Penalty>  (127) 
0

>  <i_epik_Tot_Q>  (127) 
0

>  <i_epik_Tot_abs_Q>  (127) 
0

>  <s_epik_Chemistry_Notes>  (127) 
This compound has an ester and may undergo hydrolysis at high or low pH.

>  <s_lp_Force_Field>  (127) 
OPLS3e

>  <r_lp_Energy>  (127) 
880.089

>  <b_lp_Chiralities_Consistent>  (127) 
1

>  <s_lp_Variant>  (127) 
32:0-1

>  <s_i_glide_gridfile>  (127) 
pfpi4k_grid

>  <i_i_glide_lignum>  (127) 
7

>  <i_i_glide_rotatable_bonds>  (127) 
5

>  <r_i_docking_score>  (127) 
-3.25931

>  <r_i_glide_ligand_efficiency>  (127) 
-0.11239

>  <r_i_glide_ligand_efficiency_sa>  (127) 
-0.345297

>  <r_i_glide_ligand_efficiency_ln>  (127) 
-0.746298

>  <r_i_glide_gscore>  (127) 
-3.25931

>  <r_i_glide_lipo>  (127) 
-0.698509

>  <r_i_glide_hbond>  (127) 
0

>  <r_i_glide_metal>  (127) 
-0

>  <r_i_glide_rewards>  (127) 
-0.720611

>  <r_i_glide_evdw>  (127) 
-13.5494

>  <r_i_glide_ecoul>  (127) 
-8.54485

>  <r_i_glide_erotb>  (127) 
0.11901

>  <r_i_glide_esite>  (127) 
0

>  <r_i_glide_emodel>  (127) 
-25.6755

>  <r_i_glide_energy>  (127) 
-22.0942

>  <r_i_glide_einternal>  (127) 
3.2277

>  <r_i_glide_intrahb_reward>  (127) 
-0

>  <i_i_glide_confnum>  (127) 
2

>  <i_i_glide_posenum>  (127) 
11

>  <r_i_glide_eff_state_penalty>  (127) 
0

>  <ligand_id>  (127) 
32

>  <original_smiles>  (127) 
CC(C)C12OC3C4OC1C1(O)C5C(CO)C46OC(=O)CC5(C)CCC6C2(C)C31O

>  <smiles>  (127) 
[H]OC([H])([H])C1([H])C2([H])C3(O[H])C4([H])OC5([H])C6([H])OC4(C([H])(C([H])([H])[H])C([H])([H])[H])C(C([H])([H])[H])(C4([H])C([H])([H])C([H])([H])C2(C([H])([H])[H])C([H])([H])C(=O)OC514)C63O[H]

$$$$
32:0:2
     RDKit          3D

 59 65  0  0  1  0  0  0  0  0999 V2000
    3.0658   -8.0503    4.3943 C   0  0  0  0  0  0  0  0  0  0  0  0
    3.0800   -7.6886    2.8955 C   0  0  0  0  0  0  0  0  0  0  0  0
    3.3798   -8.9523    2.0636 C   0  0  0  0  0  0  0  0  0  0  0  0
    4.1054   -6.5471    2.6481 C   0  0  2  0  0  0  0  0  0  0  0  0
    5.5097   -6.9544    2.7288 O   0  0  0  0  0  0  0  0  0  0  0  0
    6.3319   -5.8858    2.2077 C   0  0  1  0  0  0  0  0  0  0  0  0
    6.0417   -5.7721    0.5472 C   0  0  1  0  0  0  0  0  0  0  0  0
    4.9610   -6.5937    0.5029 O   0  0  0  0  0  0  0  0  0  0  0  0
    4.1459   -5.9489    1.4860 C   0  0  2  0  0  0  0  0  0  0  0  0
    4.8328   -4.0570    2.1962 C   0  0  2  0  0  0  0  0  0  0  0  0
    4.4470   -2.9899    3.1863 O   0  0  0  0  0  0  0  0  0  0  0  0
    5.6933   -2.8926    1.3822 C   0  0  1  0  0  0  0  0  0  0  0  0
    6.5437   -3.4959    0.3561 C   0  0  1  0  0  0  0  0  0  0  0  0
    8.0295   -3.8696    0.7360 C   0  0  0  0  0  0  0  0  0  0  0  0
    8.7992   -4.2818   -0.3789 O   0  0  0  0  0  0  0  0  0  0  0  0
    5.3871   -4.4182   -0.1764 C   0  0  1  0  0  0  0  0  0  0  0  0
    5.3819   -4.1261   -1.5636 O   0  0  0  0  0  0  0  0  0  0  0  0
    5.0556   -2.8450   -2.0285 C   0  0  0  0  0  0  0  0  0  0  0  0
    4.8157   -2.6304   -3.2147 O   0  0  0  0  0  0  0  0  0  0  0  0
    5.1030   -1.6085   -1.0381 C   0  0  0  0  0  0  0  0  0  0  0  0
    4.9107   -1.7106    0.5633 C   0  0  2  0  0  0  0  0  0  0  0  0
    5.4118   -0.3639    1.1293 C   0  0  0  0  0  0  0  0  0  0  0  0
    3.3904   -1.7114    0.7582 C   0  0  0  0  0  0  0  0  0  0  0  0
    2.8081   -2.9470    0.1184 C   0  0  0  0  0  0  0  0  0  0  0  0
    3.6878   -4.2051    0.2651 C   0  0  2  0  0  0  0  0  0  0  0  0
    3.7546   -5.0083    2.1837 C   0  0  1  0  0  0  0  0  0  0  0  0
    2.3695   -4.6962    2.9602 C   0  0  0  0  0  0  0  0  0  0  0  0
    5.2913   -4.9797    2.9481 C   0  0  1  0  0  0  0  0  0  0  0  0
    5.4366   -4.8778    4.3791 O   0  0  0  0  0  0  0  0  0  0  0  0
    4.0346   -8.4256    4.7297 H   0  0  0  0  0  0  0  0  0  0  0  0
    2.3272   -8.8247    4.6125 H   0  0  0  0  0  0  0  0  0  0  0  0
    2.8235   -7.1857    5.0115 H   0  0  0  0  0  0  0  0  0  0  0  0
    2.0738   -7.3655    2.6362 H   0  0  0  0  0  0  0  0  0  0  0  0
    4.3691   -9.3591    2.2836 H   0  0  0  0  0  0  0  0  0  0  0  0
    3.3382   -8.7527    0.9929 H   0  0  0  0  0  0  0  0  0  0  0  0
    2.6545   -9.7425    2.2715 H   0  0  0  0  0  0  0  0  0  0  0  0
    7.3375   -5.9999    2.6103 H   0  0  0  0  0  0  0  0  0  0  0  0
    6.8481   -6.2265   -0.0187 H   0  0  0  0  0  0  0  0  0  0  0  0
    3.2372   -6.3847    0.8763 H   0  0  0  0  0  0  0  0  0  0  0  0
    3.8690   -2.3772    2.7528 H   0  0  0  0  0  0  0  0  0  0  0  0
    6.3776   -2.4114    2.0829 H   0  0  0  0  0  0  0  0  0  0  0  0
    6.9197   -2.7625   -0.3432 H   0  0  0  0  0  0  0  0  0  0  0  0
    8.5061   -2.9695    1.1140 H   0  0  0  0  0  0  0  0  0  0  0  0
    8.2197   -4.5645    1.5356 H   0  0  0  0  0  0  0  0  0  0  0  0
    8.8980   -3.5635   -0.9950 H   0  0  0  0  0  0  0  0  0  0  0  0
    6.0531   -1.1117   -1.2400 H   0  0  0  0  0  0  0  0  0  0  0  0
    4.3747   -0.8932   -1.4243 H   0  0  0  0  0  0  0  0  0  0  0  0
    4.9362    0.4912    0.6450 H   0  0  0  0  0  0  0  0  0  0  0  0
    6.4865   -0.2674    0.9834 H   0  0  0  0  0  0  0  0  0  0  0  0
    5.2135   -0.2735    2.1980 H   0  0  0  0  0  0  0  0  0  0  0  0
    3.0761   -1.6097    1.7928 H   0  0  0  0  0  0  0  0  0  0  0  0
    2.9448   -0.8375    0.2768 H   0  0  0  0  0  0  0  0  0  0  0  0
    1.8270   -3.1307    0.5502 H   0  0  0  0  0  0  0  0  0  0  0  0
    2.6036   -2.7542   -0.9348 H   0  0  0  0  0  0  0  0  0  0  0  0
    3.1419   -4.8510   -0.4265 H   0  0  0  0  0  0  0  0  0  0  0  0
    2.0756   -3.6496    2.8949 H   0  0  0  0  0  0  0  0  0  0  0  0
    2.4375   -4.9508    4.0180 H   0  0  0  0  0  0  0  0  0  0  0  0
    1.5369   -5.2492    2.5295 H   0  0  0  0  0  0  0  0  0  0  0  0
    6.2822   -4.4926    4.5497 H   0  0  0  0  0  0  0  0  0  0  0  0
  1  2  1  0
  1 30  1  0
  1 31  1  0
  1 32  1  0
  2  3  1  0
  4  2  1  6
  2 33  1  0
  3 34  1  0
  3 35  1  0
  3 36  1  0
  4  9  1  0
  4 26  1  0
  4  5  1  0
  5  6  1  0
  6 28  1  0
  6  7  1  0
  6 37  1  6
  7 16  1  0
  7  8  1  0
  7 38  1  6
  8  9  1  0
  9 10  1  0
  9 39  1  6
 10 28  1  0
 10 11  1  1
 10 12  1  0
 11 40  1  0
 12 21  1  0
 12 13  1  0
 12 41  1  1
 13 14  1  0
 13 16  1  0
 13 42  1  6
 14 15  1  0
 14 43  1  0
 14 44  1  0
 15 45  1  0
 16 25  1  0
 16 17  1  6
 17 18  1  0
 18 19  2  0
 18 20  1  0
 20 21  1  0
 20 46  1  0
 20 47  1  0
 21 22  1  1
 21 23  1  0
 22 48  1  0
 22 49  1  0
 22 50  1  0
 23 24  1  0
 23 51  1  0
 23 52  1  0
 24 25  1  0
 24 53  1  0
 24 54  1  0
 25 26  1  0
 25 55  1  6
 26 27  1  1
 26 28  1  0
 27 56  1  0
 27 57  1  0
 27 58  1  0
 28 29  1  1
 29 59  1  0
M  END
>  <i_m_ct_stereo_status>  (128) 
1

>  <s_m_source_file>  (128) 
/var/tmp/pbs.5076255.sched01/tmpb5cfx69f/43pm4c6kpw.sdf

>  <i_m_source_file_index>  (128) 
7

>  <i_lp_mmshare_version>  (128) 
48012

>  <i_f3d_flags>  (128) 
0

>  <s_epik_input>  (128) 
W0NAXTEyM1tDQEhdNFtDQEhdNVtDQEBdNihbT0hdKVtDQF03KFtPSF0pW0NAQEhdKE80KVtDQF0oTzUpKFtDSF0oW0NIM10pW0NIM10pW0NAXTYoW0NIM10pW0NASF0zW0NIMl1bQ0gyXVtDQF0oW0NIM10pKFtDSDJdQyhPMik9TylbQ0BASF03W0NASF0xW0NIMl1bT0hd

>  <s_epik_cmdline>  (128) 
J2VwaWtfcHl0aG9uJywgJy1waHQnLCAnMi4wJywgJy1waCcsICc3LjAnLCAnLXRuJywgJzgnLCAnLW1hJywgJzIwMCcsICctaW1hZScsICc8aW5maWxlLm1hZT4nLCAnLW9tYWUnLCAnPG91dGZpbGUubWFlPic=

>  <r_lp_tautomer_probability>  (128) 
1

>  <r_epik_Ionization_Penalty>  (128) 
6.58619e-07

>  <r_epik_Ionization_Penalty_Charging>  (128) 
0

>  <r_epik_Ionization_Penalty_Neutral>  (128) 
6.58619e-07

>  <r_epik_State_Penalty>  (128) 
-0

>  <r_epik_Charging_Adjusted_Penalty>  (128) 
0

>  <i_epik_Tot_Q>  (128) 
0

>  <i_epik_Tot_abs_Q>  (128) 
0

>  <s_epik_Chemistry_Notes>  (128) 
This compound has an ester and may undergo hydrolysis at high or low pH.

>  <s_lp_Force_Field>  (128) 
OPLS3e

>  <r_lp_Energy>  (128) 
880.089

>  <b_lp_Chiralities_Consistent>  (128) 
1

>  <s_lp_Variant>  (128) 
32:0-1

>  <s_i_glide_gridfile>  (128) 
pfpi4k_grid

>  <i_i_glide_lignum>  (128) 
7

>  <i_i_glide_rotatable_bonds>  (128) 
5

>  <r_i_docking_score>  (128) 
-3.05009

>  <r_i_glide_ligand_efficiency>  (128) 
-0.105175

>  <r_i_glide_ligand_efficiency_sa>  (128) 
-0.323132

>  <r_i_glide_ligand_efficiency_ln>  (128) 
-0.698392

>  <r_i_glide_gscore>  (128) 
-3.05009

>  <r_i_glide_lipo>  (128) 
-0.76715

>  <r_i_glide_hbond>  (128) 
-0.0517264

>  <r_i_glide_metal>  (128) 
-0

>  <r_i_glide_rewards>  (128) 
-0.743333

>  <r_i_glide_evdw>  (128) 
-22.7183

>  <r_i_glide_ecoul>  (128) 
-3.13981

>  <r_i_glide_erotb>  (128) 
0.11901

>  <r_i_glide_esite>  (128) 
0

>  <r_i_glide_emodel>  (128) 
-30.9134

>  <r_i_glide_energy>  (128) 
-25.8581

>  <r_i_glide_einternal>  (128) 
1.74474

>  <r_i_glide_intrahb_reward>  (128) 
-0

>  <i_i_glide_confnum>  (128) 
1

>  <i_i_glide_posenum>  (128) 
7

>  <r_i_glide_eff_state_penalty>  (128) 
0

>  <ligand_id>  (128) 
32

>  <original_smiles>  (128) 
CC(C)C12OC3C4OC1C1(O)C5C(CO)C46OC(=O)CC5(C)CCC6C2(C)C31O

>  <smiles>  (128) 
[H]OC([H])([H])C1([H])C2([H])C3(O[H])C4([H])OC5([H])C6([H])OC4(C([H])(C([H])([H])[H])C([H])([H])[H])C(C([H])([H])[H])(C4([H])C([H])([H])C([H])([H])C2(C([H])([H])[H])C([H])([H])C(=O)OC514)C63O[H]

$$$$
33:0:0
     RDKit          3D

 43 46  0  0  1  0  0  0  0  0999 V2000
    2.6043   -3.1835   -3.7305 C   0  0  0  0  0  0  0  0  0  0  0  0
    3.1760   -2.2999   -2.6183 C   0  0  2  0  0  0  0  0  0  0  0  0
    3.9411   -1.1456   -3.2256 C   0  0  1  0  0  0  0  0  0  0  0  0
    3.0775   -0.1273   -3.7027 O   0  0  0  0  0  0  0  0  0  0  0  0
    4.8098   -0.6779   -2.0521 C   0  0  0  0  0  0  0  0  0  0  0  0
    5.0083   -1.8224   -1.0699 C   0  0  2  0  0  0  0  0  0  0  0  0
    4.1597   -2.9414   -1.6396 C   0  0  2  0  0  0  0  0  0  0  0  0
    4.8963   -4.1791   -2.0091 C   0  0  0  0  0  0  0  0  0  0  0  0
    3.8607   -4.2313   -0.9018 C   0  0  1  0  0  0  0  0  0  0  0  0
    4.4349   -4.6715    0.4102 C   0  0  0  0  0  0  0  0  0  0  0  0
    4.9598   -5.7690    0.4986 O   0  0  0  0  0  0  0  0  0  0  0  0
    4.3082   -3.7325    1.6216 C   0  0  1  0  0  0  0  0  0  0  0  0
    4.6200   -4.4703    2.7953 O   0  0  0  0  0  0  0  0  0  0  0  0
    5.2010   -2.4848    1.4494 C   0  0  2  0  0  0  0  0  0  0  0  0
    6.6722   -2.8939    1.2378 C   0  0  0  0  0  0  0  0  0  0  0  0
    5.1989   -1.5781    2.6862 C   0  0  0  0  0  0  0  0  0  0  0  0
    5.0435   -1.9658    3.8546 O   0  0  0  0  0  0  0  0  0  0  0  0
    5.3745   -0.3066    2.2938 O   0  0  0  0  0  0  0  0  0  0  0  0
    5.3841   -0.1914    0.8831 C   0  0  0  0  0  0  0  0  0  0  0  0
    4.6784   -1.4653    0.4046 C   0  0  1  0  0  0  0  0  0  0  0  0
    3.1677   -1.1896    0.5835 C   0  0  0  0  0  0  0  0  0  0  0  0
    3.3698   -3.4806   -4.4476 H   0  0  0  0  0  0  0  0  0  0  0  0
    1.8358   -2.6394   -4.2794 H   0  0  0  0  0  0  0  0  0  0  0  0
    2.1419   -4.0728   -3.3193 H   0  0  0  0  0  0  0  0  0  0  0  0
    2.3521   -1.9286   -2.0166 H   0  0  0  0  0  0  0  0  0  0  0  0
    4.5584   -1.4673   -4.0764 H   0  0  0  0  0  0  0  0  0  0  0  0
    2.6458    0.2915   -2.9784 H   0  0  0  0  0  0  0  0  0  0  0  0
    5.7838   -0.3269   -2.3699 H   0  0  0  0  0  0  0  0  0  0  0  0
    4.2985    0.1432   -1.5563 H   0  0  0  0  0  0  0  0  0  0  0  0
    6.0440   -2.1266   -1.1887 H   0  0  0  0  0  0  0  0  0  0  0  0
    4.6349   -4.6273   -2.9694 H   0  0  0  0  0  0  0  0  0  0  0  0
    5.9575   -4.1828   -1.7483 H   0  0  0  0  0  0  0  0  0  0  0  0
    2.8676   -4.6350   -1.1013 H   0  0  0  0  0  0  0  0  0  0  0  0
    3.2635   -3.4515    1.7042 H   0  0  0  0  0  0  0  0  0  0  0  0
    4.5404   -3.8817    3.5286 H   0  0  0  0  0  0  0  0  0  0  0  0
    6.8484   -3.4431    0.3199 H   0  0  0  0  0  0  0  0  0  0  0  0
    6.9634   -3.5632    2.0498 H   0  0  0  0  0  0  0  0  0  0  0  0
    7.3582   -2.0453    1.2573 H   0  0  0  0  0  0  0  0  0  0  0  0
    4.8455    0.7022    0.5651 H   0  0  0  0  0  0  0  0  0  0  0  0
    6.4020   -0.1305    0.4973 H   0  0  0  0  0  0  0  0  0  0  0  0
    2.8814   -0.9030    1.5966 H   0  0  0  0  0  0  0  0  0  0  0  0
    2.5635   -2.0454    0.2946 H   0  0  0  0  0  0  0  0  0  0  0  0
    2.8553   -0.3577   -0.0367 H   0  0  0  0  0  0  0  0  0  0  0  0
  1  2  1  0
  1 22  1  0
  1 23  1  0
  1 24  1  0
  2  7  1  0
  2  3  1  0
  2 25  1  1
  3  4  1  0
  3  5  1  0
  3 26  1  6
  4 27  1  0
  5  6  1  0
  5 28  1  0
  5 29  1  0
  6 20  1  0
  6  7  1  0
  6 30  1  1
  7  9  1  0
  7  8  1  6
  8  9  1  0
  8 31  1  0
  8 32  1  0
  9 10  1  0
  9 33  1  6
 10 11  2  0
 10 12  1  0
 12 13  1  0
 12 14  1  0
 12 34  1  1
 13 35  1  0
 14 20  1  0
 14 15  1  6
 14 16  1  0
 15 36  1  0
 15 37  1  0
 15 38  1  0
 16 17  2  0
 16 18  1  0
 18 19  1  0
 19 20  1  0
 19 39  1  0
 19 40  1  0
 20 21  1  6
 21 41  1  0
 21 42  1  0
 21 43  1  0
M  END
>  <i_m_ct_stereo_status>  (129) 
1

>  <s_m_source_file>  (129) 
/var/tmp/pbs.5076255.sched01/tmpb5cfx69f/43pm4c6kpw.sdf

>  <i_m_source_file_index>  (129) 
8

>  <i_lp_mmshare_version>  (129) 
48012

>  <i_f3d_flags>  (129) 
0

>  <s_epik_input>  (129) 
W0NIM11bQ0BASF0xW0NAQEhdKFtPSF0pW0NIMl1bQ0BIXShbQ0BAXTEyMylbQ0BAXTQoW0NIM10pW0NAQF0oW0NIM10pKEMoPU8pT1tDSDJdNClbQ0BIXShbT0hdKUMoPU8pW0NAQEhdM1tDSDJdMg==

>  <s_epik_cmdline>  (129) 
J2VwaWtfcHl0aG9uJywgJy1waHQnLCAnMi4wJywgJy1waCcsICc3LjAnLCAnLXRuJywgJzgnLCAnLW1hJywgJzIwMCcsICctaW1hZScsICc8aW5maWxlLm1hZT4nLCAnLW9tYWUnLCAnPG91dGZpbGUubWFlPic=

>  <r_lp_tautomer_probability>  (129) 
1

>  <r_epik_Ionization_Penalty>  (129) 
1.06024e-06

>  <r_epik_Ionization_Penalty_Charging>  (129) 
0

>  <r_epik_Ionization_Penalty_Neutral>  (129) 
1.06024e-06

>  <r_epik_State_Penalty>  (129) 
-0

>  <r_epik_Charging_Adjusted_Penalty>  (129) 
0

>  <i_epik_Tot_Q>  (129) 
0

>  <i_epik_Tot_abs_Q>  (129) 
0

>  <s_epik_Chemistry_Notes>  (129) 
This compound has an ester and may undergo hydrolysis at high or low pH.

>  <s_lp_Force_Field>  (129) 
OPLS3e

>  <r_lp_Energy>  (129) 
17.3498

>  <b_lp_Chiralities_Consistent>  (129) 
1

>  <s_lp_Variant>  (129) 
33:0-1

>  <s_i_glide_gridfile>  (129) 
pfpi4k_grid

>  <i_i_glide_lignum>  (129) 
8

>  <i_i_glide_rotatable_bonds>  (129) 
2

>  <r_i_docking_score>  (129) 
-4.30719

>  <r_i_glide_ligand_efficiency>  (129) 
-0.205104

>  <r_i_glide_ligand_efficiency_sa>  (129) 
-0.565868

>  <r_i_glide_ligand_efficiency_ln>  (129) 
-1.06495

>  <r_i_glide_gscore>  (129) 
-4.30719

>  <r_i_glide_lipo>  (129) 
-0.554433

>  <r_i_glide_hbond>  (129) 
-0.262053

>  <r_i_glide_metal>  (129) 
-0

>  <r_i_glide_rewards>  (129) 
-2.08612

>  <r_i_glide_evdw>  (129) 
-17.8719

>  <r_i_glide_ecoul>  (129) 
-3.40659

>  <r_i_glide_erotb>  (129) 
0

>  <r_i_glide_esite>  (129) 
0

>  <r_i_glide_emodel>  (129) 
-32.0277

>  <r_i_glide_energy>  (129) 
-21.2785

>  <r_i_glide_einternal>  (129) 
0.0696027

>  <r_i_glide_intrahb_reward>  (129) 
-0.5

>  <i_i_glide_confnum>  (129) 
2

>  <i_i_glide_posenum>  (129) 
24

>  <r_i_glide_eff_state_penalty>  (129) 
0

>  <ligand_id>  (129) 
33

>  <original_smiles>  (129) 
CC1C(O)CC2C13CC3C(=O)C(O)C1(C)C(=O)OCC21C

>  <smiles>  (129) 
[H]OC1([H])C(=O)C2([H])C([H])([H])C23C([H])(C([H])([H])[H])C([H])(O[H])C([H])([H])C3([H])C2(C([H])([H])[H])C([H])([H])OC(=O)C12C([H])([H])[H]

$$$$
33:0:1
     RDKit          3D

 43 46  0  0  1  0  0  0  0  0999 V2000
    3.4580   -3.1538   -2.0419 C   0  0  0  0  0  0  0  0  0  0  0  0
    3.9056   -2.3083   -0.8372 C   0  0  2  0  0  0  0  0  0  0  0  0
    5.3276   -1.7898   -1.0071 C   0  0  1  0  0  0  0  0  0  0  0  0
    5.3871   -0.6790   -1.8793 O   0  0  0  0  0  0  0  0  0  0  0  0
    5.7982   -1.4355    0.4038 C   0  0  0  0  0  0  0  0  0  0  0  0
    4.8945   -2.2145    1.3902 C   0  0  2  0  0  0  0  0  0  0  0  0
    3.9072   -3.0057    0.5203 C   0  0  2  0  0  0  0  0  0  0  0  0
    3.9132   -4.5283    0.5981 C   0  0  0  0  0  0  0  0  0  0  0  0
    2.6840   -3.7592    1.0351 C   0  0  1  0  0  0  0  0  0  0  0  0
    2.3282   -3.9329    2.4902 C   0  0  0  0  0  0  0  0  0  0  0  0
    2.0568   -5.0577    2.9140 O   0  0  0  0  0  0  0  0  0  0  0  0
    2.2263   -2.7102    3.4251 C   0  0  1  0  0  0  0  0  0  0  0  0
    1.5675   -3.1111    4.6192 O   0  0  0  0  0  0  0  0  0  0  0  0
    3.6253   -2.0698    3.7138 C   0  0  2  0  0  0  0  0  0  0  0  0
    4.5848   -3.1283    4.3386 C   0  0  0  0  0  0  0  0  0  0  0  0
    3.6083   -0.9067    4.7251 C   0  0  0  0  0  0  0  0  0  0  0  0
    2.8532   -0.8172    5.6908 O   0  0  0  0  0  0  0  0  0  0  0  0
    4.5739   -0.0485    4.4027 O   0  0  0  0  0  0  0  0  0  0  0  0
    5.2211   -0.3740    3.1897 C   0  0  0  0  0  0  0  0  0  0  0  0
    4.2165   -1.3064    2.4723 C   0  0  1  0  0  0  0  0  0  0  0  0
    3.1697   -0.3674    1.7876 C   0  0  0  0  0  0  0  0  0  0  0  0
    4.1656   -3.9610   -2.2470 H   0  0  0  0  0  0  0  0  0  0  0  0
    3.4040   -2.5445   -2.9441 H   0  0  0  0  0  0  0  0  0  0  0  0
    2.4726   -3.6018   -1.8936 H   0  0  0  0  0  0  0  0  0  0  0  0
    3.2102   -1.4730   -0.7498 H   0  0  0  0  0  0  0  0  0  0  0  0
    5.9570   -2.5871   -1.4025 H   0  0  0  0  0  0  0  0  0  0  0  0
    4.8999    0.0396   -1.5007 H   0  0  0  0  0  0  0  0  0  0  0  0
    6.8393   -1.7268    0.5306 H   0  0  0  0  0  0  0  0  0  0  0  0
    5.7627   -0.3621    0.5677 H   0  0  0  0  0  0  0  0  0  0  0  0
    5.5449   -2.9347    1.8821 H   0  0  0  0  0  0  0  0  0  0  0  0
    3.8021   -5.1163   -0.3082 H   0  0  0  0  0  0  0  0  0  0  0  0
    4.5191   -4.9989    1.3701 H   0  0  0  0  0  0  0  0  0  0  0  0
    1.8443   -3.7997    0.3486 H   0  0  0  0  0  0  0  0  0  0  0  0
    1.5634   -1.9839    2.9543 H   0  0  0  0  0  0  0  0  0  0  0  0
    2.1074   -3.7486    5.0566 H   0  0  0  0  0  0  0  0  0  0  0  0
    4.8030   -3.9571    3.6711 H   0  0  0  0  0  0  0  0  0  0  0  0
    4.1453   -3.5657    5.2384 H   0  0  0  0  0  0  0  0  0  0  0  0
    5.5409   -2.7005    4.6487 H   0  0  0  0  0  0  0  0  0  0  0  0
    5.4384    0.5296    2.6212 H   0  0  0  0  0  0  0  0  0  0  0  0
    6.1679   -0.8774    3.3879 H   0  0  0  0  0  0  0  0  0  0  0  0
    2.6837    0.3138    2.4888 H   0  0  0  0  0  0  0  0  0  0  0  0
    2.3722   -0.9124    1.2836 H   0  0  0  0  0  0  0  0  0  0  0  0
    3.6393    0.2658    1.0320 H   0  0  0  0  0  0  0  0  0  0  0  0
  1  2  1  0
  1 22  1  0
  1 23  1  0
  1 24  1  0
  2  7  1  0
  2  3  1  0
  2 25  1  1
  3  4  1  0
  3  5  1  0
  3 26  1  6
  4 27  1  0
  5  6  1  0
  5 28  1  0
  5 29  1  0
  6 20  1  0
  6  7  1  0
  6 30  1  1
  7  9  1  0
  7  8  1  6
  8  9  1  0
  8 31  1  0
  8 32  1  0
  9 10  1  0
  9 33  1  6
 10 11  2  0
 10 12  1  0
 12 13  1  0
 12 14  1  0
 12 34  1  6
 13 35  1  0
 14 20  1  0
 14 15  1  1
 14 16  1  0
 15 36  1  0
 15 37  1  0
 15 38  1  0
 16 17  2  0
 16 18  1  0
 18 19  1  0
 19 20  1  0
 19 39  1  0
 19 40  1  0
 20 21  1  6
 21 41  1  0
 21 42  1  0
 21 43  1  0
M  END
>  <i_m_ct_stereo_status>  (130) 
1

>  <s_m_source_file>  (130) 
/var/tmp/pbs.5076255.sched01/tmpb5cfx69f/43pm4c6kpw.sdf

>  <i_m_source_file_index>  (130) 
8

>  <i_lp_mmshare_version>  (130) 
48012

>  <i_f3d_flags>  (130) 
0

>  <s_epik_input>  (130) 
W0NIM11bQ0BASF0xW0NAQEhdKFtPSF0pW0NIMl1bQ0BIXShbQ0BAXTEyMylbQ0BAXTQoW0NIM10pW0NAQF0oW0NIM10pKEMoPU8pT1tDSDJdNClbQ0BIXShbT0hdKUMoPU8pW0NAQEhdM1tDSDJdMg==

>  <s_epik_cmdline>  (130) 
J2VwaWtfcHl0aG9uJywgJy1waHQnLCAnMi4wJywgJy1waCcsICc3LjAnLCAnLXRuJywgJzgnLCAnLW1hJywgJzIwMCcsICctaW1hZScsICc8aW5maWxlLm1hZT4nLCAnLW9tYWUnLCAnPG91dGZpbGUubWFlPic=

>  <r_lp_tautomer_probability>  (130) 
1

>  <r_epik_Ionization_Penalty>  (130) 
1.06024e-06

>  <r_epik_Ionization_Penalty_Charging>  (130) 
0

>  <r_epik_Ionization_Penalty_Neutral>  (130) 
1.06024e-06

>  <r_epik_State_Penalty>  (130) 
-0

>  <r_epik_Charging_Adjusted_Penalty>  (130) 
0

>  <i_epik_Tot_Q>  (130) 
0

>  <i_epik_Tot_abs_Q>  (130) 
0

>  <s_epik_Chemistry_Notes>  (130) 
This compound has an ester and may undergo hydrolysis at high or low pH.

>  <s_lp_Force_Field>  (130) 
OPLS3e

>  <r_lp_Energy>  (130) 
17.3498

>  <b_lp_Chiralities_Consistent>  (130) 
1

>  <s_lp_Variant>  (130) 
33:0-1

>  <s_i_glide_gridfile>  (130) 
pfpi4k_grid

>  <i_i_glide_lignum>  (130) 
8

>  <i_i_glide_rotatable_bonds>  (130) 
2

>  <r_i_docking_score>  (130) 
-3.42461

>  <r_i_glide_ligand_efficiency>  (130) 
-0.163076

>  <r_i_glide_ligand_efficiency_sa>  (130) 
-0.449916

>  <r_i_glide_ligand_efficiency_ln>  (130) 
-0.846727

>  <r_i_glide_gscore>  (130) 
-3.42461

>  <r_i_glide_lipo>  (130) 
-0.325336

>  <r_i_glide_hbond>  (130) 
-0.168237

>  <r_i_glide_metal>  (130) 
-0

>  <r_i_glide_rewards>  (130) 
-1.40221

>  <r_i_glide_evdw>  (130) 
-18.6171

>  <r_i_glide_ecoul>  (130) 
-3.94662

>  <r_i_glide_erotb>  (130) 
0

>  <r_i_glide_esite>  (130) 
-0.00597864

>  <r_i_glide_emodel>  (130) 
-27.0216

>  <r_i_glide_energy>  (130) 
-22.5637

>  <r_i_glide_einternal>  (130) 
1.32803

>  <r_i_glide_intrahb_reward>  (130) 
-0

>  <i_i_glide_confnum>  (130) 
1

>  <i_i_glide_posenum>  (130) 
33

>  <r_i_glide_eff_state_penalty>  (130) 
0

>  <ligand_id>  (130) 
33

>  <original_smiles>  (130) 
CC1C(O)CC2C13CC3C(=O)C(O)C1(C)C(=O)OCC21C

>  <smiles>  (130) 
[H]OC1([H])C(=O)C2([H])C([H])([H])C23C([H])(C([H])([H])[H])C([H])(O[H])C([H])([H])C3([H])C2(C([H])([H])[H])C([H])([H])OC(=O)C12C([H])([H])[H]

$$$$
33:0:2
     RDKit          3D

 43 46  0  0  1  0  0  0  0  0999 V2000
    3.3424   -3.1435   -2.6300 C   0  0  0  0  0  0  0  0  0  0  0  0
    3.6757   -2.3156   -1.3790 C   0  0  2  0  0  0  0  0  0  0  0  0
    4.9083   -1.4460   -1.5845 C   0  0  1  0  0  0  0  0  0  0  0  0
    4.6198   -0.3096   -2.3747 O   0  0  0  0  0  0  0  0  0  0  0  0
    5.3868   -1.0921   -0.1763 C   0  0  0  0  0  0  0  0  0  0  0  0
    4.7861   -2.1431    0.7895 C   0  0  2  0  0  0  0  0  0  0  0  0
    3.9557   -3.0880   -0.0895 C   0  0  2  0  0  0  0  0  0  0  0  0
    4.3313   -4.5547   -0.1493 C   0  0  0  0  0  0  0  0  0  0  0  0
    2.9924   -4.1550    0.4196 C   0  0  1  0  0  0  0  0  0  0  0  0
    2.8046   -4.5273    1.8769 C   0  0  0  0  0  0  0  0  0  0  0  0
    2.8498   -5.7142    2.1963 O   0  0  0  0  0  0  0  0  0  0  0  0
    2.4960   -3.4389    2.9264 C   0  0  1  0  0  0  0  0  0  0  0  0
    2.0468   -4.0708    4.1198 O   0  0  0  0  0  0  0  0  0  0  0  0
    3.7213   -2.5029    3.1817 C   0  0  2  0  0  0  0  0  0  0  0  0
    4.9536   -3.3331    3.6497 C   0  0  0  0  0  0  0  0  0  0  0  0
    3.4993   -1.4754    4.3003 C   0  0  0  0  0  0  0  0  0  0  0  0
    2.8023   -1.6513    5.2983 O   0  0  0  0  0  0  0  0  0  0  0  0
    4.2020   -0.3699    4.0146 O   0  0  0  0  0  0  0  0  0  0  0  0
    4.8132   -0.4294    2.7364 C   0  0  0  0  0  0  0  0  0  0  0  0
    4.0098   -1.5194    1.9975 C   0  0  1  0  0  0  0  0  0  0  0  0
    2.7165   -0.8169    1.4775 C   0  0  0  0  0  0  0  0  0  0  0  0
    4.1959   -3.7422   -2.9544 H   0  0  0  0  0  0  0  0  0  0  0  0
    3.0694   -2.4929   -3.4613 H   0  0  0  0  0  0  0  0  0  0  0  0
    2.5044   -3.8204   -2.4587 H   0  0  0  0  0  0  0  0  0  0  0  0
    2.8158   -1.6871   -1.1699 H   0  0  0  0  0  0  0  0  0  0  0  0
    5.6815   -2.0296   -2.0892 H   0  0  0  0  0  0  0  0  0  0  0  0
    3.9170    0.1719   -1.9684 H   0  0  0  0  0  0  0  0  0  0  0  0
    6.4721   -1.1245   -0.1356 H   0  0  0  0  0  0  0  0  0  0  0  0
    5.1028   -0.0755    0.0901 H   0  0  0  0  0  0  0  0  0  0  0  0
    5.6314   -2.7159    1.1654 H   0  0  0  0  0  0  0  0  0  0  0  0
    4.3075   -5.0700   -1.1062 H   0  0  0  0  0  0  0  0  0  0  0  0
    5.0943   -4.9203    0.5386 H   0  0  0  0  0  0  0  0  0  0  0  0
    2.1342   -4.3618   -0.2100 H   0  0  0  0  0  0  0  0  0  0  0  0
    1.6460   -2.8609    2.5660 H   0  0  0  0  0  0  0  0  0  0  0  0
    1.8874   -3.3936    4.7693 H   0  0  0  0  0  0  0  0  0  0  0  0
    5.3083   -4.0289    2.8927 H   0  0  0  0  0  0  0  0  0  0  0  0
    4.7002   -3.9351    4.5254 H   0  0  0  0  0  0  0  0  0  0  0  0
    5.7995   -2.7070    3.9407 H   0  0  0  0  0  0  0  0  0  0  0  0
    4.7458    0.5377    2.2347 H   0  0  0  0  0  0  0  0  0  0  0  0
    5.8664   -0.6925    2.8295 H   0  0  0  0  0  0  0  0  0  0  0  0
    2.1341   -0.3346    2.2656 H   0  0  0  0  0  0  0  0  0  0  0  0
    2.0463   -1.5125    0.9760 H   0  0  0  0  0  0  0  0  0  0  0  0
    2.9481   -0.0354    0.7535 H   0  0  0  0  0  0  0  0  0  0  0  0
  1  2  1  0
  1 22  1  0
  1 23  1  0
  1 24  1  0
  2  7  1  0
  2  3  1  0
  2 25  1  1
  3  4  1  0
  3  5  1  0
  3 26  1  6
  4 27  1  0
  5  6  1  0
  5 28  1  0
  5 29  1  0
  6 20  1  0
  6  7  1  0
  6 30  1  1
  7  9  1  0
  7  8  1  6
  8  9  1  0
  8 31  1  0
  8 32  1  0
  9 10  1  0
  9 33  1  6
 10 11  2  0
 10 12  1  0
 12 13  1  0
 12 14  1  0
 12 34  1  6
 13 35  1  0
 14 20  1  0
 14 15  1  1
 14 16  1  0
 15 36  1  0
 15 37  1  0
 15 38  1  0
 16 17  2  0
 16 18  1  0
 18 19  1  0
 19 20  1  0
 19 39  1  0
 19 40  1  0
 20 21  1  6
 21 41  1  0
 21 42  1  0
 21 43  1  0
M  END
>  <i_m_ct_stereo_status>  (131) 
1

>  <s_m_source_file>  (131) 
/var/tmp/pbs.5076255.sched01/tmpb5cfx69f/43pm4c6kpw.sdf

>  <i_m_source_file_index>  (131) 
8

>  <i_lp_mmshare_version>  (131) 
48012

>  <i_f3d_flags>  (131) 
0

>  <s_epik_input>  (131) 
W0NIM11bQ0BASF0xW0NAQEhdKFtPSF0pW0NIMl1bQ0BIXShbQ0BAXTEyMylbQ0BAXTQoW0NIM10pW0NAQF0oW0NIM10pKEMoPU8pT1tDSDJdNClbQ0BIXShbT0hdKUMoPU8pW0NAQEhdM1tDSDJdMg==

>  <s_epik_cmdline>  (131) 
J2VwaWtfcHl0aG9uJywgJy1waHQnLCAnMi4wJywgJy1waCcsICc3LjAnLCAnLXRuJywgJzgnLCAnLW1hJywgJzIwMCcsICctaW1hZScsICc8aW5maWxlLm1hZT4nLCAnLW9tYWUnLCAnPG91dGZpbGUubWFlPic=

>  <r_lp_tautomer_probability>  (131) 
1

>  <r_epik_Ionization_Penalty>  (131) 
1.06024e-06

>  <r_epik_Ionization_Penalty_Charging>  (131) 
0

>  <r_epik_Ionization_Penalty_Neutral>  (131) 
1.06024e-06

>  <r_epik_State_Penalty>  (131) 
-0

>  <r_epik_Charging_Adjusted_Penalty>  (131) 
0

>  <i_epik_Tot_Q>  (131) 
0

>  <i_epik_Tot_abs_Q>  (131) 
0

>  <s_epik_Chemistry_Notes>  (131) 
This compound has an ester and may undergo hydrolysis at high or low pH.

>  <s_lp_Force_Field>  (131) 
OPLS3e

>  <r_lp_Energy>  (131) 
17.3498

>  <b_lp_Chiralities_Consistent>  (131) 
1

>  <s_lp_Variant>  (131) 
33:0-1

>  <s_i_glide_gridfile>  (131) 
pfpi4k_grid

>  <i_i_glide_lignum>  (131) 
8

>  <i_i_glide_rotatable_bonds>  (131) 
2

>  <r_i_docking_score>  (131) 
-3.40478

>  <r_i_glide_ligand_efficiency>  (131) 
-0.162132

>  <r_i_glide_ligand_efficiency_sa>  (131) 
-0.447311

>  <r_i_glide_ligand_efficiency_ln>  (131) 
-0.841825

>  <r_i_glide_gscore>  (131) 
-3.40478

>  <r_i_glide_lipo>  (131) 
-0.174447

>  <r_i_glide_hbond>  (131) 
0

>  <r_i_glide_metal>  (131) 
-0

>  <r_i_glide_rewards>  (131) 
-1.90224

>  <r_i_glide_evdw>  (131) 
-20.1793

>  <r_i_glide_ecoul>  (131) 
-2.07829

>  <r_i_glide_erotb>  (131) 
0

>  <r_i_glide_esite>  (131) 
-0.00738599

>  <r_i_glide_emodel>  (131) 
-32.3425

>  <r_i_glide_energy>  (131) 
-22.2576

>  <r_i_glide_einternal>  (131) 
0.0372788

>  <r_i_glide_intrahb_reward>  (131) 
-0.5

>  <i_i_glide_confnum>  (131) 
1

>  <i_i_glide_posenum>  (131) 
27

>  <r_i_glide_eff_state_penalty>  (131) 
0

>  <ligand_id>  (131) 
33

>  <original_smiles>  (131) 
CC1C(O)CC2C13CC3C(=O)C(O)C1(C)C(=O)OCC21C

>  <smiles>  (131) 
[H]OC1([H])C(=O)C2([H])C([H])([H])C23C([H])(C([H])([H])[H])C([H])(O[H])C([H])([H])C3([H])C2(C([H])([H])[H])C([H])([H])OC(=O)C12C([H])([H])[H]

$$$$
34:0:0
     RDKit          3D

 77 81  0  0  1  0  0  0  0  0999 V2000
    6.6092   -6.7889    5.0971 C   0  0  0  0  0  0  0  0  0  0  0  0
    5.3211   -6.1899    4.9542 O   0  0  0  0  0  0  0  0  0  0  0  0
    4.3819   -6.7885    4.0467 C   0  0  1  0  0  0  0  0  0  0  0  0
    4.2531   -8.3417    4.3727 C   0  0  0  0  0  0  0  0  0  0  0  0
    3.1490   -9.2814    3.7431 C   0  0  1  0  0  0  0  0  0  0  0  0
    3.0103  -10.4893    4.4773 O   0  0  0  0  0  0  0  0  0  0  0  0
    3.9293  -11.4704    4.4178 C   0  0  0  0  0  0  0  0  0  0  0  0
    3.5344  -12.6851    5.2441 C   0  0  0  0  0  0  0  0  0  0  0  0
    4.9874  -11.4304    3.7894 O   0  0  0  0  0  0  0  0  0  0  0  0
    1.8200   -8.5899    3.3780 C   0  0  0  0  0  0  0  0  0  0  0  0
    1.7969   -8.0423    2.1455 C   0  0  0  0  0  0  0  0  0  0  0  0
    1.6491   -6.5499    1.8602 C   0  0  1  0  0  0  0  0  0  0  0  0
    0.2776   -6.2552    1.6720 O   0  0  0  0  0  0  0  0  0  0  0  0
    2.5250   -5.5252    2.7259 C   0  0  1  0  0  0  0  0  0  0  0  0
    1.7018   -4.2103    2.8492 C   0  0  0  0  0  0  0  0  0  0  0  0
    3.0297   -5.9794    4.1659 C   0  0  1  0  0  0  0  0  0  0  0  0
    2.1963   -5.8169    5.4902 C   0  0  0  0  0  0  0  0  0  0  0  0
    1.1111   -6.7795    6.0415 C   0  0  0  0  0  0  0  0  0  0  0  0
    1.7299   -7.8225    6.9946 C   0  0  0  0  0  0  0  0  0  0  0  0
    0.2061   -5.9348    6.9859 C   0  0  0  0  0  0  0  0  0  0  0  0
    0.2061   -7.3514    4.9182 C   0  0  0  0  0  0  0  0  0  0  0  0
   -0.7595   -6.6799    4.5451 O   0  0  0  0  0  0  0  0  0  0  0  0
    0.5081   -8.7068    4.2201 C   0  0  0  0  0  0  0  0  0  0  0  0
   -0.6776   -9.0305    3.2482 C   0  0  0  0  0  0  0  0  0  0  0  0
    0.3831   -9.9083    5.2028 C   0  0  0  0  0  0  0  0  0  0  0  0
    3.9770   -5.2388    2.1198 C   0  0  2  0  0  0  0  0  0  0  0  0
    4.5285   -3.8229    2.6257 C   0  0  0  0  0  0  0  0  0  0  0  0
    4.4227   -5.1316    0.7725 O   0  0  0  0  0  0  0  0  0  0  0  0
    5.8036   -5.5166    0.8668 C   0  0  1  0  0  0  0  0  0  0  0  0
    6.7434   -4.3706    0.4906 C   0  0  0  0  0  0  0  0  0  0  0  0
    8.0961   -4.3727    0.9000 C   0  0  0  0  0  0  0  0  0  0  0  0
    8.9312   -3.3170    0.4837 C   0  0  0  0  0  0  0  0  0  0  0  0
    8.3897   -2.3091   -0.3214 C   0  0  0  0  0  0  0  0  0  0  0  0
    7.1128   -2.3007   -0.7499 N   0  0  0  0  0  0  0  0  0  0  0  0
    6.3188   -3.3195   -0.3534 C   0  0  0  0  0  0  0  0  0  0  0  0
    6.0531   -5.9844    2.1960 O   0  0  0  0  0  0  0  0  0  0  0  0
    4.8069   -6.4645    2.5560 C   0  0  1  0  0  0  0  0  0  0  0  0
    4.5848   -7.6208    1.7779 O   0  0  0  0  0  0  0  0  0  0  0  0
    7.2574   -6.1184    5.6585 H   0  0  0  0  0  0  0  0  0  0  0  0
    7.0903   -6.9794    4.1409 H   0  0  0  0  0  0  0  0  0  0  0  0
    6.5643   -7.7306    5.6438 H   0  0  0  0  0  0  0  0  0  0  0  0
    5.2102   -8.8135    4.1521 H   0  0  0  0  0  0  0  0  0  0  0  0
    4.1781   -8.4220    5.4507 H   0  0  0  0  0  0  0  0  0  0  0  0
    3.5466   -9.6146    2.7815 H   0  0  0  0  0  0  0  0  0  0  0  0
    2.5497  -13.0367    4.9354 H   0  0  0  0  0  0  0  0  0  0  0  0
    3.4829  -12.4308    6.3032 H   0  0  0  0  0  0  0  0  0  0  0  0
    4.2476  -13.5017    5.1211 H   0  0  0  0  0  0  0  0  0  0  0  0
    2.5176   -8.4114    1.4415 H   0  0  0  0  0  0  0  0  0  0  0  0
    2.0123   -6.4458    0.8365 H   0  0  0  0  0  0  0  0  0  0  0  0
   -0.1426   -7.0718    1.4468 H   0  0  0  0  0  0  0  0  0  0  0  0
    2.1484   -3.4499    3.4874 H   0  0  0  0  0  0  0  0  0  0  0  0
    0.7161   -4.3936    3.2800 H   0  0  0  0  0  0  0  0  0  0  0  0
    1.5727   -3.7458    1.8738 H   0  0  0  0  0  0  0  0  0  0  0  0
    3.5044   -5.0630    4.4688 H   0  0  0  0  0  0  0  0  0  0  0  0
    2.9160   -5.6851    6.3015 H   0  0  0  0  0  0  0  0  0  0  0  0
    1.7244   -4.8362    5.4326 H   0  0  0  0  0  0  0  0  0  0  0  0
    2.2901   -7.3441    7.8005 H   0  0  0  0  0  0  0  0  0  0  0  0
    2.4248   -8.4852    6.4983 H   0  0  0  0  0  0  0  0  0  0  0  0
    0.9673   -8.4353    7.4796 H   0  0  0  0  0  0  0  0  0  0  0  0
    0.7909   -5.4894    7.7933 H   0  0  0  0  0  0  0  0  0  0  0  0
   -0.5716   -6.5410    7.4550 H   0  0  0  0  0  0  0  0  0  0  0  0
   -0.2934   -5.1139    6.4692 H   0  0  0  0  0  0  0  0  0  0  0  0
   -0.8784   -8.2755    2.4966 H   0  0  0  0  0  0  0  0  0  0  0  0
   -1.6164   -9.1514    3.7905 H   0  0  0  0  0  0  0  0  0  0  0  0
   -0.5101   -9.9678    2.7139 H   0  0  0  0  0  0  0  0  0  0  0  0
    1.1831  -10.0507    5.9188 H   0  0  0  0  0  0  0  0  0  0  0  0
    0.3113  -10.8589    4.6695 H   0  0  0  0  0  0  0  0  0  0  0  0
   -0.5228   -9.8240    5.8044 H   0  0  0  0  0  0  0  0  0  0  0  0
    4.2731   -3.4921    3.6252 H   0  0  0  0  0  0  0  0  0  0  0  0
    4.1517   -3.0436    1.9630 H   0  0  0  0  0  0  0  0  0  0  0  0
    5.6087   -3.7095    2.6272 H   0  0  0  0  0  0  0  0  0  0  0  0
    5.9520   -6.3401    0.1676 H   0  0  0  0  0  0  0  0  0  0  0  0
    8.4898   -5.1630    1.5251 H   0  0  0  0  0  0  0  0  0  0  0  0
    9.9570   -3.2344    0.8102 H   0  0  0  0  0  0  0  0  0  0  0  0
    9.0060   -1.4821   -0.6363 H   0  0  0  0  0  0  0  0  0  0  0  0
    5.3141   -3.2933   -0.7527 H   0  0  0  0  0  0  0  0  0  0  0  0
    5.1066   -8.3181    2.1509 H   0  0  0  0  0  0  0  0  0  0  0  0
  1  2  1  0
  1 39  1  0
  1 40  1  0
  1 41  1  0
  3  2  1  1
  3 16  1  0
  3 37  1  0
  3  4  1  0
  4  5  1  0
  4 42  1  0
  4 43  1  0
  5  6  1  0
  5 10  1  0
  5 44  1  6
  6  7  1  0
  7  8  1  0
  7  9  2  0
  8 45  1  0
  8 46  1  0
  8 47  1  0
 10 23  1  0
 10 11  2  3
 11 12  1  0
 11 48  1  0
 12 13  1  0
 12 14  1  0
 12 49  1  6
 13 50  1  0
 14 15  1  1
 14 16  1  0
 14 26  1  0
 15 51  1  0
 15 52  1  0
 15 53  1  0
 16 17  1  0
 16 54  1  1
 17 18  1  0
 17 55  1  0
 17 56  1  0
 18 19  1  0
 18 20  1  0
 18 21  1  0
 19 57  1  0
 19 58  1  0
 19 59  1  0
 20 60  1  0
 20 61  1  0
 20 62  1  0
 21 22  2  0
 21 23  1  0
 23 24  1  0
 23 25  1  0
 24 63  1  0
 24 64  1  0
 24 65  1  0
 25 66  1  0
 25 67  1  0
 25 68  1  0
 26 37  1  0
 26 27  1  1
 26 28  1  0
 27 69  1  0
 27 70  1  0
 27 71  1  0
 28 29  1  0
 29 30  1  0
 29 36  1  0
 29 72  1  6
 30 35  1  0
 30 31  2  0
 31 32  1  0
 31 73  1  0
 32 33  2  0
 32 74  1  0
 33 34  1  0
 33 75  1  0
 34 35  2  0
 35 76  1  0
 36 37  1  0
 37 38  1  6
 38 77  1  0
M  END
>  <i_m_ct_stereo_status>  (132) 
1

>  <s_m_source_file>  (132) 
/var/tmp/pbs.5076255.sched01/tmpb5cfx69f/43pm4c6kpw.sdf

>  <i_m_source_file_index>  (132) 
9

>  <i_lp_mmshare_version>  (132) 
48012

>  <i_f3d_flags>  (132) 
0

>  <s_epik_input>  (132) 
W0NIM11DKD1PKU9bQ0BIXShbQ0gyXTEpL0MoQyhbQ0gzXSkoW0NIM10pQyg9TylDKFtDSDJdMikoW0NIM10pW0NIM10pPVtDSF1cW0NAQEhdKFtPSF0pW0NAQF0oW0NIM10pKFtDQEBIXTJbQ0BAXTEzT1tDSDNdKVtDQEBdNChbQ0gzXSlbQ0BAXTMoW09IXSlPW0NAQEhdKE80KWM1W2NIXVtjSF1bY0hdbltjSF01

>  <s_epik_cmdline>  (132) 
J2VwaWtfcHl0aG9uJywgJy1waHQnLCAnMi4wJywgJy1waCcsICc3LjAnLCAnLXRuJywgJzgnLCAnLW1hJywgJzIwMCcsICctaW1hZScsICc8aW5maWxlLm1hZT4nLCAnLW9tYWUnLCAnPG91dGZpbGUubWFlPic=

>  <r_lp_tautomer_probability>  (132) 
1

>  <r_epik_Ionization_Penalty>  (132) 
0.00371341

>  <r_epik_Ionization_Penalty_Charging>  (132) 
0

>  <r_epik_Ionization_Penalty_Neutral>  (132) 
0.00371341

>  <r_epik_State_Penalty>  (132) 
-0

>  <r_epik_Charging_Adjusted_Penalty>  (132) 
0

>  <i_epik_Tot_Q>  (132) 
0

>  <i_epik_Tot_abs_Q>  (132) 
0

>  <s_epik_Chemistry_Notes>  (132) 
This compound has an ester and may undergo hydrolysis at high or low pH. This compound contains an acetal/aminal-like group ( X-CH(R)-Y where X, Y are N, S, or O) that may be acid/base labile, releasing an aldehyde.

>  <s_lp_Force_Field>  (132) 
OPLS3e

>  <r_lp_Energy>  (132) 
183.409

>  <b_lp_Chiralities_Consistent>  (132) 
1

>  <s_lp_Variant>  (132) 
34:0-1

>  <s_i_glide_gridfile>  (132) 
pfpi4k_grid

>  <i_i_glide_lignum>  (132) 
9

>  <i_i_glide_rotatable_bonds>  (132) 
6

>  <r_i_docking_score>  (132) 
-3.21402

>  <r_i_glide_ligand_efficiency>  (132) 
-0.0845795

>  <r_i_glide_ligand_efficiency_sa>  (132) 
-0.284354

>  <r_i_glide_ligand_efficiency_ln>  (132) 
-0.693038

>  <r_i_glide_gscore>  (132) 
-3.21402

>  <r_i_glide_lipo>  (132) 
-0.577002

>  <r_i_glide_hbond>  (132) 
-0.159065

>  <r_i_glide_metal>  (132) 
-0

>  <r_i_glide_rewards>  (132) 
-0.129563

>  <r_i_glide_evdw>  (132) 
-29.1556

>  <r_i_glide_ecoul>  (132) 
-6.68433

>  <r_i_glide_erotb>  (132) 
0.146943

>  <r_i_glide_esite>  (132) 
-0.0349029

>  <r_i_glide_emodel>  (132) 
-43.3718

>  <r_i_glide_energy>  (132) 
-35.84

>  <r_i_glide_einternal>  (132) 
0.870144

>  <r_i_glide_intrahb_reward>  (132) 
-0

>  <i_i_glide_confnum>  (132) 
4

>  <i_i_glide_posenum>  (132) 
11

>  <r_i_glide_eff_state_penalty>  (132) 
0

>  <ligand_id>  (132) 
34

>  <original_smiles>  (132) 
COC12CC(OC(C)=O)C3=CC(O)C(C)(C1CC(C)(C)C(=O)C3(C)C)C1(C)OC(c3cccnc3)OC21O

>  <smiles>  (132) 
[H]OC1([H])C([H])=C2C([H])(OC(=O)C([H])([H])[H])C([H])([H])C3(OC([H])([H])[H])C4(O[H])OC([H])(c5c([H])nc([H])c([H])c5[H])OC4(C([H])([H])[H])C1(C([H])([H])[H])C3([H])C([H])([H])C(C([H])([H])[H])(C([H])([H])[H])C(=O)C2(C([H])([H])[H])C([H])([H])[H]

$$$$
34:0:1
     RDKit          3D

 77 81  0  0  1  0  0  0  0  0999 V2000
    6.6053   -6.7935    5.1109 C   0  0  0  0  0  0  0  0  0  0  0  0
    5.3205   -6.1903    4.9702 O   0  0  0  0  0  0  0  0  0  0  0  0
    4.3825   -6.7912    4.0634 C   0  0  1  0  0  0  0  0  0  0  0  0
    4.2511   -8.3415    4.3863 C   0  0  0  0  0  0  0  0  0  0  0  0
    3.1512   -9.2828    3.7535 C   0  0  1  0  0  0  0  0  0  0  0  0
    3.0079  -10.4919    4.4865 O   0  0  0  0  0  0  0  0  0  0  0  0
    3.9275  -11.4728    4.4318 C   0  0  0  0  0  0  0  0  0  0  0  0
    3.5269  -12.6893    5.2539 C   0  0  0  0  0  0  0  0  0  0  0  0
    4.9903  -11.4363    3.8117 O   0  0  0  0  0  0  0  0  0  0  0  0
    1.8196   -8.5915    3.3933 C   0  0  0  0  0  0  0  0  0  0  0  0
    1.7943   -8.0451    2.1603 C   0  0  0  0  0  0  0  0  0  0  0  0
    1.6446   -6.5524    1.8746 C   0  0  1  0  0  0  0  0  0  0  0  0
    0.2726   -6.2570    1.6812 O   0  0  0  0  0  0  0  0  0  0  0  0
    2.5243   -5.5292    2.7383 C   0  0  1  0  0  0  0  0  0  0  0  0
    1.7014   -4.2127    2.8635 C   0  0  0  0  0  0  0  0  0  0  0  0
    3.0307   -5.9816    4.1798 C   0  0  1  0  0  0  0  0  0  0  0  0
    2.1964   -5.8188    5.5035 C   0  0  0  0  0  0  0  0  0  0  0  0
    1.1091   -6.7810    6.0555 C   0  0  0  0  0  0  0  0  0  0  0  0
    1.7286   -7.8250    7.0086 C   0  0  0  0  0  0  0  0  0  0  0  0
    0.2055   -5.9367    7.0002 C   0  0  0  0  0  0  0  0  0  0  0  0
    0.2051   -7.3527    4.9331 C   0  0  0  0  0  0  0  0  0  0  0  0
   -0.7596   -6.6785    4.5580 O   0  0  0  0  0  0  0  0  0  0  0  0
    0.5069   -8.7074    4.2339 C   0  0  0  0  0  0  0  0  0  0  0  0
   -0.6797   -9.0303    3.2624 C   0  0  0  0  0  0  0  0  0  0  0  0
    0.3808   -9.9103    5.2165 C   0  0  0  0  0  0  0  0  0  0  0  0
    3.9789   -5.2446    2.1325 C   0  0  2  0  0  0  0  0  0  0  0  0
    4.5276   -3.8284    2.6350 C   0  0  0  0  0  0  0  0  0  0  0  0
    4.4266   -5.1611    0.7825 O   0  0  0  0  0  0  0  0  0  0  0  0
    5.8140   -5.5192    0.8818 C   0  0  1  0  0  0  0  0  0  0  0  0
    6.7436   -4.3680    0.5071 C   0  0  0  0  0  0  0  0  0  0  0  0
    8.1019   -4.3792    0.9007 C   0  0  0  0  0  0  0  0  0  0  0  0
    8.9323   -3.3209    0.4849 C   0  0  0  0  0  0  0  0  0  0  0  0
    8.3897   -2.3129   -0.3178 C   0  0  0  0  0  0  0  0  0  0  0  0
    7.1052   -2.2953   -0.7296 N   0  0  0  0  0  0  0  0  0  0  0  0
    6.3094   -3.3103   -0.3249 C   0  0  0  0  0  0  0  0  0  0  0  0
    6.0566   -5.9857    2.2128 O   0  0  0  0  0  0  0  0  0  0  0  0
    4.8097   -6.4643    2.5708 C   0  0  1  0  0  0  0  0  0  0  0  0
    4.5837   -7.6142    1.7891 O   0  0  0  0  0  0  0  0  0  0  0  0
    7.2570   -6.1244    5.6717 H   0  0  0  0  0  0  0  0  0  0  0  0
    7.0862   -6.9862    4.1552 H   0  0  0  0  0  0  0  0  0  0  0  0
    6.5598   -7.7356    5.6572 H   0  0  0  0  0  0  0  0  0  0  0  0
    5.2063   -8.8126    4.1552 H   0  0  0  0  0  0  0  0  0  0  0  0
    4.1781   -8.4274    5.4639 H   0  0  0  0  0  0  0  0  0  0  0  0
    3.5505   -9.6126    2.7929 H   0  0  0  0  0  0  0  0  0  0  0  0
    2.5449  -13.0402    4.9371 H   0  0  0  0  0  0  0  0  0  0  0  0
    3.4699  -12.4380    6.3135 H   0  0  0  0  0  0  0  0  0  0  0  0
    4.2424  -13.5047    5.1325 H   0  0  0  0  0  0  0  0  0  0  0  0
    2.5143   -8.4195    1.4576 H   0  0  0  0  0  0  0  0  0  0  0  0
    2.0071   -6.4470    0.8520 H   0  0  0  0  0  0  0  0  0  0  0  0
   -0.1425   -7.0745    1.4516 H   0  0  0  0  0  0  0  0  0  0  0  0
    2.1481   -3.4517    3.5005 H   0  0  0  0  0  0  0  0  0  0  0  0
    0.7159   -4.3953    3.2952 H   0  0  0  0  0  0  0  0  0  0  0  0
    1.5695   -3.7473    1.8907 H   0  0  0  0  0  0  0  0  0  0  0  0
    3.5040   -5.0650    4.4826 H   0  0  0  0  0  0  0  0  0  0  0  0
    2.9154   -5.6879    6.3161 H   0  0  0  0  0  0  0  0  0  0  0  0
    1.7233   -4.8373    5.4473 H   0  0  0  0  0  0  0  0  0  0  0  0
    2.2887   -7.3466    7.8142 H   0  0  0  0  0  0  0  0  0  0  0  0
    2.4223   -8.4876    6.5111 H   0  0  0  0  0  0  0  0  0  0  0  0
    0.9653   -8.4374    7.4932 H   0  0  0  0  0  0  0  0  0  0  0  0
    0.7903   -5.4919    7.8073 H   0  0  0  0  0  0  0  0  0  0  0  0
   -0.5728   -6.5423    7.4693 H   0  0  0  0  0  0  0  0  0  0  0  0
   -0.2941   -5.1152    6.4836 H   0  0  0  0  0  0  0  0  0  0  0  0
   -0.8810   -8.2750    2.5105 H   0  0  0  0  0  0  0  0  0  0  0  0
   -1.6191   -9.1492    3.8042 H   0  0  0  0  0  0  0  0  0  0  0  0
   -0.5143   -9.9676    2.7281 H   0  0  0  0  0  0  0  0  0  0  0  0
    1.1804  -10.0523    5.9316 H   0  0  0  0  0  0  0  0  0  0  0  0
    0.3084  -10.8602    4.6820 H   0  0  0  0  0  0  0  0  0  0  0  0
   -0.5258   -9.8273    5.8176 H   0  0  0  0  0  0  0  0  0  0  0  0
    4.2732   -3.4970    3.6342 H   0  0  0  0  0  0  0  0  0  0  0  0
    4.1516   -3.0470    1.9745 H   0  0  0  0  0  0  0  0  0  0  0  0
    5.6080   -3.7122    2.6398 H   0  0  0  0  0  0  0  0  0  0  0  0
    5.9842   -6.3354    0.1823 H   0  0  0  0  0  0  0  0  0  0  0  0
    8.4971   -5.1795    1.5106 H   0  0  0  0  0  0  0  0  0  0  0  0
    9.9625   -3.2486    0.7979 H   0  0  0  0  0  0  0  0  0  0  0  0
    8.9964   -1.4760   -0.6247 H   0  0  0  0  0  0  0  0  0  0  0  0
    5.3026   -3.2776   -0.7150 H   0  0  0  0  0  0  0  0  0  0  0  0
    4.5198   -7.3262    0.8886 H   0  0  0  0  0  0  0  0  0  0  0  0
  1  2  1  0
  1 39  1  0
  1 40  1  0
  1 41  1  0
  3  2  1  1
  3 16  1  0
  3 37  1  0
  3  4  1  0
  4  5  1  0
  4 42  1  0
  4 43  1  0
  5  6  1  0
  5 10  1  0
  5 44  1  6
  6  7  1  0
  7  8  1  0
  7  9  2  0
  8 45  1  0
  8 46  1  0
  8 47  1  0
 10 23  1  0
 10 11  2  3
 11 12  1  0
 11 48  1  0
 12 13  1  0
 12 14  1  0
 12 49  1  6
 13 50  1  0
 14 15  1  1
 14 16  1  0
 14 26  1  0
 15 51  1  0
 15 52  1  0
 15 53  1  0
 16 17  1  0
 16 54  1  1
 17 18  1  0
 17 55  1  0
 17 56  1  0
 18 19  1  0
 18 20  1  0
 18 21  1  0
 19 57  1  0
 19 58  1  0
 19 59  1  0
 20 60  1  0
 20 61  1  0
 20 62  1  0
 21 22  2  0
 21 23  1  0
 23 24  1  0
 23 25  1  0
 24 63  1  0
 24 64  1  0
 24 65  1  0
 25 66  1  0
 25 67  1  0
 25 68  1  0
 26 37  1  0
 26 27  1  1
 26 28  1  0
 27 69  1  0
 27 70  1  0
 27 71  1  0
 28 29  1  0
 29 30  1  0
 29 36  1  0
 29 72  1  6
 30 35  1  0
 30 31  2  0
 31 32  1  0
 31 73  1  0
 32 33  2  0
 32 74  1  0
 33 34  1  0
 33 75  1  0
 34 35  2  0
 35 76  1  0
 36 37  1  0
 37 38  1  6
 38 77  1  0
M  END
>  <i_m_ct_stereo_status>  (133) 
1

>  <s_m_source_file>  (133) 
/var/tmp/pbs.5076255.sched01/tmpb5cfx69f/43pm4c6kpw.sdf

>  <i_m_source_file_index>  (133) 
9

>  <i_lp_mmshare_version>  (133) 
48012

>  <i_f3d_flags>  (133) 
0

>  <s_epik_input>  (133) 
W0NIM11DKD1PKU9bQ0BIXShbQ0gyXTEpL0MoQyhbQ0gzXSkoW0NIM10pQyg9TylDKFtDSDJdMikoW0NIM10pW0NIM10pPVtDSF1cW0NAQEhdKFtPSF0pW0NAQF0oW0NIM10pKFtDQEBIXTJbQ0BAXTEzT1tDSDNdKVtDQEBdNChbQ0gzXSlbQ0BAXTMoW09IXSlPW0NAQEhdKE80KWM1W2NIXVtjSF1bY0hdbltjSF01

>  <s_epik_cmdline>  (133) 
J2VwaWtfcHl0aG9uJywgJy1waHQnLCAnMi4wJywgJy1waCcsICc3LjAnLCAnLXRuJywgJzgnLCAnLW1hJywgJzIwMCcsICctaW1hZScsICc8aW5maWxlLm1hZT4nLCAnLW9tYWUnLCAnPG91dGZpbGUubWFlPic=

>  <r_lp_tautomer_probability>  (133) 
1

>  <r_epik_Ionization_Penalty>  (133) 
0.00371341

>  <r_epik_Ionization_Penalty_Charging>  (133) 
0

>  <r_epik_Ionization_Penalty_Neutral>  (133) 
0.00371341

>  <r_epik_State_Penalty>  (133) 
-0

>  <r_epik_Charging_Adjusted_Penalty>  (133) 
0

>  <i_epik_Tot_Q>  (133) 
0

>  <i_epik_Tot_abs_Q>  (133) 
0

>  <s_epik_Chemistry_Notes>  (133) 
This compound has an ester and may undergo hydrolysis at high or low pH. This compound contains an acetal/aminal-like group ( X-CH(R)-Y where X, Y are N, S, or O) that may be acid/base labile, releasing an aldehyde.

>  <s_lp_Force_Field>  (133) 
OPLS3e

>  <r_lp_Energy>  (133) 
183.409

>  <b_lp_Chiralities_Consistent>  (133) 
1

>  <s_lp_Variant>  (133) 
34:0-1

>  <s_i_glide_gridfile>  (133) 
pfpi4k_grid

>  <i_i_glide_lignum>  (133) 
9

>  <i_i_glide_rotatable_bonds>  (133) 
6

>  <r_i_docking_score>  (133) 
-3.19115

>  <r_i_glide_ligand_efficiency>  (133) 
-0.0839777

>  <r_i_glide_ligand_efficiency_sa>  (133) 
-0.282331

>  <r_i_glide_ligand_efficiency_ln>  (133) 
-0.688106

>  <r_i_glide_gscore>  (133) 
-3.19115

>  <r_i_glide_lipo>  (133) 
-0.574632

>  <r_i_glide_hbond>  (133) 
-0.156145

>  <r_i_glide_metal>  (133) 
-0

>  <r_i_glide_rewards>  (133) 
-0.128869

>  <r_i_glide_evdw>  (133) 
-29.1709

>  <r_i_glide_ecoul>  (133) 
-6.56416

>  <r_i_glide_erotb>  (133) 
0.146943

>  <r_i_glide_esite>  (133) 
-0.0352803

>  <r_i_glide_emodel>  (133) 
-43.0388

>  <r_i_glide_energy>  (133) 
-35.7351

>  <r_i_glide_einternal>  (133) 
1.07174

>  <r_i_glide_intrahb_reward>  (133) 
-0

>  <i_i_glide_confnum>  (133) 
4

>  <i_i_glide_posenum>  (133) 
18

>  <r_i_glide_eff_state_penalty>  (133) 
0

>  <ligand_id>  (133) 
34

>  <original_smiles>  (133) 
COC12CC(OC(C)=O)C3=CC(O)C(C)(C1CC(C)(C)C(=O)C3(C)C)C1(C)OC(c3cccnc3)OC21O

>  <smiles>  (133) 
[H]OC1([H])C([H])=C2C([H])(OC(=O)C([H])([H])[H])C([H])([H])C3(OC([H])([H])[H])C4(O[H])OC([H])(c5c([H])nc([H])c([H])c5[H])OC4(C([H])([H])[H])C1(C([H])([H])[H])C3([H])C([H])([H])C(C([H])([H])[H])(C([H])([H])[H])C(=O)C2(C([H])([H])[H])C([H])([H])[H]

$$$$
34:0:2
     RDKit          3D

 77 81  0  0  1  0  0  0  0  0999 V2000
    0.7529   -7.0814    1.4086 C   0  0  0  0  0  0  0  0  0  0  0  0
    2.0748   -7.6004    1.4941 O   0  0  0  0  0  0  0  0  0  0  0  0
    2.8832   -7.2387    2.6262 C   0  0  1  0  0  0  0  0  0  0  0  0
    2.0464   -7.4547    3.9650 C   0  0  0  0  0  0  0  0  0  0  0  0
    2.6803   -7.3794    5.4075 C   0  0  1  0  0  0  0  0  0  0  0  0
    1.8374   -7.9776    6.3862 O   0  0  0  0  0  0  0  0  0  0  0  0
    0.7809   -7.3329    6.9125 C   0  0  0  0  0  0  0  0  0  0  0  0
    0.1170   -8.1229    8.0346 C   0  0  0  0  0  0  0  0  0  0  0  0
    0.3575   -6.2285    6.5718 O   0  0  0  0  0  0  0  0  0  0  0  0
    4.1617   -7.7909    5.5074 C   0  0  0  0  0  0  0  0  0  0  0  0
    5.0390   -6.7896    5.2763 C   0  0  0  0  0  0  0  0  0  0  0  0
    6.0202   -6.7428    4.1079 C   0  0  1  0  0  0  0  0  0  0  0  0
    7.2391   -7.3430    4.4951 O   0  0  0  0  0  0  0  0  0  0  0  0
    5.4882   -7.1234    2.6509 C   0  0  1  0  0  0  0  0  0  0  0  0
    6.7046   -7.7378    1.8848 C   0  0  0  0  0  0  0  0  0  0  0  0
    4.2190   -8.0815    2.5342 C   0  0  1  0  0  0  0  0  0  0  0  0
    4.2885   -9.6529    2.5380 C   0  0  0  0  0  0  0  0  0  0  0  0
    4.3341  -10.5908    3.7760 C   0  0  0  0  0  0  0  0  0  0  0  0
    2.9147  -11.0177    4.2032 C   0  0  0  0  0  0  0  0  0  0  0  0
    4.9772  -11.9257    3.3032 C   0  0  0  0  0  0  0  0  0  0  0  0
    5.2280  -10.0109    4.9024 C   0  0  0  0  0  0  0  0  0  0  0  0
    6.4507  -10.1571    4.8132 O   0  0  0  0  0  0  0  0  0  0  0  0
    4.6587   -9.1606    6.0698 C   0  0  0  0  0  0  0  0  0  0  0  0
    5.8149   -8.8849    7.0879 C   0  0  0  0  0  0  0  0  0  0  0  0
    3.6907   -9.9715    6.9860 C   0  0  0  0  0  0  0  0  0  0  0  0
    4.8535   -5.8944    1.8433 C   0  0  2  0  0  0  0  0  0  0  0  0
    4.9357   -6.1810    0.2742 C   0  0  0  0  0  0  0  0  0  0  0  0
    5.1943   -4.5071    1.8158 O   0  0  0  0  0  0  0  0  0  0  0  0
    3.9516   -3.8774    1.4518 C   0  0  1  0  0  0  0  0  0  0  0  0
    4.0391   -3.1832    0.0879 C   0  0  0  0  0  0  0  0  0  0  0  0
    3.0922   -3.4167   -0.9307 C   0  0  0  0  0  0  0  0  0  0  0  0
    3.2111   -2.7274   -2.1518 C   0  0  0  0  0  0  0  0  0  0  0  0
    4.2518   -1.7938   -2.2970 C   0  0  0  0  0  0  0  0  0  0  0  0
    5.1602   -1.5402   -1.3313 N   0  0  0  0  0  0  0  0  0  0  0  0
    5.0387   -2.2163   -0.1658 C   0  0  0  0  0  0  0  0  0  0  0  0
    2.9212   -4.8775    1.4897 O   0  0  0  0  0  0  0  0  0  0  0  0
    3.4307   -5.7678    2.4190 C   0  0  1  0  0  0  0  0  0  0  0  0
    3.3914   -5.1078    3.6639 O   0  0  0  0  0  0  0  0  0  0  0  0
    0.3437   -7.2875    0.4211 H   0  0  0  0  0  0  0  0  0  0  0  0
    0.7296   -6.0049    1.5646 H   0  0  0  0  0  0  0  0  0  0  0  0
    0.0836   -7.5499    2.1302 H   0  0  0  0  0  0  0  0  0  0  0  0
    1.2239   -6.7405    3.9735 H   0  0  0  0  0  0  0  0  0  0  0  0
    1.5535   -8.4154    3.8670 H   0  0  0  0  0  0  0  0  0  0  0  0
    2.6819   -6.3207    5.6708 H   0  0  0  0  0  0  0  0  0  0  0  0
    0.8423   -8.3855    8.8054 H   0  0  0  0  0  0  0  0  0  0  0  0
   -0.3269   -9.0402    7.6470 H   0  0  0  0  0  0  0  0  0  0  0  0
   -0.6681   -7.5264    8.4945 H   0  0  0  0  0  0  0  0  0  0  0  0
    4.6590   -5.7957    5.3876 H   0  0  0  0  0  0  0  0  0  0  0  0
    6.3090   -5.6920    4.0477 H   0  0  0  0  0  0  0  0  0  0  0  0
    7.1156   -8.2858    4.5367 H   0  0  0  0  0  0  0  0  0  0  0  0
    6.4665   -8.1264    0.8976 H   0  0  0  0  0  0  0  0  0  0  0  0
    7.1121   -8.6044    2.4060 H   0  0  0  0  0  0  0  0  0  0  0  0
    7.5145   -7.0140    1.7716 H   0  0  0  0  0  0  0  0  0  0  0  0
    4.1897   -8.1837    1.4642 H   0  0  0  0  0  0  0  0  0  0  0  0
    3.4535  -10.0099    1.9300 H   0  0  0  0  0  0  0  0  0  0  0  0
    5.1500   -9.9230    1.9253 H   0  0  0  0  0  0  0  0  0  0  0  0
    2.3734  -11.4758    3.3735 H   0  0  0  0  0  0  0  0  0  0  0  0
    2.3086  -10.1897    4.5384 H   0  0  0  0  0  0  0  0  0  0  0  0
    2.9372  -11.7656    4.9989 H   0  0  0  0  0  0  0  0  0  0  0  0
    4.3994  -12.3781    2.4934 H   0  0  0  0  0  0  0  0  0  0  0  0
    5.0265  -12.6583    4.1122 H   0  0  0  0  0  0  0  0  0  0  0  0
    5.9917  -11.7963    2.9222 H   0  0  0  0  0  0  0  0  0  0  0  0
    6.6905   -8.3943    6.6698 H   0  0  0  0  0  0  0  0  0  0  0  0
    6.1794   -9.8110    7.5373 H   0  0  0  0  0  0  0  0  0  0  0  0
    5.4759   -8.2563    7.9130 H   0  0  0  0  0  0  0  0  0  0  0  0
    2.7066  -10.1843    6.5890 H   0  0  0  0  0  0  0  0  0  0  0  0
    3.5113   -9.4577    7.9318 H   0  0  0  0  0  0  0  0  0  0  0  0
    4.1165  -10.9441    7.2412 H   0  0  0  0  0  0  0  0  0  0  0  0
    4.8199   -7.1994   -0.0761 H   0  0  0  0  0  0  0  0  0  0  0  0
    5.9108   -5.8568   -0.0955 H   0  0  0  0  0  0  0  0  0  0  0  0
    4.2017   -5.6738   -0.3383 H   0  0  0  0  0  0  0  0  0  0  0  0
    3.7394   -3.1236    2.2136 H   0  0  0  0  0  0  0  0  0  0  0  0
    2.2877   -4.1272   -0.7982 H   0  0  0  0  0  0  0  0  0  0  0  0
    2.5057   -2.9024   -2.9518 H   0  0  0  0  0  0  0  0  0  0  0  0
    4.3702   -1.2438   -3.2197 H   0  0  0  0  0  0  0  0  0  0  0  0
    5.7626   -1.9570    0.5897 H   0  0  0  0  0  0  0  0  0  0  0  0
    4.0385   -4.4184    3.6321 H   0  0  0  0  0  0  0  0  0  0  0  0
  1  2  1  0
  1 39  1  0
  1 40  1  0
  1 41  1  0
  3  2  1  6
  3 16  1  0
  3 37  1  0
  3  4  1  0
  4  5  1  0
  4 42  1  0
  4 43  1  0
  5  6  1  0
  5 10  1  0
  5 44  1  1
  6  7  1  0
  7  8  1  0
  7  9  2  0
  8 45  1  0
  8 46  1  0
  8 47  1  0
 10 23  1  0
 10 11  2  3
 11 12  1  0
 11 48  1  0
 12 13  1  0
 12 14  1  0
 12 49  1  6
 13 50  1  0
 14 15  1  6
 14 16  1  0
 14 26  1  0
 15 51  1  0
 15 52  1  0
 15 53  1  0
 16 17  1  0
 16 54  1  6
 17 18  1  0
 17 55  1  0
 17 56  1  0
 18 19  1  0
 18 20  1  0
 18 21  1  0
 19 57  1  0
 19 58  1  0
 19 59  1  0
 20 60  1  0
 20 61  1  0
 20 62  1  0
 21 22  2  0
 21 23  1  0
 23 24  1  0
 23 25  1  0
 24 63  1  0
 24 64  1  0
 24 65  1  0
 25 66  1  0
 25 67  1  0
 25 68  1  0
 26 37  1  0
 26 27  1  6
 26 28  1  0
 27 69  1  0
 27 70  1  0
 27 71  1  0
 28 29  1  0
 29 30  1  0
 29 36  1  0
 29 72  1  1
 30 35  1  0
 30 31  2  0
 31 32  1  0
 31 73  1  0
 32 33  2  0
 32 74  1  0
 33 34  1  0
 33 75  1  0
 34 35  2  0
 35 76  1  0
 36 37  1  0
 37 38  1  1
 38 77  1  0
M  END
>  <i_m_ct_stereo_status>  (134) 
1

>  <s_m_source_file>  (134) 
/var/tmp/pbs.5076255.sched01/tmpb5cfx69f/43pm4c6kpw.sdf

>  <i_m_source_file_index>  (134) 
9

>  <i_lp_mmshare_version>  (134) 
48012

>  <i_f3d_flags>  (134) 
0

>  <s_epik_input>  (134) 
W0NIM11DKD1PKU9bQ0BIXShbQ0gyXTEpL0MoQyhbQ0gzXSkoW0NIM10pQyg9TylDKFtDSDJdMikoW0NIM10pW0NIM10pPVtDSF1cW0NAQEhdKFtPSF0pW0NAQF0oW0NIM10pKFtDQEBIXTJbQ0BAXTEzT1tDSDNdKVtDQEBdNChbQ0gzXSlbQ0BAXTMoW09IXSlPW0NAQEhdKE80KWM1W2NIXVtjSF1bY0hdbltjSF01

>  <s_epik_cmdline>  (134) 
J2VwaWtfcHl0aG9uJywgJy1waHQnLCAnMi4wJywgJy1waCcsICc3LjAnLCAnLXRuJywgJzgnLCAnLW1hJywgJzIwMCcsICctaW1hZScsICc8aW5maWxlLm1hZT4nLCAnLW9tYWUnLCAnPG91dGZpbGUubWFlPic=

>  <r_lp_tautomer_probability>  (134) 
1

>  <r_epik_Ionization_Penalty>  (134) 
0.00371341

>  <r_epik_Ionization_Penalty_Charging>  (134) 
0

>  <r_epik_Ionization_Penalty_Neutral>  (134) 
0.00371341

>  <r_epik_State_Penalty>  (134) 
-0

>  <r_epik_Charging_Adjusted_Penalty>  (134) 
0

>  <i_epik_Tot_Q>  (134) 
0

>  <i_epik_Tot_abs_Q>  (134) 
0

>  <s_epik_Chemistry_Notes>  (134) 
This compound has an ester and may undergo hydrolysis at high or low pH. This compound contains an acetal/aminal-like group ( X-CH(R)-Y where X, Y are N, S, or O) that may be acid/base labile, releasing an aldehyde.

>  <s_lp_Force_Field>  (134) 
OPLS3e

>  <r_lp_Energy>  (134) 
183.409

>  <b_lp_Chiralities_Consistent>  (134) 
1

>  <s_lp_Variant>  (134) 
34:0-1

>  <s_i_glide_gridfile>  (134) 
pfpi4k_grid

>  <i_i_glide_lignum>  (134) 
9

>  <i_i_glide_rotatable_bonds>  (134) 
6

>  <r_i_docking_score>  (134) 
-2.26204

>  <r_i_glide_ligand_efficiency>  (134) 
-0.0595273

>  <r_i_glide_ligand_efficiency_sa>  (134) 
-0.200129

>  <r_i_glide_ligand_efficiency_ln>  (134) 
-0.487762

>  <r_i_glide_gscore>  (134) 
-2.26204

>  <r_i_glide_lipo>  (134) 
-0.342595

>  <r_i_glide_hbond>  (134) 
0

>  <r_i_glide_metal>  (134) 
-0

>  <r_i_glide_rewards>  (134) 
-0.513998

>  <r_i_glide_evdw>  (134) 
-28.5656

>  <r_i_glide_ecoul>  (134) 
-0.756597

>  <r_i_glide_erotb>  (134) 
0.146943

>  <r_i_glide_esite>  (134) 
-0.0106186

>  <r_i_glide_emodel>  (134) 
-39.5155

>  <r_i_glide_energy>  (134) 
-29.3222

>  <r_i_glide_einternal>  (134) 
0.534621

>  <r_i_glide_intrahb_reward>  (134) 
-0.5

>  <i_i_glide_confnum>  (134) 
1

>  <i_i_glide_posenum>  (134) 
40

>  <r_i_glide_eff_state_penalty>  (134) 
0

>  <ligand_id>  (134) 
34

>  <original_smiles>  (134) 
COC12CC(OC(C)=O)C3=CC(O)C(C)(C1CC(C)(C)C(=O)C3(C)C)C1(C)OC(c3cccnc3)OC21O

>  <smiles>  (134) 
[H]OC1([H])C([H])=C2C([H])(OC(=O)C([H])([H])[H])C([H])([H])C3(OC([H])([H])[H])C4(O[H])OC([H])(c5c([H])nc([H])c([H])c5[H])OC4(C([H])([H])[H])C1(C([H])([H])[H])C3([H])C([H])([H])C(C([H])([H])[H])(C([H])([H])[H])C(=O)C2(C([H])([H])[H])C([H])([H])[H]

$$$$
35:0:0
     RDKit          3D

 61 64  0  0  1  0  0  0  0  0999 V2000
    8.7841   -4.0966    0.9124 C   0  0  0  0  0  0  0  0  0  0  0  0
    8.6141   -5.3438    1.7838 C   0  0  0  0  0  0  0  0  0  0  0  0
    7.4794   -6.0723    1.3393 O   0  0  0  0  0  0  0  0  0  0  0  0
    6.3580   -6.1088    2.0751 C   0  0  0  0  0  0  0  0  0  0  0  0
    6.2002   -5.5587    3.1706 O   0  0  0  0  0  0  0  0  0  0  0  0
    5.2244   -6.8958    1.3773 C   0  0  1  0  0  0  0  0  0  0  0  0
    5.6268   -8.3953    1.2674 C   0  0  0  0  0  0  0  0  0  0  0  0
    5.0504   -9.0771    2.5169 C   0  0  0  0  0  0  0  0  0  0  0  0
    3.9309   -8.1460    2.9163 C   0  0  0  0  0  0  0  0  0  0  0  0
    4.0179   -6.9684    2.3029 C   0  0  0  0  0  0  0  0  0  0  0  0
    3.1360   -5.8802    2.3926 N   0  0  0  0  0  0  0  0  0  0  0  0
    2.1646   -5.8554    3.5074 C   0  0  0  0  0  0  0  0  0  0  0  0
    0.9007   -6.6841    3.2848 C   0  0  0  0  0  0  0  0  0  0  0  0
    0.4649   -7.0665    1.9982 C   0  0  0  0  0  0  0  0  0  0  0  0
   -0.6874   -7.8531    1.8483 C   0  0  0  0  0  0  0  0  0  0  0  0
   -1.4235   -8.2641    2.9719 C   0  0  0  0  0  0  0  0  0  0  0  0
   -0.9968   -7.8804    4.2536 C   0  0  0  0  0  0  0  0  0  0  0  0
    0.1555   -7.0888    4.4048 C   0  0  0  0  0  0  0  0  0  0  0  0
    3.0902   -4.9071    1.4555 C   0  0  0  0  0  0  0  0  0  0  0  0
    2.2700   -3.9821    1.4978 O   0  0  0  0  0  0  0  0  0  0  0  0
    4.0602   -4.8860    0.2549 C   0  0  1  0  0  0  0  0  0  0  0  0
    5.0436   -3.6906    0.3667 C   0  0  0  0  0  0  0  0  0  0  0  0
    4.5318   -2.4115   -0.2939 C   0  0  0  0  0  0  0  0  0  0  0  0
    4.0507   -1.5488    0.4417 O   0  0  0  0  0  0  0  0  0  0  0  0
    4.6871   -2.2190   -1.6304 N   0  0  0  0  0  0  0  0  0  0  0  0
    5.2309   -3.2006   -2.5735 C   0  0  0  0  0  0  0  0  0  0  0  0
    4.1947   -3.4376   -3.6693 C   0  0  0  0  0  0  0  0  0  0  0  0
    3.9170   -2.2105   -4.3269 O   0  0  0  0  0  0  0  0  0  0  0  0
    3.3313   -1.2610   -3.4470 C   0  0  0  0  0  0  0  0  0  0  0  0
    4.3070   -0.9726   -2.2959 C   0  0  0  0  0  0  0  0  0  0  0  0
    4.7622   -6.2449    0.0557 C   0  0  0  0  0  0  0  0  0  0  0  0
    9.6540   -3.5218    1.2250 H   0  0  0  0  0  0  0  0  0  0  0  0
    7.9210   -3.4407    1.0026 H   0  0  0  0  0  0  0  0  0  0  0  0
    8.9018   -4.3638   -0.1388 H   0  0  0  0  0  0  0  0  0  0  0  0
    9.4869   -5.9856    1.6951 H   0  0  0  0  0  0  0  0  0  0  0  0
    8.5547   -5.0650    2.8396 H   0  0  0  0  0  0  0  0  0  0  0  0
    5.1622   -8.8350    0.3846 H   0  0  0  0  0  0  0  0  0  0  0  0
    6.7038   -8.5547    1.1670 H   0  0  0  0  0  0  0  0  0  0  0  0
    4.7029  -10.0925    2.3135 H   0  0  0  0  0  0  0  0  0  0  0  0
    5.7758   -9.1018    3.3312 H   0  0  0  0  0  0  0  0  0  0  0  0
    3.1532   -8.4554    3.6035 H   0  0  0  0  0  0  0  0  0  0  0  0
    2.6759   -6.1950    4.4073 H   0  0  0  0  0  0  0  0  0  0  0  0
    1.8340   -4.8445    3.7463 H   0  0  0  0  0  0  0  0  0  0  0  0
    1.0079   -6.7984    1.1021 H   0  0  0  0  0  0  0  0  0  0  0  0
   -0.9904   -8.1731    0.8605 H   0  0  0  0  0  0  0  0  0  0  0  0
   -2.2998   -8.8950    2.8491 H   0  0  0  0  0  0  0  0  0  0  0  0
   -1.5495   -8.2281    5.1237 H   0  0  0  0  0  0  0  0  0  0  0  0
    0.4840   -6.8137    5.4008 H   0  0  0  0  0  0  0  0  0  0  0  0
    3.4416   -4.7323   -0.6365 H   0  0  0  0  0  0  0  0  0  0  0  0
    5.2439   -3.4650    1.4168 H   0  0  0  0  0  0  0  0  0  0  0  0
    6.0225   -3.9483   -0.0371 H   0  0  0  0  0  0  0  0  0  0  0  0
    6.1810   -2.8396   -2.9771 H   0  0  0  0  0  0  0  0  0  0  0  0
    5.4229   -4.1875   -2.1623 H   0  0  0  0  0  0  0  0  0  0  0  0
    4.5843   -4.1635   -4.3787 H   0  0  0  0  0  0  0  0  0  0  0  0
    3.2761   -3.8562   -3.2463 H   0  0  0  0  0  0  0  0  0  0  0  0
    3.1118   -0.3540   -4.0149 H   0  0  0  0  0  0  0  0  0  0  0  0
    2.3843   -1.6440   -3.0613 H   0  0  0  0  0  0  0  0  0  0  0  0
    3.8169   -0.2584   -1.6222 H   0  0  0  0  0  0  0  0  0  0  0  0
    5.1932   -0.4605   -2.6604 H   0  0  0  0  0  0  0  0  0  0  0  0
    5.5922   -6.1283   -0.6333 H   0  0  0  0  0  0  0  0  0  0  0  0
    4.0644   -6.9301   -0.4293 H   0  0  0  0  0  0  0  0  0  0  0  0
  1  2  1  0
  1 32  1  0
  1 33  1  0
  1 34  1  0
  2  3  1  0
  2 35  1  0
  2 36  1  0
  3  4  1  0
  4  5  2  0
  6  4  1  1
  6 10  1  0
  6 31  1  0
  6  7  1  0
  7  8  1  0
  7 37  1  0
  7 38  1  0
  8  9  1  0
  8 39  1  0
  8 40  1  0
  9 10  2  0
  9 41  1  0
 10 11  1  0
 11 12  1  0
 11 19  1  0
 12 13  1  0
 12 42  1  0
 12 43  1  0
 13 18  1  0
 13 14  2  0
 14 15  1  0
 14 44  1  0
 15 16  2  0
 15 45  1  0
 16 17  1  0
 16 46  1  0
 17 18  2  0
 17 47  1  0
 18 48  1  0
 19 20  2  0
 19 21  1  0
 21 22  1  0
 21 31  1  0
 21 49  1  6
 22 23  1  0
 22 50  1  0
 22 51  1  0
 23 24  2  0
 23 25  1  0
 25 30  1  0
 25 26  1  0
 26 27  1  0
 26 52  1  0
 26 53  1  0
 27 28  1  0
 27 54  1  0
 27 55  1  0
 28 29  1  0
 29 30  1  0
 29 56  1  0
 29 57  1  0
 30 58  1  0
 30 59  1  0
 31 60  1  0
 31 61  1  0
M  END
>  <i_m_ct_stereo_status>  (135) 
1

>  <s_m_source_file>  (135) 
/var/tmp/pbs.5076255.sched01/tmpb5cfx69f/43pm4c6kpw.sdf

>  <i_m_source_file_index>  (135) 
10

>  <i_lp_mmshare_version>  (135) 
48012

>  <i_f3d_flags>  (135) 
0

>  <s_epik_input>  (135) 
W2NIXTFbY0hdW2NIXVtjSF1bY0hdYzFbQ0gyXU4oQyg9W0NIXVtDSDJdW0NIMl0yKVtDQEBdMjNDKD1PKU9bQ0gyXVtDSDNdKUMoPU8pW0NASF0oW0NIMl0zKVtDSDJdQyg9TylONFtDSDJdW0NIMl1PW0NIMl1bQ0gyXTQ=

>  <s_epik_cmdline>  (135) 
J2VwaWtfcHl0aG9uJywgJy1waHQnLCAnMi4wJywgJy1waCcsICc3LjAnLCAnLXRuJywgJzgnLCAnLW1hJywgJzIwMCcsICctaW1hZScsICc8aW5maWxlLm1hZT4nLCAnLW9tYWUnLCAnPG91dGZpbGUubWFlPic=

>  <r_lp_tautomer_probability>  (135) 
1

>  <r_epik_Ionization_Penalty>  (135) 
7.59633e-11

>  <r_epik_Ionization_Penalty_Charging>  (135) 
0

>  <r_epik_Ionization_Penalty_Neutral>  (135) 
7.59633e-11

>  <r_epik_State_Penalty>  (135) 
-0

>  <r_epik_Charging_Adjusted_Penalty>  (135) 
0

>  <i_epik_Tot_Q>  (135) 
0

>  <i_epik_Tot_abs_Q>  (135) 
0

>  <s_epik_Chemistry_Notes>  (135) 
This compound has an ester and may undergo hydrolysis at high or low pH.

>  <s_lp_Force_Field>  (135) 
OPLS3e

>  <r_lp_Energy>  (135) 
37.3132

>  <b_lp_Chiralities_Consistent>  (135) 
1

>  <s_lp_Variant>  (135) 
35:0-1

>  <s_i_glide_gridfile>  (135) 
pfpi4k_grid

>  <i_i_glide_lignum>  (135) 
10

>  <i_i_glide_rotatable_bonds>  (135) 
8

>  <r_i_docking_score>  (135) 
-3.15927

>  <r_i_glide_ligand_efficiency>  (135) 
-0.101912

>  <r_i_glide_ligand_efficiency_sa>  (135) 
-0.320144

>  <r_i_glide_ligand_efficiency_ln>  (135) 
-0.712513

>  <r_i_glide_gscore>  (135) 
-3.15927

>  <r_i_glide_lipo>  (135) 
-0.842882

>  <r_i_glide_hbond>  (135) 
-0.32

>  <r_i_glide_metal>  (135) 
-0

>  <r_i_glide_rewards>  (135) 
-0.561051

>  <r_i_glide_evdw>  (135) 
-35.7856

>  <r_i_glide_ecoul>  (135) 
-2.48216

>  <r_i_glide_erotb>  (135) 
0.763725

>  <r_i_glide_esite>  (135) 
-0.0374605

>  <r_i_glide_emodel>  (135) 
-43.8098

>  <r_i_glide_energy>  (135) 
-38.2678

>  <r_i_glide_einternal>  (135) 
3.90602

>  <r_i_glide_intrahb_reward>  (135) 
-0

>  <i_i_glide_confnum>  (135) 
6

>  <i_i_glide_posenum>  (135) 
40

>  <r_i_glide_eff_state_penalty>  (135) 
0

>  <ligand_id>  (135) 
35

>  <original_smiles>  (135) 
CCOC(=O)C12CCC=C1N(Cc1ccccc1)C(=O)C(CC(=O)N1CCOCC1)C2

>  <smiles>  (135) 
[H]C1=C2N(C([H])([H])c3c([H])c([H])c([H])c([H])c3[H])C(=O)C([H])(C([H])([H])C(=O)N3C([H])([H])C([H])([H])OC([H])([H])C3([H])[H])C([H])([H])C2(C(=O)OC([H])([H])C([H])([H])[H])C([H])([H])C1([H])[H]

$$$$
35:0:1
     RDKit          3D

 61 64  0  0  1  0  0  0  0  0999 V2000
    8.5350   -4.0130    0.8991 C   0  0  0  0  0  0  0  0  0  0  0  0
    8.6078   -5.3242    1.6863 C   0  0  0  0  0  0  0  0  0  0  0  0
    7.4969   -6.1481    1.3651 O   0  0  0  0  0  0  0  0  0  0  0  0
    6.4411   -6.2259    2.1971 C   0  0  0  0  0  0  0  0  0  0  0  0
    6.3042   -5.5790    3.2398 O   0  0  0  0  0  0  0  0  0  0  0  0
    5.3607   -7.2134    1.6938 C   0  0  1  0  0  0  0  0  0  0  0  0
    5.9681   -8.6426    1.6340 C   0  0  0  0  0  0  0  0  0  0  0  0
    5.6371   -9.2862    2.9918 C   0  0  0  0  0  0  0  0  0  0  0  0
    4.4328   -8.5065    3.4485 C   0  0  0  0  0  0  0  0  0  0  0  0
    4.2839   -7.3805    2.7383 C   0  0  0  0  0  0  0  0  0  0  0  0
    3.2519   -6.4181    2.8495 N   0  0  0  0  0  0  0  0  0  0  0  0
    2.4111   -6.4219    4.0569 C   0  0  0  0  0  0  0  0  0  0  0  0
    1.0784   -7.1460    3.9004 C   0  0  0  0  0  0  0  0  0  0  0  0
    0.5530   -7.8374    5.0064 C   0  0  0  0  0  0  0  0  0  0  0  0
   -0.6764   -8.5145    4.8910 C   0  0  0  0  0  0  0  0  0  0  0  0
   -1.4031   -8.4930    3.6825 C   0  0  0  0  0  0  0  0  0  0  0  0
   -0.8855   -7.8024    2.5794 C   0  0  0  0  0  0  0  0  0  0  0  0
    0.3419   -7.1381    2.6865 C   0  0  0  0  0  0  0  0  0  0  0  0
    3.0086   -5.5058    1.8771 C   0  0  0  0  0  0  0  0  0  0  0  0
    2.1124   -4.6635    2.0051 O   0  0  0  0  0  0  0  0  0  0  0  0
    3.8096   -5.4821    0.5603 C   0  0  1  0  0  0  0  0  0  0  0  0
    4.6384   -4.1650    0.4701 C   0  0  0  0  0  0  0  0  0  0  0  0
    3.8971   -2.9933   -0.2000 C   0  0  0  0  0  0  0  0  0  0  0  0
    2.9881   -2.4586    0.4328 O   0  0  0  0  0  0  0  0  0  0  0  0
    4.2651   -2.5447   -1.4145 N   0  0  0  0  0  0  0  0  0  0  0  0
    5.2794   -3.1826   -2.2617 C   0  0  0  0  0  0  0  0  0  0  0  0
    4.6570   -3.4699   -3.6321 C   0  0  0  0  0  0  0  0  0  0  0  0
    4.1830   -2.2683   -4.2201 O   0  0  0  0  0  0  0  0  0  0  0  0
    3.1581   -1.6683   -3.4375 C   0  0  0  0  0  0  0  0  0  0  0  0
    3.6993   -1.3322   -2.0345 C   0  0  0  0  0  0  0  0  0  0  0  0
    4.6823   -6.7541    0.3929 C   0  0  0  0  0  0  0  0  0  0  0  0
    9.3963   -3.3862    1.1237 H   0  0  0  0  0  0  0  0  0  0  0  0
    7.6383   -3.4531    1.1609 H   0  0  0  0  0  0  0  0  0  0  0  0
    8.5215   -4.1965   -0.1751 H   0  0  0  0  0  0  0  0  0  0  0  0
    9.5171   -5.8605    1.4214 H   0  0  0  0  0  0  0  0  0  0  0  0
    8.6745   -5.1293    2.7589 H   0  0  0  0  0  0  0  0  0  0  0  0
    5.4854   -9.2193    0.8451 H   0  0  0  0  0  0  0  0  0  0  0  0
    7.0367   -8.6620    1.4258 H   0  0  0  0  0  0  0  0  0  0  0  0
    5.4363  -10.3531    2.9065 H   0  0  0  0  0  0  0  0  0  0  0  0
    6.4353   -9.1294    3.7165 H   0  0  0  0  0  0  0  0  0  0  0  0
    3.7851   -8.8583    4.2367 H   0  0  0  0  0  0  0  0  0  0  0  0
    2.9716   -6.8350    4.8994 H   0  0  0  0  0  0  0  0  0  0  0  0
    2.2054   -5.3955    4.3671 H   0  0  0  0  0  0  0  0  0  0  0  0
    1.0927   -7.8702    5.9453 H   0  0  0  0  0  0  0  0  0  0  0  0
   -1.0686   -9.0654    5.7351 H   0  0  0  0  0  0  0  0  0  0  0  0
   -2.3375   -9.0291    3.6035 H   0  0  0  0  0  0  0  0  0  0  0  0
   -1.4022   -7.7976    1.6345 H   0  0  0  0  0  0  0  0  0  0  0  0
    0.6819   -6.6471    1.7955 H   0  0  0  0  0  0  0  0  0  0  0  0
    3.0832   -5.4938   -0.2581 H   0  0  0  0  0  0  0  0  0  0  0  0
    4.8671   -3.8275    1.4850 H   0  0  0  0  0  0  0  0  0  0  0  0
    5.5922   -4.3579    0.0127 H   0  0  0  0  0  0  0  0  0  0  0  0
    6.1477   -2.5179   -2.3549 H   0  0  0  0  0  0  0  0  0  0  0  0
    5.6239   -4.1348   -1.8931 H   0  0  0  0  0  0  0  0  0  0  0  0
    5.4037   -3.9328   -4.2706 H   0  0  0  0  0  0  0  0  0  0  0  0
    3.8401   -4.1815   -3.5276 H   0  0  0  0  0  0  0  0  0  0  0  0
    2.8171   -0.7642   -3.9486 H   0  0  0  0  0  0  0  0  0  0  0  0
    2.3012   -2.3409   -3.3646 H   0  0  0  0  0  0  0  0  0  0  0  0
    2.8919   -0.8850   -1.4575 H   0  0  0  0  0  0  0  0  0  0  0  0
    4.4593   -0.5529   -2.0980 H   0  0  0  0  0  0  0  0  0  0  0  0
    5.4177   -6.5859   -0.3833 H   0  0  0  0  0  0  0  0  0  0  0  0
    4.0390   -7.5686    0.0525 H   0  0  0  0  0  0  0  0  0  0  0  0
  1  2  1  0
  1 32  1  0
  1 33  1  0
  1 34  1  0
  2  3  1  0
  2 35  1  0
  2 36  1  0
  3  4  1  0
  4  5  2  0
  6  4  1  1
  6 10  1  0
  6 31  1  0
  6  7  1  0
  7  8  1  0
  7 37  1  0
  7 38  1  0
  8  9  1  0
  8 39  1  0
  8 40  1  0
  9 10  2  0
  9 41  1  0
 10 11  1  0
 11 12  1  0
 11 19  1  0
 12 13  1  0
 12 42  1  0
 12 43  1  0
 13 18  1  0
 13 14  2  0
 14 15  1  0
 14 44  1  0
 15 16  2  0
 15 45  1  0
 16 17  1  0
 16 46  1  0
 17 18  2  0
 17 47  1  0
 18 48  1  0
 19 20  2  0
 19 21  1  0
 21 22  1  0
 21 31  1  0
 21 49  1  6
 22 23  1  0
 22 50  1  0
 22 51  1  0
 23 24  2  0
 23 25  1  0
 25 30  1  0
 25 26  1  0
 26 27  1  0
 26 52  1  0
 26 53  1  0
 27 28  1  0
 27 54  1  0
 27 55  1  0
 28 29  1  0
 29 30  1  0
 29 56  1  0
 29 57  1  0
 30 58  1  0
 30 59  1  0
 31 60  1  0
 31 61  1  0
M  END
>  <i_m_ct_stereo_status>  (136) 
1

>  <s_m_source_file>  (136) 
/var/tmp/pbs.5076255.sched01/tmpb5cfx69f/43pm4c6kpw.sdf

>  <i_m_source_file_index>  (136) 
10

>  <i_lp_mmshare_version>  (136) 
48012

>  <i_f3d_flags>  (136) 
0

>  <s_epik_input>  (136) 
W2NIXTFbY0hdW2NIXVtjSF1bY0hdYzFbQ0gyXU4oQyg9W0NIXVtDSDJdW0NIMl0yKVtDQEBdMjNDKD1PKU9bQ0gyXVtDSDNdKUMoPU8pW0NASF0oW0NIMl0zKVtDSDJdQyg9TylONFtDSDJdW0NIMl1PW0NIMl1bQ0gyXTQ=

>  <s_epik_cmdline>  (136) 
J2VwaWtfcHl0aG9uJywgJy1waHQnLCAnMi4wJywgJy1waCcsICc3LjAnLCAnLXRuJywgJzgnLCAnLW1hJywgJzIwMCcsICctaW1hZScsICc8aW5maWxlLm1hZT4nLCAnLW9tYWUnLCAnPG91dGZpbGUubWFlPic=

>  <r_lp_tautomer_probability>  (136) 
1

>  <r_epik_Ionization_Penalty>  (136) 
7.59633e-11

>  <r_epik_Ionization_Penalty_Charging>  (136) 
0

>  <r_epik_Ionization_Penalty_Neutral>  (136) 
7.59633e-11

>  <r_epik_State_Penalty>  (136) 
-0

>  <r_epik_Charging_Adjusted_Penalty>  (136) 
0

>  <i_epik_Tot_Q>  (136) 
0

>  <i_epik_Tot_abs_Q>  (136) 
0

>  <s_epik_Chemistry_Notes>  (136) 
This compound has an ester and may undergo hydrolysis at high or low pH.

>  <s_lp_Force_Field>  (136) 
OPLS3e

>  <r_lp_Energy>  (136) 
37.3132

>  <b_lp_Chiralities_Consistent>  (136) 
1

>  <s_lp_Variant>  (136) 
35:0-1

>  <s_i_glide_gridfile>  (136) 
pfpi4k_grid

>  <i_i_glide_lignum>  (136) 
10

>  <i_i_glide_rotatable_bonds>  (136) 
8

>  <r_i_docking_score>  (136) 
-3.01942

>  <r_i_glide_ligand_efficiency>  (136) 
-0.0974005

>  <r_i_glide_ligand_efficiency_sa>  (136) 
-0.305972

>  <r_i_glide_ligand_efficiency_ln>  (136) 
-0.680971

>  <r_i_glide_gscore>  (136) 
-3.01942

>  <r_i_glide_lipo>  (136) 
-0.920153

>  <r_i_glide_hbond>  (136) 
-0.32

>  <r_i_glide_metal>  (136) 
-0

>  <r_i_glide_rewards>  (136) 
-0.547314

>  <r_i_glide_evdw>  (136) 
-33.6126

>  <r_i_glide_ecoul>  (136) 
-1.93587

>  <r_i_glide_erotb>  (136) 
0.763725

>  <r_i_glide_esite>  (136) 
-0.0246601

>  <r_i_glide_emodel>  (136) 
-40.67

>  <r_i_glide_energy>  (136) 
-35.5485

>  <r_i_glide_einternal>  (136) 
3.22783

>  <r_i_glide_intrahb_reward>  (136) 
-0

>  <i_i_glide_confnum>  (136) 
7

>  <i_i_glide_posenum>  (136) 
24

>  <r_i_glide_eff_state_penalty>  (136) 
0

>  <ligand_id>  (136) 
35

>  <original_smiles>  (136) 
CCOC(=O)C12CCC=C1N(Cc1ccccc1)C(=O)C(CC(=O)N1CCOCC1)C2

>  <smiles>  (136) 
[H]C1=C2N(C([H])([H])c3c([H])c([H])c([H])c([H])c3[H])C(=O)C([H])(C([H])([H])C(=O)N3C([H])([H])C([H])([H])OC([H])([H])C3([H])[H])C([H])([H])C2(C(=O)OC([H])([H])C([H])([H])[H])C([H])([H])C1([H])[H]

$$$$
35:0:2
     RDKit          3D

 61 64  0  0  1  0  0  0  0  0999 V2000
    4.5589   -9.4473    1.5841 C   0  0  0  0  0  0  0  0  0  0  0  0
    4.2674  -10.3384    2.7978 C   0  0  0  0  0  0  0  0  0  0  0  0
    2.9983  -10.0232    3.3548 O   0  0  0  0  0  0  0  0  0  0  0  0
    2.8874   -9.0851    4.3125 C   0  0  0  0  0  0  0  0  0  0  0  0
    3.8297   -8.4574    4.8057 O   0  0  0  0  0  0  0  0  0  0  0  0
    1.4170   -8.8190    4.7183 C   0  0  1  0  0  0  0  0  0  0  0  0
    0.8864  -10.0667    5.4764 C   0  0  0  0  0  0  0  0  0  0  0  0
    1.1430   -9.7802    6.9676 C   0  0  0  0  0  0  0  0  0  0  0  0
    1.2267   -8.2791    7.0162 C   0  0  0  0  0  0  0  0  0  0  0  0
    1.3686   -7.7601    5.7916 C   0  0  0  0  0  0  0  0  0  0  0  0
    1.4424   -6.3875    5.4282 N   0  0  0  0  0  0  0  0  0  0  0  0
    1.7182   -5.4136    6.5052 C   0  0  0  0  0  0  0  0  0  0  0  0
    0.5050   -5.0060    7.3358 C   0  0  0  0  0  0  0  0  0  0  0  0
   -0.8069   -5.0244    6.8002 C   0  0  0  0  0  0  0  0  0  0  0  0
   -1.9084   -4.6523    7.5906 C   0  0  0  0  0  0  0  0  0  0  0  0
   -1.7113   -4.2646    8.9307 C   0  0  0  0  0  0  0  0  0  0  0  0
   -0.4083   -4.2175    9.4678 C   0  0  0  0  0  0  0  0  0  0  0  0
    0.6945   -4.5891    8.6699 C   0  0  0  0  0  0  0  0  0  0  0  0
    1.2006   -5.9690    4.1559 C   0  0  0  0  0  0  0  0  0  0  0  0
    1.2319   -4.7693    3.8498 O   0  0  0  0  0  0  0  0  0  0  0  0
    0.8473   -6.9514    3.0112 C   0  0  1  0  0  0  0  0  0  0  0  0
    2.0226   -7.0116    1.9908 C   0  0  0  0  0  0  0  0  0  0  0  0
    2.0508   -5.8982    0.9225 C   0  0  0  0  0  0  0  0  0  0  0  0
    1.0892   -5.8600    0.1392 O   0  0  0  0  0  0  0  0  0  0  0  0
    3.0990   -5.0480    0.8128 N   0  0  0  0  0  0  0  0  0  0  0  0
    4.2643   -4.9652    1.7322 C   0  0  0  0  0  0  0  0  0  0  0  0
    5.5497   -5.1700    0.9152 C   0  0  0  0  0  0  0  0  0  0  0  0
    5.6598   -4.1523   -0.0603 O   0  0  0  0  0  0  0  0  0  0  0  0
    4.5838   -4.2002   -0.9863 C   0  0  0  0  0  0  0  0  0  0  0  0
    3.2230   -4.0432   -0.2656 C   0  0  0  0  0  0  0  0  0  0  0  0
    0.5104   -8.3640    3.5509 C   0  0  0  0  0  0  0  0  0  0  0  0
    5.5151   -9.7031    1.1318 H   0  0  0  0  0  0  0  0  0  0  0  0
    4.6049   -8.3985    1.8686 H   0  0  0  0  0  0  0  0  0  0  0  0
    3.7880   -9.5664    0.8227 H   0  0  0  0  0  0  0  0  0  0  0  0
    4.2526  -11.3823    2.4878 H   0  0  0  0  0  0  0  0  0  0  0  0
    5.0627  -10.2520    3.5407 H   0  0  0  0  0  0  0  0  0  0  0  0
   -0.1864  -10.1641    5.3195 H   0  0  0  0  0  0  0  0  0  0  0  0
    1.3360  -11.0071    5.1599 H   0  0  0  0  0  0  0  0  0  0  0  0
    0.3576  -10.1928    7.6015 H   0  0  0  0  0  0  0  0  0  0  0  0
    2.1011  -10.1908    7.2891 H   0  0  0  0  0  0  0  0  0  0  0  0
    1.1472   -7.7370    7.9473 H   0  0  0  0  0  0  0  0  0  0  0  0
    2.4866   -5.8282    7.1631 H   0  0  0  0  0  0  0  0  0  0  0  0
    2.1618   -4.4919    6.1185 H   0  0  0  0  0  0  0  0  0  0  0  0
   -0.9868   -5.3314    5.7827 H   0  0  0  0  0  0  0  0  0  0  0  0
   -2.9028   -4.6812    7.1729 H   0  0  0  0  0  0  0  0  0  0  0  0
   -2.5579   -3.9873    9.5398 H   0  0  0  0  0  0  0  0  0  0  0  0
   -0.2504   -3.9075   10.4904 H   0  0  0  0  0  0  0  0  0  0  0  0
    1.6901   -4.5649    9.0889 H   0  0  0  0  0  0  0  0  0  0  0  0
   -0.0401   -6.5591    2.5174 H   0  0  0  0  0  0  0  0  0  0  0  0
    2.9419   -7.1033    2.5556 H   0  0  0  0  0  0  0  0  0  0  0  0
    1.9424   -7.9430    1.4147 H   0  0  0  0  0  0  0  0  0  0  0  0
    4.2628   -3.9858    2.2261 H   0  0  0  0  0  0  0  0  0  0  0  0
    4.3154   -5.7041    2.5295 H   0  0  0  0  0  0  0  0  0  0  0  0
    6.4069   -5.1379    1.5822 H   0  0  0  0  0  0  0  0  0  0  0  0
    5.5582   -6.1547    0.4441 H   0  0  0  0  0  0  0  0  0  0  0  0
    4.7325   -3.4078   -1.7263 H   0  0  0  0  0  0  0  0  0  0  0  0
    4.6242   -5.1461   -1.5224 H   0  0  0  0  0  0  0  0  0  0  0  0
    2.4392   -4.0975   -1.0240 H   0  0  0  0  0  0  0  0  0  0  0  0
    3.1492   -3.0404    0.1567 H   0  0  0  0  0  0  0  0  0  0  0  0
    0.5316   -9.0939    2.7419 H   0  0  0  0  0  0  0  0  0  0  0  0
   -0.5223   -8.3379    3.9054 H   0  0  0  0  0  0  0  0  0  0  0  0
  1  2  1  0
  1 32  1  0
  1 33  1  0
  1 34  1  0
  2  3  1  0
  2 35  1  0
  2 36  1  0
  3  4  1  0
  4  5  2  0
  6  4  1  6
  6 10  1  0
  6 31  1  0
  6  7  1  0
  7  8  1  0
  7 37  1  0
  7 38  1  0
  8  9  1  0
  8 39  1  0
  8 40  1  0
  9 10  2  0
  9 41  1  0
 10 11  1  0
 11 12  1  0
 11 19  1  0
 12 13  1  0
 12 42  1  0
 12 43  1  0
 13 18  1  0
 13 14  2  0
 14 15  1  0
 14 44  1  0
 15 16  2  0
 15 45  1  0
 16 17  1  0
 16 46  1  0
 17 18  2  0
 17 47  1  0
 18 48  1  0
 19 20  2  0
 19 21  1  0
 21 22  1  0
 21 31  1  0
 21 49  1  6
 22 23  1  0
 22 50  1  0
 22 51  1  0
 23 24  2  0
 23 25  1  0
 25 30  1  0
 25 26  1  0
 26 27  1  0
 26 52  1  0
 26 53  1  0
 27 28  1  0
 27 54  1  0
 27 55  1  0
 28 29  1  0
 29 30  1  0
 29 56  1  0
 29 57  1  0
 30 58  1  0
 30 59  1  0
 31 60  1  0
 31 61  1  0
M  END
>  <i_m_ct_stereo_status>  (137) 
1

>  <s_m_source_file>  (137) 
/var/tmp/pbs.5076255.sched01/tmpb5cfx69f/43pm4c6kpw.sdf

>  <i_m_source_file_index>  (137) 
10

>  <i_lp_mmshare_version>  (137) 
48012

>  <i_f3d_flags>  (137) 
0

>  <s_epik_input>  (137) 
W2NIXTFbY0hdW2NIXVtjSF1bY0hdYzFbQ0gyXU4oQyg9W0NIXVtDSDJdW0NIMl0yKVtDQEBdMjNDKD1PKU9bQ0gyXVtDSDNdKUMoPU8pW0NASF0oW0NIMl0zKVtDSDJdQyg9TylONFtDSDJdW0NIMl1PW0NIMl1bQ0gyXTQ=

>  <s_epik_cmdline>  (137) 
J2VwaWtfcHl0aG9uJywgJy1waHQnLCAnMi4wJywgJy1waCcsICc3LjAnLCAnLXRuJywgJzgnLCAnLW1hJywgJzIwMCcsICctaW1hZScsICc8aW5maWxlLm1hZT4nLCAnLW9tYWUnLCAnPG91dGZpbGUubWFlPic=

>  <r_lp_tautomer_probability>  (137) 
1

>  <r_epik_Ionization_Penalty>  (137) 
7.59633e-11

>  <r_epik_Ionization_Penalty_Charging>  (137) 
0

>  <r_epik_Ionization_Penalty_Neutral>  (137) 
7.59633e-11

>  <r_epik_State_Penalty>  (137) 
-0

>  <r_epik_Charging_Adjusted_Penalty>  (137) 
0

>  <i_epik_Tot_Q>  (137) 
0

>  <i_epik_Tot_abs_Q>  (137) 
0

>  <s_epik_Chemistry_Notes>  (137) 
This compound has an ester and may undergo hydrolysis at high or low pH.

>  <s_lp_Force_Field>  (137) 
OPLS3e

>  <r_lp_Energy>  (137) 
37.3132

>  <b_lp_Chiralities_Consistent>  (137) 
1

>  <s_lp_Variant>  (137) 
35:0-1

>  <s_i_glide_gridfile>  (137) 
pfpi4k_grid

>  <i_i_glide_lignum>  (137) 
10

>  <i_i_glide_rotatable_bonds>  (137) 
8

>  <r_i_docking_score>  (137) 
-2.38098

>  <r_i_glide_ligand_efficiency>  (137) 
-0.0768059

>  <r_i_glide_ligand_efficiency_sa>  (137) 
-0.241276

>  <r_i_glide_ligand_efficiency_ln>  (137) 
-0.536984

>  <r_i_glide_gscore>  (137) 
-2.38098

>  <r_i_glide_lipo>  (137) 
-0.209282

>  <r_i_glide_hbond>  (137) 
-0.31859

>  <r_i_glide_metal>  (137) 
-0

>  <r_i_glide_rewards>  (137) 
-0.5011

>  <r_i_glide_evdw>  (137) 
-26.0611

>  <r_i_glide_ecoul>  (137) 
-4.92727

>  <r_i_glide_erotb>  (137) 
0.763725

>  <r_i_glide_esite>  (137) 
-0.0735928

>  <r_i_glide_emodel>  (137) 
-35.2953

>  <r_i_glide_energy>  (137) 
-30.9883

>  <r_i_glide_einternal>  (137) 
2.24275

>  <r_i_glide_intrahb_reward>  (137) 
-0

>  <i_i_glide_confnum>  (137) 
6

>  <i_i_glide_posenum>  (137) 
2

>  <r_i_glide_eff_state_penalty>  (137) 
0

>  <ligand_id>  (137) 
35

>  <original_smiles>  (137) 
CCOC(=O)C12CCC=C1N(Cc1ccccc1)C(=O)C(CC(=O)N1CCOCC1)C2

>  <smiles>  (137) 
[H]C1=C2N(C([H])([H])c3c([H])c([H])c([H])c([H])c3[H])C(=O)C([H])(C([H])([H])C(=O)N3C([H])([H])C([H])([H])OC([H])([H])C3([H])[H])C([H])([H])C2(C(=O)OC([H])([H])C([H])([H])[H])C([H])([H])C1([H])[H]

$$$$
36:0:0
     RDKit          3D

 81 86  0  0  1  0  0  0  0  0999 V2000
    4.4018   -1.4703    7.4201 C   0  0  0  0  0  0  0  0  0  0  0  0
    4.1910   -1.6896    5.9140 C   0  0  2  0  0  0  0  0  0  0  0  0
    3.9379   -0.4380    5.3133 O   0  0  0  0  0  0  0  0  0  0  0  0
    4.1343   -0.2973    3.9095 C   0  0  2  0  0  0  0  0  0  0  0  0
    3.2828    0.8716    3.4438 C   0  0  0  0  0  0  0  0  0  0  0  0
    2.1838    1.4336    4.3766 C   0  0  2  0  0  0  0  0  0  0  0  0
    1.1017    0.5008    5.1813 C   0  0  1  0  0  0  0  0  0  0  0  0
    1.2510    0.9938    6.6644 C   0  0  0  0  0  0  0  0  0  0  0  0
   -0.3479    0.9020    4.7255 C   0  0  0  0  0  0  0  0  0  0  0  0
   -0.6603    2.3928    4.6888 C   0  0  2  0  0  0  0  0  0  0  0  0
   -2.5684    2.6483    4.1770 Br  0  0  0  0  0  0  0  0  0  0  0  0
    0.1898    3.0258    3.6185 C   0  0  1  0  0  0  0  0  0  0  0  0
   -0.2449    4.3730    3.4832 O   0  0  0  0  0  0  0  0  0  0  0  0
    1.7136    2.9060    3.8817 C   0  0  0  0  0  0  0  0  0  0  0  0
    2.1720    3.9861    4.8973 C   0  0  0  0  0  0  0  0  0  0  0  0
    2.3353    3.3513    2.5256 C   0  0  0  0  0  0  0  0  0  0  0  0
    1.0691   -1.1208    5.2813 C   0  0  0  0  0  0  0  0  0  0  0  0
    0.1199   -1.5689    6.1598 C   0  0  0  0  0  0  0  0  0  0  0  0
   -0.2323   -2.9877    6.4621 C   0  0  0  0  0  0  0  0  0  0  0  0
   -0.9505   -3.2772    7.4116 O   0  0  0  0  0  0  0  0  0  0  0  0
    0.2853   -3.8640    5.6411 O   0  0  0  0  0  0  0  0  0  0  0  0
    0.9442   -3.4813    4.4609 C   0  0  0  0  0  0  0  0  0  0  0  0
    1.9325   -2.2673    4.5689 C   0  0  2  0  0  0  0  0  0  0  0  0
    3.0324   -2.6517    5.6194 C   0  0  0  0  0  0  0  0  0  0  0  0
    2.9884   -3.7050    6.2583 O   0  0  0  0  0  0  0  0  0  0  0  0
    2.5055   -2.1285    3.0435 C   0  0  2  0  0  0  0  0  0  0  0  0
    1.4279   -1.2731    2.3119 C   0  0  0  0  0  0  0  0  0  0  0  0
    2.7028   -3.4540    2.1501 C   0  0  1  0  0  0  0  0  0  0  0  0
    2.8065   -3.0868    0.6434 C   0  0  0  0  0  0  0  0  0  0  0  0
    3.7990   -1.9468    0.3776 C   0  0  0  0  0  0  0  0  0  0  0  0
    4.6872   -1.6053    1.5978 C   0  0  2  0  0  0  0  0  0  0  0  0
    5.4135   -0.2959    1.2172 C   0  0  0  0  0  0  0  0  0  0  0  0
    5.7769   -2.7091    1.6731 C   0  0  0  0  0  0  0  0  0  0  0  0
    5.2709   -4.1585    1.8013 C   0  0  0  0  0  0  0  0  0  0  0  0
    6.0050   -5.0762    1.4399 O   0  0  0  0  0  0  0  0  0  0  0  0
    3.8799   -4.4875    2.4009 C   0  0  1  0  0  0  0  0  0  0  0  0
    4.0560   -5.1580    3.7736 C   0  0  0  0  0  0  0  0  0  0  0  0
    3.9385   -1.5348    3.0066 C   0  0  1  0  0  0  0  0  0  0  0  0
    4.7289   -2.3869    7.9129 H   0  0  0  0  0  0  0  0  0  0  0  0
    3.4906   -1.1345    7.9140 H   0  0  0  0  0  0  0  0  0  0  0  0
    5.1723   -0.7168    7.5911 H   0  0  0  0  0  0  0  0  0  0  0  0
    5.1207   -2.1046    5.5193 H   0  0  0  0  0  0  0  0  0  0  0  0
    5.1903   -0.0310    3.8557 H   0  0  0  0  0  0  0  0  0  0  0  0
    4.0266    1.6513    3.3741 H   0  0  0  0  0  0  0  0  0  0  0  0
    2.9401    0.7398    2.4256 H   0  0  0  0  0  0  0  0  0  0  0  0
    2.8711    1.6985    5.1787 H   0  0  0  0  0  0  0  0  0  0  0  0
    1.4161    2.0636    6.7478 H   0  0  0  0  0  0  0  0  0  0  0  0
    2.1068    0.5234    7.1516 H   0  0  0  0  0  0  0  0  0  0  0  0
    0.3832    0.8239    7.2993 H   0  0  0  0  0  0  0  0  0  0  0  0
   -0.5678    0.4852    3.7431 H   0  0  0  0  0  0  0  0  0  0  0  0
   -1.1162    0.4857    5.3726 H   0  0  0  0  0  0  0  0  0  0  0  0
   -0.5222    2.8705    5.6596 H   0  0  0  0  0  0  0  0  0  0  0  0
   -0.0567    2.5387    2.6746 H   0  0  0  0  0  0  0  0  0  0  0  0
   -0.1393    4.5857    2.5594 H   0  0  0  0  0  0  0  0  0  0  0  0
    2.0549    4.9955    4.5015 H   0  0  0  0  0  0  0  0  0  0  0  0
    3.2283    3.8843    5.1495 H   0  0  0  0  0  0  0  0  0  0  0  0
    1.6018    3.9623    5.8234 H   0  0  0  0  0  0  0  0  0  0  0  0
    1.9437    4.3117    2.1848 H   0  0  0  0  0  0  0  0  0  0  0  0
    2.1055    2.6497    1.7182 H   0  0  0  0  0  0  0  0  0  0  0  0
    3.4087    3.5007    2.5694 H   0  0  0  0  0  0  0  0  0  0  0  0
   -0.4943   -0.9095    6.7332 H   0  0  0  0  0  0  0  0  0  0  0  0
    1.4261   -4.3884    4.1270 H   0  0  0  0  0  0  0  0  0  0  0  0
    0.1689   -3.2666    3.7256 H   0  0  0  0  0  0  0  0  0  0  0  0
    1.7162   -0.8602    1.3511 H   0  0  0  0  0  0  0  0  0  0  0  0
    1.0889   -0.4027    2.8379 H   0  0  0  0  0  0  0  0  0  0  0  0
    0.5565   -1.8723    2.1222 H   0  0  0  0  0  0  0  0  0  0  0  0
    1.7903   -4.0466    2.1719 H   0  0  0  0  0  0  0  0  0  0  0  0
    3.0810   -3.9620    0.0502 H   0  0  0  0  0  0  0  0  0  0  0  0
    1.8428   -2.8046    0.2301 H   0  0  0  0  0  0  0  0  0  0  0  0
    4.4200   -2.2164   -0.4785 H   0  0  0  0  0  0  0  0  0  0  0  0
    3.2700   -1.0593    0.0271 H   0  0  0  0  0  0  0  0  0  0  0  0
    6.1730   -0.0289    1.9490 H   0  0  0  0  0  0  0  0  0  0  0  0
    4.7108    0.5341    1.1085 H   0  0  0  0  0  0  0  0  0  0  0  0
    5.9242   -0.3847    0.2568 H   0  0  0  0  0  0  0  0  0  0  0  0
    6.3984   -2.6722    0.7772 H   0  0  0  0  0  0  0  0  0  0  0  0
    6.4500   -2.5096    2.4998 H   0  0  0  0  0  0  0  0  0  0  0  0
    3.5703   -5.3269    1.7781 H   0  0  0  0  0  0  0  0  0  0  0  0
    4.6134   -6.0892    3.6623 H   0  0  0  0  0  0  0  0  0  0  0  0
    3.1184   -5.4450    4.2410 H   0  0  0  0  0  0  0  0  0  0  0  0
    4.6350   -4.5434    4.4599 H   0  0  0  0  0  0  0  0  0  0  0  0
    4.5276   -2.2580    3.5490 H   0  0  0  0  0  0  0  0  0  0  0  0
  1  2  1  0
  1 39  1  0
  1 40  1  0
  1 41  1  0
  2 24  1  0
  2  3  1  0
  2 42  1  6
  3  4  1  0
  4 38  1  0
  4  5  1  0
  4 43  1  1
  5  6  1  0
  5 44  1  0
  5 45  1  0
  6 14  1  0
  6  7  1  0
  6 46  1  1
  7  8  1  1
  7  9  1  0
  7 17  1  0
  8 47  1  0
  8 48  1  0
  8 49  1  0
  9 10  1  0
  9 50  1  0
  9 51  1  0
 10 11  1  0
 10 12  1  0
 10 52  1  1
 12 13  1  0
 12 14  1  0
 12 53  1  6
 13 54  1  0
 14 15  1  0
 14 16  1  0
 15 55  1  0
 15 56  1  0
 15 57  1  0
 16 58  1  0
 16 59  1  0
 16 60  1  0
 17 23  1  0
 17 18  2  0
 18 19  1  0
 18 61  1  0
 19 20  2  0
 19 21  1  0
 21 22  1  0
 23 22  1  6
 22 62  1  0
 22 63  1  0
 23 24  1  0
 23 26  1  0
 24 25  2  0
 26 38  1  0
 26 27  1  6
 26 28  1  0
 27 64  1  0
 27 65  1  0
 27 66  1  0
 28 36  1  0
 28 29  1  0
 28 67  1  6
 29 30  1  0
 29 68  1  0
 29 69  1  0
 30 31  1  0
 30 70  1  0
 30 71  1  0
 31 32  1  6
 31 33  1  0
 31 38  1  0
 32 72  1  0
 32 73  1  0
 32 74  1  0
 33 34  1  0
 33 75  1  0
 33 76  1  0
 34 35  2  0
 34 36  1  0
 36 37  1  0
 36 77  1  6
 37 78  1  0
 37 79  1  0
 37 80  1  0
 38 81  1  1
M  END
>  <i_m_ct_stereo_status>  (138) 
1

>  <s_m_source_file>  (138) 
/var/tmp/pbs.5076255.sched01/tmpb5cfx69f/43pm4c6kpw.sdf

>  <i_m_source_file_index>  (138) 
11

>  <i_lp_mmshare_version>  (138) 
48012

>  <i_f3d_flags>  (138) 
0

>  <s_epik_input>  (138) 
W0NIMl0xT0MoPU8pW0NIXT1DKFtDQF0xMjMpW0NAQF00KFtDSDNdKVtDQEhdKEMoW0NIM10pKFtDSDNdKVtDQEhdKFtPSF0pW0NAQEhdKEJyKVtDSDJdNClbQ0gyXVtDQEBIXShPW0NAQEhdKFtDSDNdKUMyPU8pW0NASF01W0NAQF0zKFtDSDNdKVtDQEhdNltDSDJdW0NIMl1bQ0BdNShbQ0gzXSlbQ0gyXUMoPU8pW0NASF02W0NIM10=

>  <s_epik_cmdline>  (138) 
J2VwaWtfcHl0aG9uJywgJy1waHQnLCAnMi4wJywgJy1waCcsICc3LjAnLCAnLXRuJywgJzgnLCAnLW1hJywgJzIwMCcsICctaW1hZScsICc8aW5maWxlLm1hZT4nLCAnLW9tYWUnLCAnPG91dGZpbGUubWFlPic=

>  <r_lp_tautomer_probability>  (138) 
1

>  <r_epik_Ionization_Penalty>  (138) 
2.38496e-07

>  <r_epik_Ionization_Penalty_Charging>  (138) 
0

>  <r_epik_Ionization_Penalty_Neutral>  (138) 
2.38496e-07

>  <r_epik_State_Penalty>  (138) 
-0

>  <r_epik_Charging_Adjusted_Penalty>  (138) 
0

>  <i_epik_Tot_Q>  (138) 
0

>  <i_epik_Tot_abs_Q>  (138) 
0

>  <s_epik_Chemistry_Notes>  (138) 
This compound has an ester and may undergo hydrolysis at high or low pH.

>  <s_lp_Force_Field>  (138) 
OPLS3e

>  <r_lp_Energy>  (138) 
179.67

>  <b_lp_Chiralities_Consistent>  (138) 
1

>  <s_lp_Variant>  (138) 
36:0-1

>  <s_i_glide_gridfile>  (138) 
pfpi4k_grid

>  <i_i_glide_lignum>  (138) 
11

>  <i_i_glide_rotatable_bonds>  (138) 
1

>  <r_i_docking_score>  (138) 
-3.0647

>  <r_i_glide_ligand_efficiency>  (138) 
-0.0806499

>  <r_i_glide_ligand_efficiency_sa>  (138) 
-0.271143

>  <r_i_glide_ligand_efficiency_ln>  (138) 
-0.660839

>  <r_i_glide_gscore>  (138) 
-3.0647

>  <r_i_glide_lipo>  (138) 
-0.263823

>  <r_i_glide_hbond>  (138) 
-0.186582

>  <r_i_glide_metal>  (138) 
-0

>  <r_i_glide_rewards>  (138) 
-0.0497746

>  <r_i_glide_evdw>  (138) 
-27.0885

>  <r_i_glide_ecoul>  (138) 
-7.8933

>  <r_i_glide_erotb>  (138) 
0

>  <r_i_glide_esite>  (138) 
-0.0260971

>  <r_i_glide_emodel>  (138) 
-41.0258

>  <r_i_glide_energy>  (138) 
-34.9818

>  <r_i_glide_einternal>  (138) 
0.843713

>  <r_i_glide_intrahb_reward>  (138) 
-0

>  <i_i_glide_confnum>  (138) 
1

>  <i_i_glide_posenum>  (138) 
23

>  <r_i_glide_eff_state_penalty>  (138) 
0

>  <ligand_id>  (138) 
36

>  <original_smiles>  (138) 
CC1OC2CC3C(C)(CC(Br)C(O)C3(C)C)C3=CC(=O)OCC3(C1=O)C1(C)C3CCC(C)(CC(=O)C3C)C21

>  <smiles>  (138) 
[H]OC1([H])C([H])(Br)C([H])([H])C2(C([H])([H])[H])C3=C([H])C(=O)OC([H])([H])C34C(=O)C([H])(C([H])([H])[H])OC([H])(C([H])([H])C2([H])C1(C([H])([H])[H])C([H])([H])[H])C1([H])C2(C([H])([H])[H])C([H])([H])C(=O)C([H])(C([H])([H])[H])C([H])(C([H])([H])C2([H])[H])C41C([H])([H])[H]

$$$$
36:0:1
     RDKit          3D

 81 86  0  0  1  0  0  0  0  0999 V2000
    4.6032   -5.5752    7.5606 C   0  0  0  0  0  0  0  0  0  0  0  0
    3.8757   -6.2208    6.3705 C   0  0  2  0  0  0  0  0  0  0  0  0
    4.2239   -5.5121    5.2000 O   0  0  0  0  0  0  0  0  0  0  0  0
    4.0521   -6.1517    3.9384 C   0  0  2  0  0  0  0  0  0  0  0  0
    3.9462   -5.0643    2.8829 C   0  0  0  0  0  0  0  0  0  0  0  0
    3.6919   -3.5993    3.3315 C   0  0  2  0  0  0  0  0  0  0  0  0
    2.5601   -3.1569    4.4362 C   0  0  1  0  0  0  0  0  0  0  0  0
    3.3908   -2.3062    5.4644 C   0  0  0  0  0  0  0  0  0  0  0  0
    1.5459   -2.1641    3.7612 C   0  0  0  0  0  0  0  0  0  0  0  0
    2.1510   -1.0276    2.9517 C   0  0  2  0  0  0  0  0  0  0  0  0
    0.6665    0.1764    2.3824 Br  0  0  0  0  0  0  0  0  0  0  0  0
    2.8432   -1.6280    1.7440 C   0  0  1  0  0  0  0  0  0  0  0  0
    3.2531   -0.5715    0.8948 O   0  0  0  0  0  0  0  0  0  0  0  0
    4.0256   -2.5711    2.1198 C   0  0  0  0  0  0  0  0  0  0  0  0
    5.2919   -1.7369    2.4672 C   0  0  0  0  0  0  0  0  0  0  0  0
    4.3683   -3.2735    0.7676 C   0  0  0  0  0  0  0  0  0  0  0  0
    1.6321   -4.1233    5.3549 C   0  0  0  0  0  0  0  0  0  0  0  0
    0.9041   -3.4278    6.2877 C   0  0  0  0  0  0  0  0  0  0  0  0
   -0.0812   -3.9547    7.2417 C   0  0  0  0  0  0  0  0  0  0  0  0
   -0.5449   -3.2836    8.1623 O   0  0  0  0  0  0  0  0  0  0  0  0
   -0.4465   -5.2132    7.0396 O   0  0  0  0  0  0  0  0  0  0  0  0
   -0.0620   -5.8965    5.8631 C   0  0  0  0  0  0  0  0  0  0  0  0
    1.4231   -5.7168    5.3869 C   0  0  2  0  0  0  0  0  0  0  0  0
    2.3501   -6.2191    6.5483 C   0  0  0  0  0  0  0  0  0  0  0  0
    1.8969   -6.5856    7.6344 O   0  0  0  0  0  0  0  0  0  0  0  0
    1.4942   -6.6410    4.0426 C   0  0  2  0  0  0  0  0  0  0  0  0
    0.9339   -5.7249    2.9156 C   0  0  0  0  0  0  0  0  0  0  0  0
    0.6177   -7.9945    3.9704 C   0  0  1  0  0  0  0  0  0  0  0  0
    0.4685   -8.4592    2.4932 C   0  0  0  0  0  0  0  0  0  0  0  0
    1.8144   -8.4839    1.7446 C   0  0  0  0  0  0  0  0  0  0  0  0
    3.0598   -8.3233    2.6608 C   0  0  2  0  0  0  0  0  0  0  0  0
    4.2642   -8.1197    1.7049 C   0  0  0  0  0  0  0  0  0  0  0  0
    3.2709   -9.6936    3.3646 C   0  0  0  0  0  0  0  0  0  0  0  0
    2.0825  -10.2407    4.1795 C   0  0  0  0  0  0  0  0  0  0  0  0
    2.0072  -11.4523    4.3706 O   0  0  0  0  0  0  0  0  0  0  0  0
    1.0037   -9.3032    4.7809 C   0  0  1  0  0  0  0  0  0  0  0  0
    1.1576   -9.2587    6.3094 C   0  0  0  0  0  0  0  0  0  0  0  0
    2.9237   -7.1954    3.7858 C   0  0  1  0  0  0  0  0  0  0  0  0
    4.4716   -6.1609    8.4714 H   0  0  0  0  0  0  0  0  0  0  0  0
    4.2448   -4.5659    7.7610 H   0  0  0  0  0  0  0  0  0  0  0  0
    5.6751   -5.5168    7.3657 H   0  0  0  0  0  0  0  0  0  0  0  0
    4.2351   -7.2489    6.2994 H   0  0  0  0  0  0  0  0  0  0  0  0
    4.9941   -6.6852    3.8215 H   0  0  0  0  0  0  0  0  0  0  0  0
    4.9416   -5.0936    2.4504 H   0  0  0  0  0  0  0  0  0  0  0  0
    3.2974   -5.3609    2.0670 H   0  0  0  0  0  0  0  0  0  0  0  0
    4.6033   -3.5275    3.9227 H   0  0  0  0  0  0  0  0  0  0  0  0
    4.1536   -1.6922    4.9961 H   0  0  0  0  0  0  0  0  0  0  0  0
    3.9181   -2.9476    6.1719 H   0  0  0  0  0  0  0  0  0  0  0  0
    2.8125   -1.5895    6.0444 H   0  0  0  0  0  0  0  0  0  0  0  0
    0.8515   -2.7081    3.1243 H   0  0  0  0  0  0  0  0  0  0  0  0
    0.9130   -1.6642    4.4885 H   0  0  0  0  0  0  0  0  0  0  0  0
    2.8251   -0.4110    3.5430 H   0  0  0  0  0  0  0  0  0  0  0  0
    2.1066   -2.1954    1.1722 H   0  0  0  0  0  0  0  0  0  0  0  0
    2.4875   -0.2951    0.4058 H   0  0  0  0  0  0  0  0  0  0  0  0
    5.6660   -1.1858    1.6029 H   0  0  0  0  0  0  0  0  0  0  0  0
    6.1159   -2.3725    2.7925 H   0  0  0  0  0  0  0  0  0  0  0  0
    5.1154   -0.9935    3.2406 H   0  0  0  0  0  0  0  0  0  0  0  0
    4.5204   -2.5487   -0.0347 H   0  0  0  0  0  0  0  0  0  0  0  0
    3.5582   -3.9209    0.4261 H   0  0  0  0  0  0  0  0  0  0  0  0
    5.2925   -3.8526    0.7966 H   0  0  0  0  0  0  0  0  0  0  0  0
    0.9809   -2.3643    6.4044 H   0  0  0  0  0  0  0  0  0  0  0  0
   -0.3045   -6.9299    6.0683 H   0  0  0  0  0  0  0  0  0  0  0  0
   -0.7489   -5.5789    5.0801 H   0  0  0  0  0  0  0  0  0  0  0  0
    1.1176   -6.0522    1.9014 H   0  0  0  0  0  0  0  0  0  0  0  0
    1.3339   -4.7286    2.9057 H   0  0  0  0  0  0  0  0  0  0  0  0
   -0.1412   -5.6315    3.0255 H   0  0  0  0  0  0  0  0  0  0  0  0
   -0.4144   -7.7797    4.2382 H   0  0  0  0  0  0  0  0  0  0  0  0
    0.0123   -9.4499    2.4537 H   0  0  0  0  0  0  0  0  0  0  0  0
   -0.2441   -7.8407    1.9469 H   0  0  0  0  0  0  0  0  0  0  0  0
    1.8865   -9.4262    1.1976 H   0  0  0  0  0  0  0  0  0  0  0  0
    1.8222   -7.7353    0.9539 H   0  0  0  0  0  0  0  0  0  0  0  0
    5.2221   -8.1322    2.2265 H   0  0  0  0  0  0  0  0  0  0  0  0
    4.1875   -7.1867    1.1458 H   0  0  0  0  0  0  0  0  0  0  0  0
    4.3079   -8.9179    0.9598 H   0  0  0  0  0  0  0  0  0  0  0  0
    3.5060  -10.4492    2.6131 H   0  0  0  0  0  0  0  0  0  0  0  0
    4.1406   -9.6509    4.0208 H   0  0  0  0  0  0  0  0  0  0  0  0
    0.1029   -9.9070    4.6647 H   0  0  0  0  0  0  0  0  0  0  0  0
    1.0193  -10.2538    6.7195 H   0  0  0  0  0  0  0  0  0  0  0  0
    0.4127   -8.6449    6.8055 H   0  0  0  0  0  0  0  0  0  0  0  0
    2.1553   -8.9484    6.6147 H   0  0  0  0  0  0  0  0  0  0  0  0
    3.1157   -7.8026    4.6581 H   0  0  0  0  0  0  0  0  0  0  0  0
  1  2  1  0
  1 39  1  0
  1 40  1  0
  1 41  1  0
  2 24  1  0
  2  3  1  0
  2 42  1  6
  3  4  1  0
  4 38  1  0
  4  5  1  0
  4 43  1  6
  5  6  1  0
  5 44  1  0
  5 45  1  0
  6 14  1  0
  6  7  1  0
  6 46  1  1
  7  8  1  1
  7  9  1  0
  7 17  1  0
  8 47  1  0
  8 48  1  0
  8 49  1  0
  9 10  1  0
  9 50  1  0
  9 51  1  0
 10 11  1  0
 10 12  1  0
 10 52  1  1
 12 13  1  0
 12 14  1  0
 12 53  1  6
 13 54  1  0
 14 15  1  0
 14 16  1  0
 15 55  1  0
 15 56  1  0
 15 57  1  0
 16 58  1  0
 16 59  1  0
 16 60  1  0
 17 23  1  0
 17 18  2  0
 18 19  1  0
 18 61  1  0
 19 20  2  0
 19 21  1  0
 21 22  1  0
 23 22  1  1
 22 62  1  0
 22 63  1  0
 23 24  1  0
 23 26  1  0
 24 25  2  0
 26 38  1  0
 26 27  1  6
 26 28  1  0
 27 64  1  0
 27 65  1  0
 27 66  1  0
 28 36  1  0
 28 29  1  0
 28 67  1  1
 29 30  1  0
 29 68  1  0
 29 69  1  0
 30 31  1  0
 30 70  1  0
 30 71  1  0
 31 32  1  6
 31 33  1  0
 31 38  1  0
 32 72  1  0
 32 73  1  0
 32 74  1  0
 33 34  1  0
 33 75  1  0
 33 76  1  0
 34 35  2  0
 34 36  1  0
 36 37  1  0
 36 77  1  1
 37 78  1  0
 37 79  1  0
 37 80  1  0
 38 81  1  1
M  END
>  <i_m_ct_stereo_status>  (139) 
1

>  <s_m_source_file>  (139) 
/var/tmp/pbs.5076255.sched01/tmpb5cfx69f/43pm4c6kpw.sdf

>  <i_m_source_file_index>  (139) 
11

>  <i_lp_mmshare_version>  (139) 
48012

>  <i_f3d_flags>  (139) 
0

>  <s_epik_input>  (139) 
W0NIMl0xT0MoPU8pW0NIXT1DKFtDQF0xMjMpW0NAQF00KFtDSDNdKVtDQEhdKEMoW0NIM10pKFtDSDNdKVtDQEhdKFtPSF0pW0NAQEhdKEJyKVtDSDJdNClbQ0gyXVtDQEBIXShPW0NAQEhdKFtDSDNdKUMyPU8pW0NASF01W0NAQF0zKFtDSDNdKVtDQEhdNltDSDJdW0NIMl1bQ0BdNShbQ0gzXSlbQ0gyXUMoPU8pW0NASF02W0NIM10=

>  <s_epik_cmdline>  (139) 
J2VwaWtfcHl0aG9uJywgJy1waHQnLCAnMi4wJywgJy1waCcsICc3LjAnLCAnLXRuJywgJzgnLCAnLW1hJywgJzIwMCcsICctaW1hZScsICc8aW5maWxlLm1hZT4nLCAnLW9tYWUnLCAnPG91dGZpbGUubWFlPic=

>  <r_lp_tautomer_probability>  (139) 
1

>  <r_epik_Ionization_Penalty>  (139) 
2.38496e-07

>  <r_epik_Ionization_Penalty_Charging>  (139) 
0

>  <r_epik_Ionization_Penalty_Neutral>  (139) 
2.38496e-07

>  <r_epik_State_Penalty>  (139) 
-0

>  <r_epik_Charging_Adjusted_Penalty>  (139) 
0

>  <i_epik_Tot_Q>  (139) 
0

>  <i_epik_Tot_abs_Q>  (139) 
0

>  <s_epik_Chemistry_Notes>  (139) 
This compound has an ester and may undergo hydrolysis at high or low pH.

>  <s_lp_Force_Field>  (139) 
OPLS3e

>  <r_lp_Energy>  (139) 
179.67

>  <b_lp_Chiralities_Consistent>  (139) 
1

>  <s_lp_Variant>  (139) 
36:0-1

>  <s_i_glide_gridfile>  (139) 
pfpi4k_grid

>  <i_i_glide_lignum>  (139) 
11

>  <i_i_glide_rotatable_bonds>  (139) 
1

>  <r_i_docking_score>  (139) 
-2.37894

>  <r_i_glide_ligand_efficiency>  (139) 
-0.0626037

>  <r_i_glide_ligand_efficiency_sa>  (139) 
-0.210472

>  <r_i_glide_ligand_efficiency_ln>  (139) 
-0.51297

>  <r_i_glide_gscore>  (139) 
-2.37894

>  <r_i_glide_lipo>  (139) 
-0.125239

>  <r_i_glide_hbond>  (139) 
-0.174185

>  <r_i_glide_metal>  (139) 
-0

>  <r_i_glide_rewards>  (139) 
0

>  <r_i_glide_evdw>  (139) 
-32.1239

>  <r_i_glide_ecoul>  (139) 
-2.94985

>  <r_i_glide_erotb>  (139) 
0

>  <r_i_glide_esite>  (139) 
-0.0308469

>  <r_i_glide_emodel>  (139) 
-39.6739

>  <r_i_glide_energy>  (139) 
-35.0737

>  <r_i_glide_einternal>  (139) 
0.749887

>  <r_i_glide_intrahb_reward>  (139) 
-0

>  <i_i_glide_confnum>  (139) 
2

>  <i_i_glide_posenum>  (139) 
30

>  <r_i_glide_eff_state_penalty>  (139) 
0

>  <ligand_id>  (139) 
36

>  <original_smiles>  (139) 
CC1OC2CC3C(C)(CC(Br)C(O)C3(C)C)C3=CC(=O)OCC3(C1=O)C1(C)C3CCC(C)(CC(=O)C3C)C21

>  <smiles>  (139) 
[H]OC1([H])C([H])(Br)C([H])([H])C2(C([H])([H])[H])C3=C([H])C(=O)OC([H])([H])C34C(=O)C([H])(C([H])([H])[H])OC([H])(C([H])([H])C2([H])C1(C([H])([H])[H])C([H])([H])[H])C1([H])C2(C([H])([H])[H])C([H])([H])C(=O)C([H])(C([H])([H])[H])C([H])(C([H])([H])C2([H])[H])C41C([H])([H])[H]

$$$$
36:0:2
     RDKit          3D

 81 86  0  0  1  0  0  0  0  0999 V2000
    4.8413    0.2682    7.1262 C   0  0  0  0  0  0  0  0  0  0  0  0
    3.5019    0.6094    6.4529 C   0  0  2  0  0  0  0  0  0  0  0  0
    2.5650   -0.3899    6.7822 O   0  0  0  0  0  0  0  0  0  0  0  0
    1.1801   -0.0928    6.6467 C   0  0  2  0  0  0  0  0  0  0  0  0
    0.4433   -1.4120    6.4992 C   0  0  0  0  0  0  0  0  0  0  0  0
    1.2546   -2.6937    6.1678 C   0  0  2  0  0  0  0  0  0  0  0  0
    2.4055   -2.7811    5.0013 C   0  0  1  0  0  0  0  0  0  0  0  0
    3.6404   -3.3715    5.7707 C   0  0  0  0  0  0  0  0  0  0  0  0
    1.9850   -3.8625    3.9453 C   0  0  0  0  0  0  0  0  0  0  0  0
    1.5123   -5.1987    4.4953 C   0  0  2  0  0  0  0  0  0  0  0  0
    1.1546   -6.3840    2.9307 Br  0  0  0  0  0  0  0  0  0  0  0  0
    0.2225   -4.9745    5.2543 C   0  0  1  0  0  0  0  0  0  0  0  0
   -0.3197   -6.2339    5.6170 O   0  0  0  0  0  0  0  0  0  0  0  0
    0.3650   -4.0188    6.4714 C   0  0  0  0  0  0  0  0  0  0  0  0
    0.9482   -4.7886    7.6870 C   0  0  0  0  0  0  0  0  0  0  0  0
   -1.1123   -3.7150    6.8688 C   0  0  0  0  0  0  0  0  0  0  0  0
    3.0125   -1.5680    4.1076 C   0  0  0  0  0  0  0  0  0  0  0  0
    4.0770   -1.9612    3.3344 C   0  0  0  0  0  0  0  0  0  0  0  0
    4.8350   -1.1540    2.3684 C   0  0  0  0  0  0  0  0  0  0  0  0
    5.8997   -1.5264    1.8838 O   0  0  0  0  0  0  0  0  0  0  0  0
    4.2973    0.0153    2.0667 O   0  0  0  0  0  0  0  0  0  0  0  0
    2.9976    0.3520    2.4972 C   0  0  0  0  0  0  0  0  0  0  0  0
    2.6253   -0.0172    3.9806 C   0  0  2  0  0  0  0  0  0  0  0  0
    3.6407    0.7142    4.9277 C   0  0  0  0  0  0  0  0  0  0  0  0
    4.6077    1.3346    4.4919 O   0  0  0  0  0  0  0  0  0  0  0  0
    1.0894    0.5210    4.1113 C   0  0  2  0  0  0  0  0  0  0  0  0
    0.2316   -0.6351    3.5103 C   0  0  0  0  0  0  0  0  0  0  0  0
    0.6466    1.8518    3.3123 C   0  0  1  0  0  0  0  0  0  0  0  0
   -0.9037    1.9214    3.2040 C   0  0  0  0  0  0  0  0  0  0  0  0
   -1.6015    1.6900    4.5574 C   0  0  0  0  0  0  0  0  0  0  0  0
   -0.6401    1.7163    5.7807 C   0  0  2  0  0  0  0  0  0  0  0  0
   -1.4739    1.2188    6.9846 C   0  0  0  0  0  0  0  0  0  0  0  0
   -0.3088    3.2067    6.0589 C   0  0  0  0  0  0  0  0  0  0  0  0
    0.2970    4.0055    4.8899 C   0  0  0  0  0  0  0  0  0  0  0  0
    0.1430    5.2258    4.8776 O   0  0  0  0  0  0  0  0  0  0  0  0
    1.0994    3.3090    3.7573 C   0  0  1  0  0  0  0  0  0  0  0  0
    2.5920    3.6575    3.8915 C   0  0  0  0  0  0  0  0  0  0  0  0
    0.7329    0.9241    5.5726 C   0  0  1  0  0  0  0  0  0  0  0  0
    5.5641    1.0778    7.0100 H   0  0  0  0  0  0  0  0  0  0  0  0
    5.2899   -0.6337    6.7112 H   0  0  0  0  0  0  0  0  0  0  0  0
    4.7006    0.1119    8.1964 H   0  0  0  0  0  0  0  0  0  0  0  0
    3.1790    1.5694    6.8576 H   0  0  0  0  0  0  0  0  0  0  0  0
    0.9538    0.3485    7.6158 H   0  0  0  0  0  0  0  0  0  0  0  0
    0.0474   -1.5430    7.5015 H   0  0  0  0  0  0  0  0  0  0  0  0
   -0.4353   -1.3088    5.8719 H   0  0  0  0  0  0  0  0  0  0  0  0
    1.8690   -2.6506    7.0659 H   0  0  0  0  0  0  0  0  0  0  0  0
    3.3677   -4.1216    6.5067 H   0  0  0  0  0  0  0  0  0  0  0  0
    4.1703   -2.5932    6.3208 H   0  0  0  0  0  0  0  0  0  0  0  0
    4.3704   -3.8836    5.1470 H   0  0  0  0  0  0  0  0  0  0  0  0
    1.2111   -3.4712    3.2879 H   0  0  0  0  0  0  0  0  0  0  0  0
    2.7995   -4.1264    3.2769 H   0  0  0  0  0  0  0  0  0  0  0  0
    2.2772   -5.6852    5.0992 H   0  0  0  0  0  0  0  0  0  0  0  0
   -0.4822   -4.5341    4.5525 H   0  0  0  0  0  0  0  0  0  0  0  0
    0.3353   -6.7221    6.0950 H   0  0  0  0  0  0  0  0  0  0  0  0
    0.2634   -5.5593    8.0434 H   0  0  0  0  0  0  0  0  0  0  0  0
    1.1228   -4.1286    8.5385 H   0  0  0  0  0  0  0  0  0  0  0  0
    1.8821   -5.2955    7.4578 H   0  0  0  0  0  0  0  0  0  0  0  0
   -1.6999   -4.6273    6.9845 H   0  0  0  0  0  0  0  0  0  0  0  0
   -1.6269   -3.1326    6.1020 H   0  0  0  0  0  0  0  0  0  0  0  0
   -1.2009   -3.2042    7.8251 H   0  0  0  0  0  0  0  0  0  0  0  0
    4.4719   -2.9592    3.3508 H   0  0  0  0  0  0  0  0  0  0  0  0
    2.9265    1.4144    2.3044 H   0  0  0  0  0  0  0  0  0  0  0  0
    2.3071   -0.1254    1.8025 H   0  0  0  0  0  0  0  0  0  0  0  0
   -0.8273   -0.5870    3.7271 H   0  0  0  0  0  0  0  0  0  0  0  0
    0.4882   -1.6117    3.8715 H   0  0  0  0  0  0  0  0  0  0  0  0
    0.3261   -0.6747    2.4259 H   0  0  0  0  0  0  0  0  0  0  0  0
    0.9327    1.7651    2.2655 H   0  0  0  0  0  0  0  0  0  0  0  0
   -1.2055    2.8858    2.7922 H   0  0  0  0  0  0  0  0  0  0  0  0
   -1.2830    1.2129    2.4666 H   0  0  0  0  0  0  0  0  0  0  0  0
   -2.3788    2.4466    4.6815 H   0  0  0  0  0  0  0  0  0  0  0  0
   -2.1674    0.7592    4.5351 H   0  0  0  0  0  0  0  0  0  0  0  0
   -0.9490    1.3202    7.9354 H   0  0  0  0  0  0  0  0  0  0  0  0
   -1.7618    0.1785    6.8527 H   0  0  0  0  0  0  0  0  0  0  0  0
   -2.4022    1.7854    7.0821 H   0  0  0  0  0  0  0  0  0  0  0  0
   -1.2240    3.7271    6.3457 H   0  0  0  0  0  0  0  0  0  0  0  0
    0.3600    3.2943    6.9160 H   0  0  0  0  0  0  0  0  0  0  0  0
    0.8082    3.8996    2.8869 H   0  0  0  0  0  0  0  0  0  0  0  0
    2.7299    4.7351    3.7965 H   0  0  0  0  0  0  0  0  0  0  0  0
    3.2084    3.2259    3.1087 H   0  0  0  0  0  0  0  0  0  0  0  0
    2.9962    3.3838    4.8641 H   0  0  0  0  0  0  0  0  0  0  0  0
    1.4228    1.7273    5.7844 H   0  0  0  0  0  0  0  0  0  0  0  0
  1  2  1  0
  1 39  1  0
  1 40  1  0
  1 41  1  0
  2 24  1  0
  2  3  1  0
  2 42  1  1
  3  4  1  0
  4 38  1  0
  4  5  1  0
  4 43  1  1
  5  6  1  0
  5 44  1  0
  5 45  1  0
  6 14  1  0
  6  7  1  0
  6 46  1  1
  7  8  1  1
  7  9  1  0
  7 17  1  0
  8 47  1  0
  8 48  1  0
  8 49  1  0
  9 10  1  0
  9 50  1  0
  9 51  1  0
 10 11  1  0
 10 12  1  0
 10 52  1  1
 12 13  1  0
 12 14  1  0
 12 53  1  6
 13 54  1  0
 14 15  1  0
 14 16  1  0
 15 55  1  0
 15 56  1  0
 15 57  1  0
 16 58  1  0
 16 59  1  0
 16 60  1  0
 17 23  1  0
 17 18  2  0
 18 19  1  0
 18 61  1  0
 19 20  2  0
 19 21  1  0
 21 22  1  0
 23 22  1  6
 22 62  1  0
 22 63  1  0
 23 24  1  0
 23 26  1  0
 24 25  2  0
 26 38  1  0
 26 27  1  6
 26 28  1  0
 27 64  1  0
 27 65  1  0
 27 66  1  0
 28 36  1  0
 28 29  1  0
 28 67  1  6
 29 30  1  0
 29 68  1  0
 29 69  1  0
 30 31  1  0
 30 70  1  0
 30 71  1  0
 31 32  1  1
 31 33  1  0
 31 38  1  0
 32 72  1  0
 32 73  1  0
 32 74  1  0
 33 34  1  0
 33 75  1  0
 33 76  1  0
 34 35  2  0
 34 36  1  0
 36 37  1  0
 36 77  1  6
 37 78  1  0
 37 79  1  0
 37 80  1  0
 38 81  1  1
M  END
>  <i_m_ct_stereo_status>  (140) 
1

>  <s_m_source_file>  (140) 
/var/tmp/pbs.5076255.sched01/tmpb5cfx69f/43pm4c6kpw.sdf

>  <i_m_source_file_index>  (140) 
11

>  <i_lp_mmshare_version>  (140) 
48012

>  <i_f3d_flags>  (140) 
0

>  <s_epik_input>  (140) 
W0NIMl0xT0MoPU8pW0NIXT1DKFtDQF0xMjMpW0NAQF00KFtDSDNdKVtDQEhdKEMoW0NIM10pKFtDSDNdKVtDQEhdKFtPSF0pW0NAQEhdKEJyKVtDSDJdNClbQ0gyXVtDQEBIXShPW0NAQEhdKFtDSDNdKUMyPU8pW0NASF01W0NAQF0zKFtDSDNdKVtDQEhdNltDSDJdW0NIMl1bQ0BdNShbQ0gzXSlbQ0gyXUMoPU8pW0NASF02W0NIM10=

>  <s_epik_cmdline>  (140) 
J2VwaWtfcHl0aG9uJywgJy1waHQnLCAnMi4wJywgJy1waCcsICc3LjAnLCAnLXRuJywgJzgnLCAnLW1hJywgJzIwMCcsICctaW1hZScsICc8aW5maWxlLm1hZT4nLCAnLW9tYWUnLCAnPG91dGZpbGUubWFlPic=

>  <r_lp_tautomer_probability>  (140) 
1

>  <r_epik_Ionization_Penalty>  (140) 
2.38496e-07

>  <r_epik_Ionization_Penalty_Charging>  (140) 
0

>  <r_epik_Ionization_Penalty_Neutral>  (140) 
2.38496e-07

>  <r_epik_State_Penalty>  (140) 
-0

>  <r_epik_Charging_Adjusted_Penalty>  (140) 
0

>  <i_epik_Tot_Q>  (140) 
0

>  <i_epik_Tot_abs_Q>  (140) 
0

>  <s_epik_Chemistry_Notes>  (140) 
This compound has an ester and may undergo hydrolysis at high or low pH.

>  <s_lp_Force_Field>  (140) 
OPLS3e

>  <r_lp_Energy>  (140) 
179.67

>  <b_lp_Chiralities_Consistent>  (140) 
1

>  <s_lp_Variant>  (140) 
36:0-1

>  <s_i_glide_gridfile>  (140) 
pfpi4k_grid

>  <i_i_glide_lignum>  (140) 
11

>  <i_i_glide_rotatable_bonds>  (140) 
1

>  <r_i_docking_score>  (140) 
-2.03983

>  <r_i_glide_ligand_efficiency>  (140) 
-0.0536798

>  <r_i_glide_ligand_efficiency_sa>  (140) 
-0.18047

>  <r_i_glide_ligand_efficiency_ln>  (140) 
-0.439848

>  <r_i_glide_gscore>  (140) 
-2.03983

>  <r_i_glide_lipo>  (140) 
-0.0448966

>  <r_i_glide_hbond>  (140) 
-0.00780758

>  <r_i_glide_metal>  (140) 
-0

>  <r_i_glide_rewards>  (140) 
-0.115811

>  <r_i_glide_evdw>  (140) 
-31.4027

>  <r_i_glide_ecoul>  (140) 
-1.85456

>  <r_i_glide_erotb>  (140) 
0

>  <r_i_glide_esite>  (140) 
-0.0229957

>  <r_i_glide_emodel>  (140) 
-37.6508

>  <r_i_glide_energy>  (140) 
-33.2573

>  <r_i_glide_einternal>  (140) 
0.057173

>  <r_i_glide_intrahb_reward>  (140) 
-0

>  <i_i_glide_confnum>  (140) 
2

>  <i_i_glide_posenum>  (140) 
12

>  <r_i_glide_eff_state_penalty>  (140) 
0

>  <ligand_id>  (140) 
36

>  <original_smiles>  (140) 
CC1OC2CC3C(C)(CC(Br)C(O)C3(C)C)C3=CC(=O)OCC3(C1=O)C1(C)C3CCC(C)(CC(=O)C3C)C21

>  <smiles>  (140) 
[H]OC1([H])C([H])(Br)C([H])([H])C2(C([H])([H])[H])C3=C([H])C(=O)OC([H])([H])C34C(=O)C([H])(C([H])([H])[H])OC([H])(C([H])([H])C2([H])C1(C([H])([H])[H])C([H])([H])[H])C1([H])C2(C([H])([H])[H])C([H])([H])C(=O)C([H])(C([H])([H])[H])C([H])(C([H])([H])C2([H])[H])C41C([H])([H])[H]

$$$$
38:0:0
     RDKit          3D

 96102  0  0  1  0  0  0  0  0999 V2000
    6.9263   -6.3178    3.4430 C   0  0  0  0  0  0  0  0  0  0  0  0
    5.5297   -5.6628    3.3474 C   0  0  2  0  0  0  0  0  0  0  0  0
    4.3394   -6.6864    3.1695 C   0  0  1  0  0  0  0  0  0  0  0  0
    3.1044   -6.3671    4.1013 C   0  0  1  0  0  0  0  0  0  0  0  0
    2.0398   -5.4645    3.3859 C   0  0  0  0  0  0  0  0  0  0  0  0
    1.0137   -5.1105    3.9548 O   0  0  0  0  0  0  0  0  0  0  0  0
    2.3540   -4.9418    2.0513 C   0  0  0  0  0  0  0  0  0  0  0  0
    3.3104   -5.5150    1.2764 C   0  0  0  0  0  0  0  0  0  0  0  0
    4.1463   -4.6746    0.2783 C   0  0  1  0  0  0  0  0  0  0  0  0
    3.5045   -3.4286   -0.5323 C   0  0  0  0  0  0  0  0  0  0  0  0
    3.7375   -3.5537   -2.0669 C   0  0  0  0  0  0  0  0  0  0  0  0
    1.9537   -3.3559   -0.5907 C   0  0  0  0  0  0  0  0  0  0  0  0
    4.2512   -2.1528    0.0587 C   0  0  2  0  0  0  0  0  0  0  0  0
    3.5419   -1.4352    1.3193 C   0  0  0  0  0  0  0  0  0  0  0  0
    4.1325   -1.2732    2.3614 O   0  0  0  0  0  0  0  0  0  0  0  0
    2.3537   -0.7985    1.1488 N   0  0  0  0  0  0  0  0  0  0  0  0
    1.5363   -0.2247    2.1588 C   0  0  0  0  0  0  0  0  0  0  0  0
    0.7013    0.8686    1.8572 C   0  0  0  0  0  0  0  0  0  0  0  0
   -0.1246    1.4033    2.8573 C   0  0  0  0  0  0  0  0  0  0  0  0
   -0.1287    0.8127    4.1274 C   0  0  0  0  0  0  0  0  0  0  0  0
    0.6075   -0.2879    4.4260 N   0  0  0  0  0  0  0  0  0  0  0  0
    1.4215   -0.7824    3.4549 C   0  0  0  0  0  0  0  0  0  0  0  0
    5.0330   -0.9682   -0.5513 C   0  0  0  0  0  0  0  0  0  0  0  0
    6.2026   -1.3624    0.4399 C   0  0  0  0  0  0  0  0  0  0  0  0
    5.6976   -2.7918    0.1966 C   0  0  2  0  0  0  0  0  0  0  0  0
    6.5333   -3.2494   -1.0826 C   0  0  0  0  0  0  0  0  0  0  0  0
    5.4450   -4.1244    1.0049 C   0  0  2  0  0  0  0  0  0  0  0  0
    6.6067   -4.9161    0.7943 O   0  0  0  0  0  0  0  0  0  0  0  0
    5.5012   -4.2469    2.5947 C   0  0  1  0  0  0  0  0  0  0  0  0
    4.6487   -3.4628    3.4091 O   0  0  0  0  0  0  0  0  0  0  0  0
    3.8638   -6.9129    1.7128 C   0  0  1  0  0  0  0  0  0  0  0  0
    4.9881   -7.5019    0.8056 C   0  0  0  0  0  0  0  0  0  0  0  0
    2.7700   -8.0396    1.5699 C   0  0  0  0  0  0  0  0  0  0  0  0
    1.7232   -8.4396    2.6081 C   0  0  0  0  0  0  0  0  0  0  0  0
    2.1675   -8.8333    4.0288 C   0  0  1  0  0  0  0  0  0  0  0  0
    2.9492  -10.1878    4.2360 C   0  0  0  0  0  0  0  0  0  0  0  0
    2.1953  -11.3179    3.5088 C   0  0  0  0  0  0  0  0  0  0  0  0
    4.4094  -10.2197    3.7212 C   0  0  0  0  0  0  0  0  0  0  0  0
    2.8995  -10.4824    5.7602 C   0  0  1  0  0  0  0  0  0  0  0  0
    3.5112  -11.7060    6.1041 O   0  0  0  0  0  0  0  0  0  0  0  0
    3.4926   -9.3807    6.6566 C   0  0  0  0  0  0  0  0  0  0  0  0
    3.6581   -8.0066    5.9749 C   0  0  0  0  0  0  0  0  0  0  0  0
    2.5651   -7.6108    4.9325 C   0  0  1  0  0  0  0  0  0  0  0  0
    1.3315   -7.2495    5.8138 C   0  0  0  0  0  0  0  0  0  0  0  0
    7.2894   -6.7375    2.5107 H   0  0  0  0  0  0  0  0  0  0  0  0
    6.9233   -7.1196    4.1841 H   0  0  0  0  0  0  0  0  0  0  0  0
    7.6696   -5.5965    3.7871 H   0  0  0  0  0  0  0  0  0  0  0  0
    5.4636   -5.4112    4.4070 H   0  0  0  0  0  0  0  0  0  0  0  0
    4.7432   -7.6400    3.4731 H   0  0  0  0  0  0  0  0  0  0  0  0
    3.4467   -5.6998    4.8827 H   0  0  0  0  0  0  0  0  0  0  0  0
    1.9775   -3.9484    1.8821 H   0  0  0  0  0  0  0  0  0  0  0  0
    4.4629   -5.3642   -0.4968 H   0  0  0  0  0  0  0  0  0  0  0  0
    3.7830   -2.5841   -2.5661 H   0  0  0  0  0  0  0  0  0  0  0  0
    2.8928   -4.0321   -2.5565 H   0  0  0  0  0  0  0  0  0  0  0  0
    4.5690   -4.1606   -2.3736 H   0  0  0  0  0  0  0  0  0  0  0  0
    1.6704   -2.7540   -1.4412 H   0  0  0  0  0  0  0  0  0  0  0  0
    1.5082   -2.8845    0.2577 H   0  0  0  0  0  0  0  0  0  0  0  0
    1.5021   -4.3439   -0.7401 H   0  0  0  0  0  0  0  0  0  0  0  0
    1.9101   -0.8143    0.2324 H   0  0  0  0  0  0  0  0  0  0  0  0
    0.6891    1.2840    0.8668 H   0  0  0  0  0  0  0  0  0  0  0  0
   -0.7478    2.2740    2.6530 H   0  0  0  0  0  0  0  0  0  0  0  0
   -0.7250    1.2124    4.9363 H   0  0  0  0  0  0  0  0  0  0  0  0
    1.9442   -1.6869    3.7530 H   0  0  0  0  0  0  0  0  0  0  0  0
    5.2379   -1.0470   -1.6138 H   0  0  0  0  0  0  0  0  0  0  0  0
    4.6057    0.0177   -0.3387 H   0  0  0  0  0  0  0  0  0  0  0  0
    7.1880   -1.1445    0.0540 H   0  0  0  0  0  0  0  0  0  0  0  0
    6.1647   -0.9566    1.4402 H   0  0  0  0  0  0  0  0  0  0  0  0
    7.6121   -3.2075   -0.8802 H   0  0  0  0  0  0  0  0  0  0  0  0
    6.4216   -2.6560   -1.9876 H   0  0  0  0  0  0  0  0  0  0  0  0
    6.3070   -4.2845   -1.3929 H   0  0  0  0  0  0  0  0  0  0  0  0
    7.3254   -4.4991    1.2576 H   0  0  0  0  0  0  0  0  0  0  0  0
    6.4748   -3.7689    2.7486 H   0  0  0  0  0  0  0  0  0  0  0  0
    3.7534   -3.5324    3.0937 H   0  0  0  0  0  0  0  0  0  0  0  0
    5.2156   -8.5423    1.0336 H   0  0  0  0  0  0  0  0  0  0  0  0
    5.9493   -7.0495    0.8955 H   0  0  0  0  0  0  0  0  0  0  0  0
    4.6987   -7.4825   -0.2423 H   0  0  0  0  0  0  0  0  0  0  0  0
    2.1063   -7.6780    0.8025 H   0  0  0  0  0  0  0  0  0  0  0  0
    3.1924   -8.9779    1.2044 H   0  0  0  0  0  0  0  0  0  0  0  0
    0.9414   -7.6841    2.6506 H   0  0  0  0  0  0  0  0  0  0  0  0
    1.1705   -9.2663    2.1700 H   0  0  0  0  0  0  0  0  0  0  0  0
    1.1935   -9.1287    4.4146 H   0  0  0  0  0  0  0  0  0  0  0  0
    2.6287  -12.2928    3.7217 H   0  0  0  0  0  0  0  0  0  0  0  0
    2.2661  -11.1796    2.4353 H   0  0  0  0  0  0  0  0  0  0  0  0
    1.1403  -11.3600    3.7771 H   0  0  0  0  0  0  0  0  0  0  0  0
    4.7989  -11.2394    3.7211 H   0  0  0  0  0  0  0  0  0  0  0  0
    5.0909   -9.6504    4.3388 H   0  0  0  0  0  0  0  0  0  0  0  0
    4.5016   -9.8605    2.7026 H   0  0  0  0  0  0  0  0  0  0  0  0
    1.8473  -10.6031    6.0331 H   0  0  0  0  0  0  0  0  0  0  0  0
    2.9002  -12.1719    6.6676 H   0  0  0  0  0  0  0  0  0  0  0  0
    2.8716   -9.2959    7.5504 H   0  0  0  0  0  0  0  0  0  0  0  0
    4.4740   -9.6814    7.0147 H   0  0  0  0  0  0  0  0  0  0  0  0
    3.6888   -7.2560    6.7558 H   0  0  0  0  0  0  0  0  0  0  0  0
    4.6581   -7.9532    5.5440 H   0  0  0  0  0  0  0  0  0  0  0  0
    1.1004   -8.0329    6.5320 H   0  0  0  0  0  0  0  0  0  0  0  0
    0.4223   -7.1194    5.2290 H   0  0  0  0  0  0  0  0  0  0  0  0
    1.4978   -6.3364    6.3836 H   0  0  0  0  0  0  0  0  0  0  0  0
  1  2  1  0
  1 45  1  0
  1 46  1  0
  1 47  1  0
  2 29  1  0
  2  3  1  0
  2 48  1  1
  3 31  1  0
  3  4  1  0
  3 49  1  1
  4 43  1  0
  4  5  1  0
  4 50  1  1
  5  6  2  0
  5  7  1  0
  7  8  2  0
  7 51  1  0
  8  9  1  0
  8 31  1  0
  9 27  1  0
  9 10  1  0
  9 52  1  6
 10 11  1  0
 10 12  1  0
 10 13  1  0
 11 53  1  0
 11 54  1  0
 11 55  1  0
 12 56  1  0
 12 57  1  0
 12 58  1  0
 13 25  1  0
 13 14  1  1
 13 23  1  0
 14 15  2  0
 14 16  1  0
 16 17  1  0
 16 59  1  0
 17 22  1  0
 17 18  2  0
 18 19  1  0
 18 60  1  0
 19 20  2  0
 19 61  1  0
 20 21  1  0
 20 62  1  0
 21 22  2  0
 22 63  1  0
 23 24  1  0
 23 64  1  0
 23 65  1  0
 24 25  1  0
 24 66  1  0
 24 67  1  0
 25 26  1  6
 25 27  1  0
 26 68  1  0
 26 69  1  0
 26 70  1  0
 27 28  1  6
 27 29  1  0
 28 71  1  0
 29 30  1  0
 29 72  1  1
 30 73  1  0
 31 32  1  6
 31 33  1  0
 32 74  1  0
 32 75  1  0
 32 76  1  0
 33 34  1  0
 33 77  1  0
 33 78  1  0
 34 35  1  0
 34 79  1  0
 34 80  1  0
 35 43  1  0
 35 36  1  0
 35 81  1  1
 36 37  1  0
 36 38  1  0
 36 39  1  0
 37 82  1  0
 37 83  1  0
 37 84  1  0
 38 85  1  0
 38 86  1  0
 38 87  1  0
 39 40  1  0
 39 41  1  0
 39 88  1  1
 40 89  1  0
 41 42  1  0
 41 90  1  0
 41 91  1  0
 42 43  1  0
 42 92  1  0
 42 93  1  0
 43 44  1  1
 44 94  1  0
 44 95  1  0
 44 96  1  0
M  END
>  <i_m_ct_stereo_status>  (141) 
1

>  <s_m_source_file>  (141) 
/var/tmp/pbs.5076255.sched01/tmpb5cfx69f/43pm4c6kpw.sdf

>  <i_m_source_file_index>  (141) 
13

>  <i_lp_mmshare_version>  (141) 
48012

>  <i_f3d_flags>  (141) 
0

>  <s_epik_input>  (141) 
W0NIMl0xW0NIMl1bQ0BIXShbT0hdKUMoW0NIM10pKFtDSDNdKVtDQEhdKFtDSDJdW0NIMl0yKVtDQF0xKFtDSDNdKVtDQEhdKEMoPU8pW0NIXT0zKVtDQEhdKFtDQEBIXShbQ0gzXSlbQ0BASF00W09IXSlbQ0BdMihbQ0gzXSlDM1tDQEBIXShDNShbQ0gzXSlbQ0gzXSlbQ0BAXTQoW09IXSlbQ0BdKFtDSDNdKShbQ0gyXVtDSDJdNilbQ0BdNTZDKD1PKVtOSF1jN1tjSF1bY0hdW2NIXW5bY0hdNw==

>  <s_epik_cmdline>  (141) 
J2VwaWtfcHl0aG9uJywgJy1waHQnLCAnMi4wJywgJy1waCcsICc3LjAnLCAnLXRuJywgJzgnLCAnLW1hJywgJzIwMCcsICctaW1hZScsICc8aW5maWxlLm1hZT4nLCAnLW9tYWUnLCAnPG91dGZpbGUubWFlPic=

>  <r_epik_Ionization_Penalty>  (141) 
0.0036216

>  <r_epik_Ionization_Penalty_Charging>  (141) 
0

>  <r_epik_Ionization_Penalty_Neutral>  (141) 
0.0036216

>  <r_epik_State_Penalty>  (141) 
0.00256807

>  <r_epik_Charging_Adjusted_Penalty>  (141) 
0.00256807

>  <i_epik_Tot_Q>  (141) 
0

>  <i_epik_Tot_abs_Q>  (141) 
0

>  <s_lp_Force_Field>  (141) 
OPLS3e

>  <r_lp_Energy>  (141) 
252.059

>  <b_lp_Chiralities_Consistent>  (141) 
1

>  <s_lp_Variant>  (141) 
38:0-1

>  <s_i_glide_gridfile>  (141) 
pfpi4k_grid

>  <i_i_glide_lignum>  (141) 
13

>  <i_i_glide_rotatable_bonds>  (141) 
6

>  <r_i_docking_score>  (141) 
-3.25648

>  <r_i_glide_ligand_efficiency>  (141) 
-0.0740109

>  <r_i_glide_ligand_efficiency_sa>  (141) 
-0.261284

>  <r_i_glide_ligand_efficiency_ln>  (141) 
-0.680675

>  <r_i_glide_gscore>  (141) 
-3.25648

>  <r_i_glide_lipo>  (141) 
-0.566973

>  <r_i_glide_hbond>  (141) 
-0.326553

>  <r_i_glide_metal>  (141) 
-0

>  <r_i_glide_rewards>  (141) 
0

>  <r_i_glide_evdw>  (141) 
-19.655

>  <r_i_glide_ecoul>  (141) 
-8.86749

>  <r_i_glide_erotb>  (141) 
0.0519334

>  <r_i_glide_esite>  (141) 
-0.102011

>  <r_i_glide_emodel>  (141) 
-29.9471

>  <r_i_glide_energy>  (141) 
-28.5225

>  <r_i_glide_einternal>  (141) 
5.17466

>  <r_i_glide_intrahb_reward>  (141) 
-0

>  <i_i_glide_confnum>  (141) 
3

>  <i_i_glide_posenum>  (141) 
5

>  <r_i_glide_eff_state_penalty>  (141) 
0

>  <ligand_id>  (141) 
38

>  <original_smiles>  (141) 
CC1C2C3C(=O)C=C(C4C(C)(C)C5(C(=O)Nc6cccnc6)CCC5(C)C4(O)C1O)C2(C)CCC1C(C)(C)C(O)CCC31C

>  <smiles>  (141) 
[H]OC1([H])C([H])(C([H])([H])[H])C2([H])C3([H])C(=O)C([H])=C(C4([H])C1(O[H])C1(C([H])([H])[H])C([H])([H])C([H])([H])C1(C(=O)N([H])c1c([H])nc([H])c([H])c1[H])C4(C([H])([H])[H])C([H])([H])[H])C2(C([H])([H])[H])C([H])([H])C([H])([H])C1([H])C(C([H])([H])[H])(C([H])([H])[H])C([H])(O[H])C([H])([H])C([H])([H])C31C([H])([H])[H]

$$$$
38:0:1
     RDKit          3D

 96102  0  0  1  0  0  0  0  0999 V2000
    6.9513   -6.1739    3.3655 C   0  0  0  0  0  0  0  0  0  0  0  0
    5.5777   -5.4692    3.2467 C   0  0  2  0  0  0  0  0  0  0  0  0
    4.3608   -6.4771    3.0814 C   0  0  1  0  0  0  0  0  0  0  0  0
    3.1302   -6.0992    3.9959 C   0  0  1  0  0  0  0  0  0  0  0  0
    2.1017   -5.1880    3.2508 C   0  0  0  0  0  0  0  0  0  0  0  0
    1.0716   -4.7956    3.8037 O   0  0  0  0  0  0  0  0  0  0  0  0
    2.4442   -4.6968    1.9094 C   0  0  0  0  0  0  0  0  0  0  0  0
    3.3826   -5.3292    1.1621 C   0  0  0  0  0  0  0  0  0  0  0  0
    4.2520   -4.5476    0.1447 C   0  0  1  0  0  0  0  0  0  0  0  0
    3.6494   -3.3076   -0.7033 C   0  0  0  0  0  0  0  0  0  0  0  0
    3.8965   -3.4733   -2.2455 C   0  0  0  0  0  0  0  0  0  0  0  0
    2.1114   -3.2376   -0.7657 C   0  0  0  0  0  0  0  0  0  0  0  0
    4.4280   -2.0401   -0.1391 C   0  0  2  0  0  0  0  0  0  0  0  0
    3.7572   -1.2470    1.0954 C   0  0  0  0  0  0  0  0  0  0  0  0
    4.3558   -1.0386    2.1075 O   0  0  0  0  0  0  0  0  0  0  0  0
    2.5648   -0.6197    0.9019 N   0  0  0  0  0  0  0  0  0  0  0  0
    1.7449   -0.0750    1.9472 C   0  0  0  0  0  0  0  0  0  0  0  0
    0.7923    0.9334    1.6312 C   0  0  0  0  0  0  0  0  0  0  0  0
   -0.0410    1.4574    2.6240 C   0  0  0  0  0  0  0  0  0  0  0  0
    0.0283    0.9061    3.9142 C   0  0  0  0  0  0  0  0  0  0  0  0
    0.8206   -0.1400    4.2079 N   0  0  0  0  0  0  0  0  0  0  0  0
    1.6727   -0.6068    3.2495 C   0  0  0  0  0  0  0  0  0  0  0  0
    5.2300   -0.8850   -0.7799 C   0  0  0  0  0  0  0  0  0  0  0  0
    6.3918   -1.2847    0.2120 C   0  0  0  0  0  0  0  0  0  0  0  0
    5.8577   -2.7058    0.0213 C   0  0  2  0  0  0  0  0  0  0  0  0
    6.6941   -3.2014   -1.2391 C   0  0  0  0  0  0  0  0  0  0  0  0
    5.5659   -4.0054    0.8831 C   0  0  2  0  0  0  0  0  0  0  0  0
    6.7009   -4.8321    0.6863 O   0  0  0  0  0  0  0  0  0  0  0  0
    5.6089   -4.0622    2.4794 C   0  0  1  0  0  0  0  0  0  0  0  0
    4.7264   -3.2423    3.2270 O   0  0  0  0  0  0  0  0  0  0  0  0
    3.8861   -6.7278    1.6320 C   0  0  1  0  0  0  0  0  0  0  0  0
    4.9979   -7.3750    0.7561 C   0  0  0  0  0  0  0  0  0  0  0  0
    2.7628   -7.8166    1.4957 C   0  0  0  0  0  0  0  0  0  0  0  0
    1.7054   -8.1708    2.5445 C   0  0  0  0  0  0  0  0  0  0  0  0
    2.1337   -8.5401    3.9780 C   0  0  1  0  0  0  0  0  0  0  0  0
    2.8764   -9.9090    4.2266 C   0  0  0  0  0  0  0  0  0  0  0  0
    2.1004  -11.0466    3.5240 C   0  0  0  0  0  0  0  0  0  0  0  0
    4.3373   -9.9948    3.7248 C   0  0  0  0  0  0  0  0  0  0  0  0
    2.8147  -10.1560    5.7588 C   0  0  1  0  0  0  0  0  0  0  0  0
    3.4095  -11.3786    6.1215 O   0  0  0  0  0  0  0  0  0  0  0  0
    3.4282   -9.0448    6.6317 C   0  0  0  0  0  0  0  0  0  0  0  0
    3.6346   -7.7001    5.9078 C   0  0  0  0  0  0  0  0  0  0  0  0
    2.5587   -7.3068    4.8517 C   0  0  1  0  0  0  0  0  0  0  0  0
    1.3297   -6.8871    5.7142 C   0  0  0  0  0  0  0  0  0  0  0  0
    7.3107   -6.6209    2.4391 H   0  0  0  0  0  0  0  0  0  0  0  0
    6.9225   -6.9554    4.1259 H   0  0  0  0  0  0  0  0  0  0  0  0
    7.7187   -5.4648    3.6915 H   0  0  0  0  0  0  0  0  0  0  0  0
    5.5111   -5.1969    4.2988 H   0  0  0  0  0  0  0  0  0  0  0  0
    4.7383   -7.4335    3.4160 H   0  0  0  0  0  0  0  0  0  0  0  0
    3.4865   -5.4213    4.7641 H   0  0  0  0  0  0  0  0  0  0  0  0
    2.1031   -3.6914    1.7241 H   0  0  0  0  0  0  0  0  0  0  0  0
    4.5466   -5.2721   -0.6213 H   0  0  0  0  0  0  0  0  0  0  0  0
    3.9699   -2.5096   -2.7545 H   0  0  0  0  0  0  0  0  0  0  0  0
    3.0525   -3.9240   -2.7631 H   0  0  0  0  0  0  0  0  0  0  0  0
    4.7133   -4.1197   -2.5361 H   0  0  0  0  0  0  0  0  0  0  0  0
    1.8033   -2.6778   -1.6536 H   0  0  0  0  0  0  0  0  0  0  0  0
    1.6593   -2.6733    0.0437 H   0  0  0  0  0  0  0  0  0  0  0  0
    1.6384   -4.2143   -0.9155 H   0  0  0  0  0  0  0  0  0  0  0  0
    2.0773   -0.7226    0.0335 H   0  0  0  0  0  0  0  0  0  0  0  0
    0.6584    1.2459    0.6114 H   0  0  0  0  0  0  0  0  0  0  0  0
   -0.7204    2.2602    2.3825 H   0  0  0  0  0  0  0  0  0  0  0  0
   -0.5812    1.3182    4.7159 H   0  0  0  0  0  0  0  0  0  0  0  0
    2.2151   -1.4893    3.5710 H   0  0  0  0  0  0  0  0  0  0  0  0
    5.4307   -0.9998   -1.8483 H   0  0  0  0  0  0  0  0  0  0  0  0
    4.7858    0.0777   -0.5759 H   0  0  0  0  0  0  0  0  0  0  0  0
    7.3918   -1.1270   -0.1728 H   0  0  0  0  0  0  0  0  0  0  0  0
    6.3876   -0.8458    1.2047 H   0  0  0  0  0  0  0  0  0  0  0  0
    7.7731   -3.1995   -1.0345 H   0  0  0  0  0  0  0  0  0  0  0  0
    6.5805   -2.6442   -2.1613 H   0  0  0  0  0  0  0  0  0  0  0  0
    6.4236   -4.2041   -1.5339 H   0  0  0  0  0  0  0  0  0  0  0  0
    6.7637   -5.0051   -0.2451 H   0  0  0  0  0  0  0  0  0  0  0  0
    6.5694   -3.6424    2.5973 H   0  0  0  0  0  0  0  0  0  0  0  0
    3.8272   -3.4105    2.9745 H   0  0  0  0  0  0  0  0  0  0  0  0
    5.1950   -8.4145    1.0099 H   0  0  0  0  0  0  0  0  0  0  0  0
    5.9705   -6.9461    0.8554 H   0  0  0  0  0  0  0  0  0  0  0  0
    4.7152   -7.3689   -0.2947 H   0  0  0  0  0  0  0  0  0  0  0  0
    2.1369   -7.4408    0.6954 H   0  0  0  0  0  0  0  0  0  0  0  0
    3.1659   -8.7753    1.1642 H   0  0  0  0  0  0  0  0  0  0  0  0
    0.9461   -7.3944    2.5662 H   0  0  0  0  0  0  0  0  0  0  0  0
    1.1394   -8.9972    2.1268 H   0  0  0  0  0  0  0  0  0  0  0  0
    1.1505   -8.7981    4.3665 H   0  0  0  0  0  0  0  0  0  0  0  0
    2.4946  -12.0335    3.7716 H   0  0  0  0  0  0  0  0  0  0  0  0
    2.1746  -10.9490    2.4445 H   0  0  0  0  0  0  0  0  0  0  0  0
    1.0429  -11.0434    3.7902 H   0  0  0  0  0  0  0  0  0  0  0  0
    4.6983  -11.0257    3.7561 H   0  0  0  0  0  0  0  0  0  0  0  0
    5.0306   -9.4230    4.3306 H   0  0  0  0  0  0  0  0  0  0  0  0
    4.4409   -9.6693    2.6962 H   0  0  0  0  0  0  0  0  0  0  0  0
    1.7632  -10.2571    6.0363 H   0  0  0  0  0  0  0  0  0  0  0  0
    2.8306  -11.8481    6.7140 H   0  0  0  0  0  0  0  0  0  0  0  0
    2.8053   -8.9221    7.5240 H   0  0  0  0  0  0  0  0  0  0  0  0
    4.4006   -9.3595    7.0069 H   0  0  0  0  0  0  0  0  0  0  0  0
    3.6728   -6.9319    6.6701 H   0  0  0  0  0  0  0  0  0  0  0  0
    4.6412   -7.6831    5.4907 H   0  0  0  0  0  0  0  0  0  0  0  0
    1.0732   -7.6428    6.4592 H   0  0  0  0  0  0  0  0  0  0  0  0
    0.4254   -6.7491    5.1223 H   0  0  0  0  0  0  0  0  0  0  0  0
    1.5180   -5.9632    6.2614 H   0  0  0  0  0  0  0  0  0  0  0  0
  1  2  1  0
  1 45  1  0
  1 46  1  0
  1 47  1  0
  2 29  1  0
  2  3  1  0
  2 48  1  1
  3 31  1  0
  3  4  1  0
  3 49  1  1
  4 43  1  0
  4  5  1  0
  4 50  1  1
  5  6  2  0
  5  7  1  0
  7  8  2  0
  7 51  1  0
  8  9  1  0
  8 31  1  0
  9 27  1  0
  9 10  1  0
  9 52  1  6
 10 11  1  0
 10 12  1  0
 10 13  1  0
 11 53  1  0
 11 54  1  0
 11 55  1  0
 12 56  1  0
 12 57  1  0
 12 58  1  0
 13 25  1  0
 13 14  1  1
 13 23  1  0
 14 15  2  0
 14 16  1  0
 16 17  1  0
 16 59  1  0
 17 22  1  0
 17 18  2  0
 18 19  1  0
 18 60  1  0
 19 20  2  0
 19 61  1  0
 20 21  1  0
 20 62  1  0
 21 22  2  0
 22 63  1  0
 23 24  1  0
 23 64  1  0
 23 65  1  0
 24 25  1  0
 24 66  1  0
 24 67  1  0
 25 26  1  6
 25 27  1  0
 26 68  1  0
 26 69  1  0
 26 70  1  0
 27 28  1  6
 27 29  1  0
 28 71  1  0
 29 30  1  0
 29 72  1  1
 30 73  1  0
 31 32  1  6
 31 33  1  0
 32 74  1  0
 32 75  1  0
 32 76  1  0
 33 34  1  0
 33 77  1  0
 33 78  1  0
 34 35  1  0
 34 79  1  0
 34 80  1  0
 35 43  1  0
 35 36  1  0
 35 81  1  1
 36 37  1  0
 36 38  1  0
 36 39  1  0
 37 82  1  0
 37 83  1  0
 37 84  1  0
 38 85  1  0
 38 86  1  0
 38 87  1  0
 39 40  1  0
 39 41  1  0
 39 88  1  1
 40 89  1  0
 41 42  1  0
 41 90  1  0
 41 91  1  0
 42 43  1  0
 42 92  1  0
 42 93  1  0
 43 44  1  1
 44 94  1  0
 44 95  1  0
 44 96  1  0
M  END
>  <i_m_ct_stereo_status>  (142) 
1

>  <s_m_source_file>  (142) 
/var/tmp/pbs.5076255.sched01/tmpb5cfx69f/43pm4c6kpw.sdf

>  <i_m_source_file_index>  (142) 
13

>  <i_lp_mmshare_version>  (142) 
48012

>  <i_f3d_flags>  (142) 
0

>  <s_epik_input>  (142) 
W0NIMl0xW0NIMl1bQ0BIXShbT0hdKUMoW0NIM10pKFtDSDNdKVtDQEhdKFtDSDJdW0NIMl0yKVtDQF0xKFtDSDNdKVtDQEhdKEMoPU8pW0NIXT0zKVtDQEhdKFtDQEBIXShbQ0gzXSlbQ0BASF00W09IXSlbQ0BdMihbQ0gzXSlDM1tDQEBIXShDNShbQ0gzXSlbQ0gzXSlbQ0BAXTQoW09IXSlbQ0BdKFtDSDNdKShbQ0gyXVtDSDJdNilbQ0BdNTZDKD1PKVtOSF1jN1tjSF1bY0hdW2NIXW5bY0hdNw==

>  <s_epik_cmdline>  (142) 
J2VwaWtfcHl0aG9uJywgJy1waHQnLCAnMi4wJywgJy1waCcsICc3LjAnLCAnLXRuJywgJzgnLCAnLW1hJywgJzIwMCcsICctaW1hZScsICc8aW5maWxlLm1hZT4nLCAnLW9tYWUnLCAnPG91dGZpbGUubWFlPic=

>  <r_epik_Ionization_Penalty>  (142) 
0.0036216

>  <r_epik_Ionization_Penalty_Charging>  (142) 
0

>  <r_epik_Ionization_Penalty_Neutral>  (142) 
0.0036216

>  <r_epik_State_Penalty>  (142) 
0.00256807

>  <r_epik_Charging_Adjusted_Penalty>  (142) 
0.00256807

>  <i_epik_Tot_Q>  (142) 
0

>  <i_epik_Tot_abs_Q>  (142) 
0

>  <s_lp_Force_Field>  (142) 
OPLS3e

>  <r_lp_Energy>  (142) 
252.059

>  <b_lp_Chiralities_Consistent>  (142) 
1

>  <s_lp_Variant>  (142) 
38:0-1

>  <s_i_glide_gridfile>  (142) 
pfpi4k_grid

>  <i_i_glide_lignum>  (142) 
13

>  <i_i_glide_rotatable_bonds>  (142) 
6

>  <r_i_docking_score>  (142) 
-3.12159

>  <r_i_glide_ligand_efficiency>  (142) 
-0.0709452

>  <r_i_glide_ligand_efficiency_sa>  (142) 
-0.250461

>  <r_i_glide_ligand_efficiency_ln>  (142) 
-0.65248

>  <r_i_glide_gscore>  (142) 
-3.12159

>  <r_i_glide_lipo>  (142) 
-0.44621

>  <r_i_glide_hbond>  (142) 
-0.304

>  <r_i_glide_metal>  (142) 
-0

>  <r_i_glide_rewards>  (142) 
0

>  <r_i_glide_evdw>  (142) 
-22.9241

>  <r_i_glide_ecoul>  (142) 
-7.90192

>  <r_i_glide_erotb>  (142) 
0.0519334

>  <r_i_glide_esite>  (142) 
-0.091816

>  <r_i_glide_emodel>  (142) 
-31.4795

>  <r_i_glide_energy>  (142) 
-30.826

>  <r_i_glide_einternal>  (142) 
5.54862

>  <r_i_glide_intrahb_reward>  (142) 
-0

>  <i_i_glide_confnum>  (142) 
2

>  <i_i_glide_posenum>  (142) 
21

>  <r_i_glide_eff_state_penalty>  (142) 
0

>  <ligand_id>  (142) 
38

>  <original_smiles>  (142) 
CC1C2C3C(=O)C=C(C4C(C)(C)C5(C(=O)Nc6cccnc6)CCC5(C)C4(O)C1O)C2(C)CCC1C(C)(C)C(O)CCC31C

>  <smiles>  (142) 
[H]OC1([H])C([H])(C([H])([H])[H])C2([H])C3([H])C(=O)C([H])=C(C4([H])C1(O[H])C1(C([H])([H])[H])C([H])([H])C([H])([H])C1(C(=O)N([H])c1c([H])nc([H])c([H])c1[H])C4(C([H])([H])[H])C([H])([H])[H])C2(C([H])([H])[H])C([H])([H])C([H])([H])C1([H])C(C([H])([H])[H])(C([H])([H])[H])C([H])(O[H])C([H])([H])C([H])([H])C31C([H])([H])[H]

$$$$
38:0:2
     RDKit          3D

 96102  0  0  1  0  0  0  0  0999 V2000
    3.8852   -0.4338    0.5191 C   0  0  0  0  0  0  0  0  0  0  0  0
    3.1593   -1.5013    1.3794 C   0  0  2  0  0  0  0  0  0  0  0  0
    2.8642   -1.0069    2.8650 C   0  0  1  0  0  0  0  0  0  0  0  0
    1.3964   -1.3405    3.3481 C   0  0  1  0  0  0  0  0  0  0  0  0
    1.3195   -2.7069    4.0972 C   0  0  0  0  0  0  0  0  0  0  0  0
    0.2609   -3.1325    4.5601 O   0  0  0  0  0  0  0  0  0  0  0  0
    2.5306   -3.5292    4.1477 C   0  0  0  0  0  0  0  0  0  0  0  0
    3.7565   -2.9902    3.9524 C   0  0  0  0  0  0  0  0  0  0  0  0
    4.8799   -3.8389    3.3206 C   0  0  1  0  0  0  0  0  0  0  0  0
    5.0344   -5.4228    3.6593 C   0  0  0  0  0  0  0  0  0  0  0  0
    6.4829   -5.7325    4.1609 C   0  0  0  0  0  0  0  0  0  0  0  0
    4.2735   -5.9795    4.9049 C   0  0  0  0  0  0  0  0  0  0  0  0
    4.7452   -6.1103    2.2603 C   0  0  2  0  0  0  0  0  0  0  0  0
    3.2358   -6.5744    2.0514 C   0  0  0  0  0  0  0  0  0  0  0  0
    2.5842   -6.2040    1.0834 O   0  0  0  0  0  0  0  0  0  0  0  0
    2.7340   -7.5280    2.8617 N   0  0  0  0  0  0  0  0  0  0  0  0
    1.4419   -8.0981    2.7392 C   0  0  0  0  0  0  0  0  0  0  0  0
    1.2825   -9.4934    2.7702 C   0  0  0  0  0  0  0  0  0  0  0  0
   -0.0094  -10.0279    2.6475 C   0  0  0  0  0  0  0  0  0  0  0  0
   -1.1122   -9.1650    2.5150 C   0  0  0  0  0  0  0  0  0  0  0  0
   -0.9708   -7.8185    2.4777 N   0  0  0  0  0  0  0  0  0  0  0  0
    0.2763   -7.3165    2.5808 C   0  0  0  0  0  0  0  0  0  0  0  0
    5.4766   -7.1270    1.3502 C   0  0  0  0  0  0  0  0  0  0  0  0
    5.2695   -6.0686    0.2073 C   0  0  0  0  0  0  0  0  0  0  0  0
    5.4632   -5.0530    1.3174 C   0  0  2  0  0  0  0  0  0  0  0  0
    7.0538   -4.8376    1.3093 C   0  0  0  0  0  0  0  0  0  0  0  0
    4.8508   -3.6669    1.7259 C   0  0  2  0  0  0  0  0  0  0  0  0
    5.7548   -2.6889    1.2413 O   0  0  0  0  0  0  0  0  0  0  0  0
    3.5692   -3.0168    1.0428 C   0  0  1  0  0  0  0  0  0  0  0  0
    2.4079   -3.7592    1.2701 O   0  0  0  0  0  0  0  0  0  0  0  0
    3.8910   -1.4348    3.9379 C   0  0  1  0  0  0  0  0  0  0  0  0
    5.2924   -0.8367    3.6307 C   0  0  0  0  0  0  0  0  0  0  0  0
    3.6803   -0.8321    5.3813 C   0  0  0  0  0  0  0  0  0  0  0  0
    2.3127   -0.4430    5.9751 C   0  0  0  0  0  0  0  0  0  0  0  0
    1.3872    0.5387    5.2083 C   0  0  1  0  0  0  0  0  0  0  0  0
    1.8050    2.0606    5.0787 C   0  0  0  0  0  0  0  0  0  0  0  0
    2.2252    2.5887    6.4721 C   0  0  0  0  0  0  0  0  0  0  0  0
    2.9765    2.3630    4.1143 C   0  0  0  0  0  0  0  0  0  0  0  0
    0.5270    2.8308    4.6308 C   0  0  1  0  0  0  0  0  0  0  0  0
    0.7280    4.2300    4.5170 O   0  0  0  0  0  0  0  0  0  0  0  0
   -0.1101    2.3256    3.3170 C   0  0  0  0  0  0  0  0  0  0  0  0
    0.3425    0.9250    2.8651 C   0  0  0  0  0  0  0  0  0  0  0  0
    0.6217   -0.1146    3.9961 C   0  0  1  0  0  0  0  0  0  0  0  0
   -0.8054   -0.4966    4.4897 C   0  0  0  0  0  0  0  0  0  0  0  0
    4.9340   -0.2647    0.7736 H   0  0  0  0  0  0  0  0  0  0  0  0
    3.3738    0.5252    0.5952 H   0  0  0  0  0  0  0  0  0  0  0  0
    3.8482   -0.7251   -0.5347 H   0  0  0  0  0  0  0  0  0  0  0  0
    2.1871   -1.3850    0.9049 H   0  0  0  0  0  0  0  0  0  0  0  0
    2.9470    0.0727    2.8321 H   0  0  0  0  0  0  0  0  0  0  0  0
    0.8047   -1.5550    2.4692 H   0  0  0  0  0  0  0  0  0  0  0  0
    2.3213   -4.5792    4.0654 H   0  0  0  0  0  0  0  0  0  0  0  0
    5.8058   -3.3830    3.6738 H   0  0  0  0  0  0  0  0  0  0  0  0
    6.7875   -6.7601    3.9217 H   0  0  0  0  0  0  0  0  0  0  0  0
    6.5818   -5.6183    5.2439 H   0  0  0  0  0  0  0  0  0  0  0  0
    7.2497   -5.0837    3.7809 H   0  0  0  0  0  0  0  0  0  0  0  0
    4.6835   -6.9576    5.1903 H   0  0  0  0  0  0  0  0  0  0  0  0
    3.2090   -6.1628    4.8145 H   0  0  0  0  0  0  0  0  0  0  0  0
    4.3992   -5.3220    5.7687 H   0  0  0  0  0  0  0  0  0  0  0  0
    3.3163   -7.9082    3.5946 H   0  0  0  0  0  0  0  0  0  0  0  0
    2.1500  -10.1143    2.8656 H   0  0  0  0  0  0  0  0  0  0  0  0
   -0.1451  -11.0971    2.6492 H   0  0  0  0  0  0  0  0  0  0  0  0
   -2.1098   -9.5775    2.3937 H   0  0  0  0  0  0  0  0  0  0  0  0
    0.2844   -6.2346    2.5591 H   0  0  0  0  0  0  0  0  0  0  0  0
    6.4999   -7.3544    1.6369 H   0  0  0  0  0  0  0  0  0  0  0  0
    4.9414   -8.0560    1.1667 H   0  0  0  0  0  0  0  0  0  0  0  0
    6.0775   -6.0235   -0.4965 H   0  0  0  0  0  0  0  0  0  0  0  0
    4.3383   -6.1082   -0.3563 H   0  0  0  0  0  0  0  0  0  0  0  0
    7.3992   -4.4731    0.3327 H   0  0  0  0  0  0  0  0  0  0  0  0
    7.6639   -5.7051    1.5294 H   0  0  0  0  0  0  0  0  0  0  0  0
    7.4110   -4.0969    2.0148 H   0  0  0  0  0  0  0  0  0  0  0  0
    5.3853   -1.8430    1.4480 H   0  0  0  0  0  0  0  0  0  0  0  0
    3.7744   -3.0108   -0.0384 H   0  0  0  0  0  0  0  0  0  0  0  0
    2.4945   -4.6216    0.8155 H   0  0  0  0  0  0  0  0  0  0  0  0
    5.3567    0.2361    3.8045 H   0  0  0  0  0  0  0  0  0  0  0  0
    5.6702   -0.9207    2.6306 H   0  0  0  0  0  0  0  0  0  0  0  0
    5.9901   -1.2776    4.3243 H   0  0  0  0  0  0  0  0  0  0  0  0
    4.1408   -1.5347    6.0742 H   0  0  0  0  0  0  0  0  0  0  0  0
    4.2884    0.0524    5.5389 H   0  0  0  0  0  0  0  0  0  0  0  0
    1.7549   -1.3345    6.2486 H   0  0  0  0  0  0  0  0  0  0  0  0
    2.5163   -0.0119    6.9501 H   0  0  0  0  0  0  0  0  0  0  0  0
    0.6104    0.6381    5.9605 H   0  0  0  0  0  0  0  0  0  0  0  0
    2.3957    3.6652    6.4618 H   0  0  0  0  0  0  0  0  0  0  0  0
    3.1522    2.1264    6.8093 H   0  0  0  0  0  0  0  0  0  0  0  0
    1.4566    2.3898    7.2224 H   0  0  0  0  0  0  0  0  0  0  0  0
    3.3320    3.3892    4.2430 H   0  0  0  0  0  0  0  0  0  0  0  0
    2.7097    2.2694    3.0682 H   0  0  0  0  0  0  0  0  0  0  0  0
    3.8314    1.7245    4.2994 H   0  0  0  0  0  0  0  0  0  0  0  0
   -0.2212    2.7026    5.4185 H   0  0  0  0  0  0  0  0  0  0  0  0
    1.1767    4.4004    3.7000 H   0  0  0  0  0  0  0  0  0  0  0  0
   -1.2006    2.3687    3.4108 H   0  0  0  0  0  0  0  0  0  0  0  0
    0.1237    2.9875    2.4936 H   0  0  0  0  0  0  0  0  0  0  0  0
   -0.4236    0.5402    2.2032 H   0  0  0  0  0  0  0  0  0  0  0  0
    1.1991    1.0432    2.1984 H   0  0  0  0  0  0  0  0  0  0  0  0
   -1.4199    0.3795    4.7212 H   0  0  0  0  0  0  0  0  0  0  0  0
   -0.7921   -1.0953    5.3991 H   0  0  0  0  0  0  0  0  0  0  0  0
   -1.3498   -1.0513    3.7275 H   0  0  0  0  0  0  0  0  0  0  0  0
  1  2  1  0
  1 45  1  0
  1 46  1  0
  1 47  1  0
  2 29  1  0
  2  3  1  0
  2 48  1  6
  3 31  1  0
  3  4  1  0
  3 49  1  6
  4 43  1  0
  4  5  1  0
  4 50  1  6
  5  6  2  0
  5  7  1  0
  7  8  2  0
  7 51  1  0
  8  9  1  0
  8 31  1  0
  9 27  1  0
  9 10  1  0
  9 52  1  1
 10 11  1  0
 10 12  1  0
 10 13  1  0
 11 53  1  0
 11 54  1  0
 11 55  1  0
 12 56  1  0
 12 57  1  0
 12 58  1  0
 13 25  1  0
 13 14  1  6
 13 23  1  0
 14 15  2  0
 14 16  1  0
 16 17  1  0
 16 59  1  0
 17 22  1  0
 17 18  2  0
 18 19  1  0
 18 60  1  0
 19 20  2  0
 19 61  1  0
 20 21  1  0
 20 62  1  0
 21 22  2  0
 22 63  1  0
 23 24  1  0
 23 64  1  0
 23 65  1  0
 24 25  1  0
 24 66  1  0
 24 67  1  0
 25 26  1  1
 25 27  1  0
 26 68  1  0
 26 69  1  0
 26 70  1  0
 27 28  1  1
 27 29  1  0
 28 71  1  0
 29 30  1  0
 29 72  1  6
 30 73  1  0
 31 32  1  6
 31 33  1  0
 32 74  1  0
 32 75  1  0
 32 76  1  0
 33 34  1  0
 33 77  1  0
 33 78  1  0
 34 35  1  0
 34 79  1  0
 34 80  1  0
 35 43  1  0
 35 36  1  0
 35 81  1  1
 36 37  1  0
 36 38  1  0
 36 39  1  0
 37 82  1  0
 37 83  1  0
 37 84  1  0
 38 85  1  0
 38 86  1  0
 38 87  1  0
 39 40  1  0
 39 41  1  0
 39 88  1  1
 40 89  1  0
 41 42  1  0
 41 90  1  0
 41 91  1  0
 42 43  1  0
 42 92  1  0
 42 93  1  0
 43 44  1  1
 44 94  1  0
 44 95  1  0
 44 96  1  0
M  END
>  <i_m_ct_stereo_status>  (143) 
1

>  <s_m_source_file>  (143) 
/var/tmp/pbs.5076255.sched01/tmpb5cfx69f/43pm4c6kpw.sdf

>  <i_m_source_file_index>  (143) 
13

>  <i_lp_mmshare_version>  (143) 
48012

>  <i_f3d_flags>  (143) 
0

>  <s_epik_input>  (143) 
W0NIMl0xW0NIMl1bQ0BIXShbT0hdKUMoW0NIM10pKFtDSDNdKVtDQEhdKFtDSDJdW0NIMl0yKVtDQF0xKFtDSDNdKVtDQEhdKEMoPU8pW0NIXT0zKVtDQEhdKFtDQEBIXShbQ0gzXSlbQ0BASF00W09IXSlbQ0BdMihbQ0gzXSlDM1tDQEBIXShDNShbQ0gzXSlbQ0gzXSlbQ0BAXTQoW09IXSlbQ0BdKFtDSDNdKShbQ0gyXVtDSDJdNilbQ0BdNTZDKD1PKVtOSF1jN1tjSF1bY0hdW2NIXW5bY0hdNw==

>  <s_epik_cmdline>  (143) 
J2VwaWtfcHl0aG9uJywgJy1waHQnLCAnMi4wJywgJy1waCcsICc3LjAnLCAnLXRuJywgJzgnLCAnLW1hJywgJzIwMCcsICctaW1hZScsICc8aW5maWxlLm1hZT4nLCAnLW9tYWUnLCAnPG91dGZpbGUubWFlPic=

>  <r_epik_Ionization_Penalty>  (143) 
0.0036216

>  <r_epik_Ionization_Penalty_Charging>  (143) 
0

>  <r_epik_Ionization_Penalty_Neutral>  (143) 
0.0036216

>  <r_epik_State_Penalty>  (143) 
0.00256807

>  <r_epik_Charging_Adjusted_Penalty>  (143) 
0.00256807

>  <i_epik_Tot_Q>  (143) 
0

>  <i_epik_Tot_abs_Q>  (143) 
0

>  <s_lp_Force_Field>  (143) 
OPLS3e

>  <r_lp_Energy>  (143) 
252.059

>  <b_lp_Chiralities_Consistent>  (143) 
1

>  <s_lp_Variant>  (143) 
38:0-1

>  <s_i_glide_gridfile>  (143) 
pfpi4k_grid

>  <i_i_glide_lignum>  (143) 
13

>  <i_i_glide_rotatable_bonds>  (143) 
6

>  <r_i_docking_score>  (143) 
-2.91335

>  <r_i_glide_ligand_efficiency>  (143) 
-0.0662124

>  <r_i_glide_ligand_efficiency_sa>  (143) 
-0.233753

>  <r_i_glide_ligand_efficiency_ln>  (143) 
-0.608953

>  <r_i_glide_gscore>  (143) 
-2.91335

>  <r_i_glide_lipo>  (143) 
-0.829652

>  <r_i_glide_hbond>  (143) 
0

>  <r_i_glide_metal>  (143) 
-0

>  <r_i_glide_rewards>  (143) 
-0.554589

>  <r_i_glide_evdw>  (143) 
-28.0874

>  <r_i_glide_ecoul>  (143) 
-1.1549

>  <r_i_glide_erotb>  (143) 
0.0519334

>  <r_i_glide_esite>  (143) 
-0.00343275

>  <r_i_glide_emodel>  (143) 
-36.0031

>  <r_i_glide_energy>  (143) 
-29.2423

>  <r_i_glide_einternal>  (143) 
6.63962

>  <r_i_glide_intrahb_reward>  (143) 
-0.5

>  <i_i_glide_confnum>  (143) 
2

>  <i_i_glide_posenum>  (143) 
36

>  <r_i_glide_eff_state_penalty>  (143) 
0

>  <ligand_id>  (143) 
38

>  <original_smiles>  (143) 
CC1C2C3C(=O)C=C(C4C(C)(C)C5(C(=O)Nc6cccnc6)CCC5(C)C4(O)C1O)C2(C)CCC1C(C)(C)C(O)CCC31C

>  <smiles>  (143) 
[H]OC1([H])C([H])(C([H])([H])[H])C2([H])C3([H])C(=O)C([H])=C(C4([H])C1(O[H])C1(C([H])([H])[H])C([H])([H])C([H])([H])C1(C(=O)N([H])c1c([H])nc([H])c([H])c1[H])C4(C([H])([H])[H])C([H])([H])[H])C2(C([H])([H])[H])C([H])([H])C([H])([H])C1([H])C(C([H])([H])[H])(C([H])([H])[H])C([H])(O[H])C([H])([H])C([H])([H])C31C([H])([H])[H]

$$$$
40:0:0
     RDKit          3D

 47 54  0  0  1  0  0  0  0  0999 V2000
    3.6673   -3.5692    6.9970 C   0  0  0  0  0  0  0  0  0  0  0  0
    4.0220   -4.7557    6.0901 C   0  0  2  0  0  0  0  0  0  0  0  0
    5.4239   -5.0044    6.2210 O   0  0  0  0  0  0  0  0  0  0  0  0
    5.7900   -5.0880    4.8436 C   0  0  1  0  0  0  0  0  0  0  0  0
    4.7050   -5.7283    4.1793 O   0  0  0  0  0  0  0  0  0  0  0  0
    4.0385   -4.5002    4.5721 C   0  0  1  0  0  0  0  0  0  0  0  0
    2.7039   -4.3315    3.7808 C   0  0  2  0  0  0  0  0  0  0  0  0
    2.5060   -5.1675    2.5269 C   0  0  0  0  0  0  0  0  0  0  0  0
    2.4575   -3.6729    2.3754 C   0  0  2  0  0  0  0  0  0  0  0  0
    3.4301   -2.7400    1.5515 C   0  0  1  0  0  0  0  0  0  0  0  0
    4.5196   -2.1080    2.3732 C   0  0  1  0  0  0  0  0  0  0  0  0
    5.4030   -3.2905    2.7667 C   0  0  2  0  0  0  0  0  0  0  0  0
    5.3330   -3.7616    4.2146 C   0  0  2  0  0  0  0  0  0  0  0  0
    5.9168   -3.7988    1.4058 C   0  0  1  0  0  0  0  0  0  0  0  0
    6.0318   -5.2942    1.0319 C   0  0  0  0  0  0  0  0  0  0  0  0
    4.7773   -3.0128    0.6906 C   0  0  1  0  0  0  0  0  0  0  0  0
    4.6960   -2.8271   -0.7894 C   0  0  0  0  0  0  0  0  0  0  0  0
    4.6427   -3.8006   -1.7933 C   0  0  0  0  0  0  0  0  0  0  0  0
    4.4174   -3.3819   -3.1219 C   0  0  0  0  0  0  0  0  0  0  0  0
    4.2348   -2.0042   -3.4195 C   0  0  0  0  0  0  0  0  0  0  0  0
    4.3045   -1.0354   -2.3976 C   0  0  0  0  0  0  0  0  0  0  0  0
    4.4990   -1.4623   -1.0717 C   0  0  0  0  0  0  0  0  0  0  0  0
    4.5185   -0.6541    0.0814 N   0  0  0  0  0  0  0  0  0  0  0  0
    5.1176   -1.5663    1.0657 C   0  0  1  0  0  0  0  0  0  0  0  0
    2.6003   -3.3434    6.9635 H   0  0  0  0  0  0  0  0  0  0  0  0
    4.2202   -2.6665    6.7278 H   0  0  0  0  0  0  0  0  0  0  0  0
    3.9299   -3.7967    8.0321 H   0  0  0  0  0  0  0  0  0  0  0  0
    3.4642   -5.6533    6.3557 H   0  0  0  0  0  0  0  0  0  0  0  0
    6.7850   -5.4273    4.5691 H   0  0  0  0  0  0  0  0  0  0  0  0
    1.8520   -4.2864    4.4488 H   0  0  0  0  0  0  0  0  0  0  0  0
    3.3541   -5.7114    2.1332 H   0  0  0  0  0  0  0  0  0  0  0  0
    1.5633   -5.7005    2.4471 H   0  0  0  0  0  0  0  0  0  0  0  0
    1.4402   -3.3173    2.2564 H   0  0  0  0  0  0  0  0  0  0  0  0
    2.8080   -1.9843    1.0741 H   0  0  0  0  0  0  0  0  0  0  0  0
    4.2024   -1.3807    3.1217 H   0  0  0  0  0  0  0  0  0  0  0  0
    4.8294   -4.1634    2.5587 H   0  0  0  0  0  0  0  0  0  0  0  0
    5.5195   -2.9451    4.9057 H   0  0  0  0  0  0  0  0  0  0  0  0
    6.9018   -3.3517    1.2357 H   0  0  0  0  0  0  0  0  0  0  0  0
    5.0643   -5.7604    0.8777 H   0  0  0  0  0  0  0  0  0  0  0  0
    6.5814   -5.8495    1.7877 H   0  0  0  0  0  0  0  0  0  0  0  0
    6.5670   -5.3779    0.0886 H   0  0  0  0  0  0  0  0  0  0  0  0
    4.7164   -4.8512   -1.5451 H   0  0  0  0  0  0  0  0  0  0  0  0
    4.3301   -4.1181   -3.9043 H   0  0  0  0  0  0  0  0  0  0  0  0
    4.0259   -1.7010   -4.4300 H   0  0  0  0  0  0  0  0  0  0  0  0
    4.1524    0.0194   -2.6270 H   0  0  0  0  0  0  0  0  0  0  0  0
    4.9549    0.2568   -0.0625 H   0  0  0  0  0  0  0  0  0  0  0  0
    6.1754   -1.3589    1.1805 H   0  0  0  0  0  0  0  0  0  0  0  0
  1  2  1  0
  1 25  1  0
  1 26  1  0
  1 27  1  0
  2  6  1  0
  2  3  1  0
  2 28  1  6
  3  4  1  0
  4 13  1  0
  4  5  1  0
  4 29  1  1
  6  5  1  6
  6 13  1  0
  6  7  1  0
  7  9  1  0
  7  8  1  0
  7 30  1  1
  8  9  1  0
  8 31  1  0
  8 32  1  0
  9 10  1  0
  9 33  1  1
 10 16  1  0
 10 11  1  0
 10 34  1  6
 11 24  1  0
 11 12  1  0
 11 35  1  1
 12 13  1  0
 12 14  1  0
 12 36  1  1
 13 37  1  1
 14 15  1  0
 14 16  1  0
 14 38  1  6
 15 39  1  0
 15 40  1  0
 15 41  1  0
 16 24  1  0
 16 17  1  6
 17 22  2  0
 17 18  1  0
 18 19  2  0
 18 42  1  0
 19 20  1  0
 19 43  1  0
 20 21  2  0
 20 44  1  0
 21 22  1  0
 21 45  1  0
 22 23  1  0
 23 24  1  0
 23 46  1  0
 24 47  1  1
M  END
>  <i_m_ct_stereo_status>  (144) 
1

>  <s_m_source_file>  (144) 
/var/tmp/pbs.5076255.sched01/tmpb5cfx69f/43pm4c6kpw.sdf

>  <i_m_source_file_index>  (144) 
15

>  <i_lp_mmshare_version>  (144) 
48012

>  <i_f3d_flags>  (144) 
0

>  <s_epik_input>  (144) 
W0NIM11bQ0BASF0xT1tDQEBIXShPMilbQ0BIXTNbQ0BIXShbQ0BIXTRbQ0gzXSlbQ0BIXTVbQ0BASF02W05IXWMoW2NIXVtjSF1bY0hdW2NIXTcpYzdbQ0BAXTQ2W0NASF01W0NASF0oW0NAQEhdOFtDQEBdMTIzKVtDSDJdOA==

>  <s_epik_cmdline>  (144) 
J2VwaWtfcHl0aG9uJywgJy1waHQnLCAnMi4wJywgJy1waCcsICc3LjAnLCAnLXRuJywgJzgnLCAnLW1hJywgJzIwMCcsICctaW1hZScsICc8aW5maWxlLm1hZT4nLCAnLW9tYWUnLCAnPG91dGZpbGUubWFlPic=

>  <r_epik_Ionization_Penalty>  (144) 
0.212103

>  <r_epik_Ionization_Penalty_Charging>  (144) 
0

>  <r_epik_Ionization_Penalty_Neutral>  (144) 
0.212103

>  <r_epik_State_Penalty>  (144) 
0.202219

>  <r_epik_Charging_Adjusted_Penalty>  (144) 
0.202219

>  <i_epik_Tot_Q>  (144) 
0

>  <i_epik_Tot_abs_Q>  (144) 
0

>  <s_epik_Chemistry_Notes>  (144) 
This compound contains an acetal/aminal-like group ( X-CH(R)-Y where X, Y are N, S, or O) that may be acid/base labile, releasing an aldehyde.

>  <s_lp_Force_Field>  (144) 
OPLS3e

>  <r_lp_Energy>  (144) 
163.677

>  <b_lp_Chiralities_Consistent>  (144) 
1

>  <s_lp_Variant>  (144) 
40:0-1

>  <s_i_glide_gridfile>  (144) 
pfpi4k_grid

>  <i_i_glide_lignum>  (144) 
15

>  <i_i_glide_rotatable_bonds>  (144) 
0

>  <r_i_docking_score>  (144) 
-3.31757

>  <r_i_glide_ligand_efficiency>  (144) 
-0.138232

>  <r_i_glide_ligand_efficiency_sa>  (144) 
-0.398731

>  <r_i_glide_ligand_efficiency_ln>  (144) 
-0.794047

>  <r_i_glide_gscore>  (144) 
-3.31757

>  <r_i_glide_lipo>  (144) 
-0.608614

>  <r_i_glide_hbond>  (144) 
-0.264898

>  <r_i_glide_metal>  (144) 
-0

>  <r_i_glide_rewards>  (144) 
-1.21874

>  <r_i_glide_evdw>  (144) 
-22.2051

>  <r_i_glide_ecoul>  (144) 
-0.767079

>  <r_i_glide_erotb>  (144) 
0

>  <r_i_glide_esite>  (144) 
0

>  <r_i_glide_emodel>  (144) 
-26.8905

>  <r_i_glide_energy>  (144) 
-22.9722

>  <r_i_glide_einternal>  (144) 
0

>  <r_i_glide_intrahb_reward>  (144) 
-0

>  <i_i_glide_confnum>  (144) 
2

>  <i_i_glide_posenum>  (144) 
13

>  <r_i_glide_eff_state_penalty>  (144) 
0

>  <ligand_id>  (144) 
40

>  <original_smiles>  (144) 
CC1OC2OC13C1CC1C1C4C(C23)C(C)C12c1ccccc1NC42

>  <smiles>  (144) 
[H]c1c([H])c([H])c2c(c1[H])N([H])C1([H])C3([H])C4([H])C5([H])C6([H])OC([H])(C([H])([H])[H])C5(O6)C5([H])C([H])([H])C5([H])C3([H])C21C4([H])C([H])([H])[H]

$$$$
40:0:1
     RDKit          3D

 47 54  0  0  1  0  0  0  0  0999 V2000
    4.0491   -7.6507    6.0708 C   0  0  0  0  0  0  0  0  0  0  0  0
    5.3369   -7.6006    5.2343 C   0  0  2  0  0  0  0  0  0  0  0  0
    6.2224   -6.6548    5.8399 O   0  0  0  0  0  0  0  0  0  0  0  0
    6.5921   -5.8858    4.7007 C   0  0  1  0  0  0  0  0  0  0  0  0
    6.6926   -6.8164    3.6282 O   0  0  0  0  0  0  0  0  0  0  0  0
    5.2648   -6.9045    3.8679 C   0  0  1  0  0  0  0  0  0  0  0  0
    4.5462   -7.5919    2.6641 C   0  0  2  0  0  0  0  0  0  0  0  0
    5.2970   -7.6872    1.3420 C   0  0  0  0  0  0  0  0  0  0  0  0
    3.9857   -6.9561    1.3329 C   0  0  2  0  0  0  0  0  0  0  0  0
    3.7140   -5.4291    1.0353 C   0  0  1  0  0  0  0  0  0  0  0  0
    3.6063   -4.5671    2.2593 C   0  0  1  0  0  0  0  0  0  0  0  0
    5.0264   -4.5723    2.8235 C   0  0  2  0  0  0  0  0  0  0  0  0
    5.2667   -5.3853    4.0905 C   0  0  2  0  0  0  0  0  0  0  0  0
    5.8421   -3.8999    1.7003 C   0  0  1  0  0  0  0  0  0  0  0  0
    7.2338   -4.3882    1.2321 C   0  0  0  0  0  0  0  0  0  0  0  0
    4.6767   -4.1640    0.7056 C   0  0  1  0  0  0  0  0  0  0  0  0
    4.6007   -3.5867   -0.6707 C   0  0  0  0  0  0  0  0  0  0  0  0
    5.5189   -3.7085   -1.7176 C   0  0  0  0  0  0  0  0  0  0  0  0
    5.1699   -3.2164   -2.9925 C   0  0  0  0  0  0  0  0  0  0  0  0
    3.9220   -2.5852   -3.1930 C   0  0  0  0  0  0  0  0  0  0  0  0
    3.0178   -2.4529   -2.1284 C   0  0  0  0  0  0  0  0  0  0  0  0
    3.3557   -2.9897   -0.8689 C   0  0  0  0  0  0  0  0  0  0  0  0
    2.5604   -3.0150    0.2855 N   0  0  0  0  0  0  0  0  0  0  0  0
    3.5451   -3.3422    1.3320 C   0  0  1  0  0  0  0  0  0  0  0  0
    3.3446   -8.3814    5.6724 H   0  0  0  0  0  0  0  0  0  0  0  0
    3.5529   -6.6807    6.1179 H   0  0  0  0  0  0  0  0  0  0  0  0
    4.2788   -7.9354    7.1007 H   0  0  0  0  0  0  0  0  0  0  0  0
    5.8254   -8.5740    5.1844 H   0  0  0  0  0  0  0  0  0  0  0  0
    7.3998   -5.1619    4.7975 H   0  0  0  0  0  0  0  0  0  0  0  0
    4.0322   -8.5003    2.9701 H   0  0  0  0  0  0  0  0  0  0  0  0
    6.2178   -7.1290    1.2325 H   0  0  0  0  0  0  0  0  0  0  0  0
    5.3174   -8.6644    0.8619 H   0  0  0  0  0  0  0  0  0  0  0  0
    3.1932   -7.5595    0.8950 H   0  0  0  0  0  0  0  0  0  0  0  0
    2.8033   -5.3936    0.4372 H   0  0  0  0  0  0  0  0  0  0  0  0
    2.7600   -4.7466    2.9167 H   0  0  0  0  0  0  0  0  0  0  0  0
    5.5361   -5.3691    2.3340 H   0  0  0  0  0  0  0  0  0  0  0  0
    4.5803   -5.0949    4.8830 H   0  0  0  0  0  0  0  0  0  0  0  0
    5.9444   -2.8419    1.9510 H   0  0  0  0  0  0  0  0  0  0  0  0
    7.1880   -5.3253    0.6845 H   0  0  0  0  0  0  0  0  0  0  0  0
    7.9182   -4.5066    2.0700 H   0  0  0  0  0  0  0  0  0  0  0  0
    7.6528   -3.6486    0.5496 H   0  0  0  0  0  0  0  0  0  0  0  0
    6.4446   -4.2266   -1.5449 H   0  0  0  0  0  0  0  0  0  0  0  0
    5.8453   -3.3644   -3.8171 H   0  0  0  0  0  0  0  0  0  0  0  0
    3.6458   -2.2278   -4.1688 H   0  0  0  0  0  0  0  0  0  0  0  0
    2.0584   -1.9862   -2.3094 H   0  0  0  0  0  0  0  0  0  0  0  0
    2.0360   -2.1529    0.3977 H   0  0  0  0  0  0  0  0  0  0  0  0
    3.8652   -2.4385    1.8451 H   0  0  0  0  0  0  0  0  0  0  0  0
  1  2  1  0
  1 25  1  0
  1 26  1  0
  1 27  1  0
  2  6  1  0
  2  3  1  0
  2 28  1  6
  3  4  1  0
  4 13  1  0
  4  5  1  0
  4 29  1  1
  6  5  1  6
  6 13  1  0
  6  7  1  0
  7  9  1  0
  7  8  1  0
  7 30  1  1
  8  9  1  0
  8 31  1  0
  8 32  1  0
  9 10  1  0
  9 33  1  6
 10 16  1  0
 10 11  1  0
 10 34  1  6
 11 24  1  0
 11 12  1  0
 11 35  1  1
 12 13  1  0
 12 14  1  0
 12 36  1  1
 13 37  1  1
 14 15  1  0
 14 16  1  0
 14 38  1  1
 15 39  1  0
 15 40  1  0
 15 41  1  0
 16 24  1  0
 16 17  1  6
 17 22  2  0
 17 18  1  0
 18 19  2  0
 18 42  1  0
 19 20  1  0
 19 43  1  0
 20 21  2  0
 20 44  1  0
 21 22  1  0
 21 45  1  0
 22 23  1  0
 23 24  1  0
 23 46  1  0
 24 47  1  1
M  END
>  <i_m_ct_stereo_status>  (145) 
1

>  <s_m_source_file>  (145) 
/var/tmp/pbs.5076255.sched01/tmpb5cfx69f/43pm4c6kpw.sdf

>  <i_m_source_file_index>  (145) 
15

>  <i_lp_mmshare_version>  (145) 
48012

>  <i_f3d_flags>  (145) 
0

>  <s_epik_input>  (145) 
W0NIM11bQ0BASF0xT1tDQEBIXShPMilbQ0BIXTNbQ0BIXShbQ0BIXTRbQ0gzXSlbQ0BIXTVbQ0BASF02W05IXWMoW2NIXVtjSF1bY0hdW2NIXTcpYzdbQ0BAXTQ2W0NASF01W0NASF0oW0NAQEhdOFtDQEBdMTIzKVtDSDJdOA==

>  <s_epik_cmdline>  (145) 
J2VwaWtfcHl0aG9uJywgJy1waHQnLCAnMi4wJywgJy1waCcsICc3LjAnLCAnLXRuJywgJzgnLCAnLW1hJywgJzIwMCcsICctaW1hZScsICc8aW5maWxlLm1hZT4nLCAnLW9tYWUnLCAnPG91dGZpbGUubWFlPic=

>  <r_epik_Ionization_Penalty>  (145) 
0.212103

>  <r_epik_Ionization_Penalty_Charging>  (145) 
0

>  <r_epik_Ionization_Penalty_Neutral>  (145) 
0.212103

>  <r_epik_State_Penalty>  (145) 
0.202219

>  <r_epik_Charging_Adjusted_Penalty>  (145) 
0.202219

>  <i_epik_Tot_Q>  (145) 
0

>  <i_epik_Tot_abs_Q>  (145) 
0

>  <s_epik_Chemistry_Notes>  (145) 
This compound contains an acetal/aminal-like group ( X-CH(R)-Y where X, Y are N, S, or O) that may be acid/base labile, releasing an aldehyde.

>  <s_lp_Force_Field>  (145) 
OPLS3e

>  <r_lp_Energy>  (145) 
163.677

>  <b_lp_Chiralities_Consistent>  (145) 
1

>  <s_lp_Variant>  (145) 
40:0-1

>  <s_i_glide_gridfile>  (145) 
pfpi4k_grid

>  <i_i_glide_lignum>  (145) 
15

>  <i_i_glide_rotatable_bonds>  (145) 
0

>  <r_i_docking_score>  (145) 
-3.21974

>  <r_i_glide_ligand_efficiency>  (145) 
-0.134156

>  <r_i_glide_ligand_efficiency_sa>  (145) 
-0.386972

>  <r_i_glide_ligand_efficiency_ln>  (145) 
-0.770632

>  <r_i_glide_gscore>  (145) 
-3.21974

>  <r_i_glide_lipo>  (145) 
-0.862767

>  <r_i_glide_hbond>  (145) 
-0.0918198

>  <r_i_glide_metal>  (145) 
-0

>  <r_i_glide_rewards>  (145) 
-1.22003

>  <r_i_glide_evdw>  (145) 
-19.2334

>  <r_i_glide_ecoul>  (145) 
-0.217321

>  <r_i_glide_erotb>  (145) 
0

>  <r_i_glide_esite>  (145) 
-0.0508544

>  <r_i_glide_emodel>  (145) 
-23.1988

>  <r_i_glide_energy>  (145) 
-19.4508

>  <r_i_glide_einternal>  (145) 
0

>  <r_i_glide_intrahb_reward>  (145) 
-0

>  <i_i_glide_confnum>  (145) 
2

>  <i_i_glide_posenum>  (145) 
22

>  <r_i_glide_eff_state_penalty>  (145) 
0

>  <ligand_id>  (145) 
40

>  <original_smiles>  (145) 
CC1OC2OC13C1CC1C1C4C(C23)C(C)C12c1ccccc1NC42

>  <smiles>  (145) 
[H]c1c([H])c([H])c2c(c1[H])N([H])C1([H])C3([H])C4([H])C5([H])C6([H])OC([H])(C([H])([H])[H])C5(O6)C5([H])C([H])([H])C5([H])C3([H])C21C4([H])C([H])([H])[H]

$$$$
40:0:2
     RDKit          3D

 47 54  0  0  1  0  0  0  0  0999 V2000
    4.5340   -7.3060    4.1257 C   0  0  0  0  0  0  0  0  0  0  0  0
    4.9832   -5.8446    4.2899 C   0  0  2  0  0  0  0  0  0  0  0  0
    3.9984   -5.1585    5.0708 O   0  0  0  0  0  0  0  0  0  0  0  0
    3.7920   -4.0018    4.2681 C   0  0  1  0  0  0  0  0  0  0  0  0
    5.0754   -3.6710    3.7559 O   0  0  0  0  0  0  0  0  0  0  0  0
    4.8780   -4.9303    3.0643 C   0  0  1  0  0  0  0  0  0  0  0  0
    5.8808   -5.0747    1.8759 C   0  0  2  0  0  0  0  0  0  0  0  0
    6.5818   -3.8190    1.3707 C   0  0  0  0  0  0  0  0  0  0  0  0
    5.7530   -4.5806    0.3788 C   0  0  2  0  0  0  0  0  0  0  0  0
    4.4422   -4.1062   -0.3651 C   0  0  1  0  0  0  0  0  0  0  0  0
    3.1588   -4.5417    0.2744 C   0  0  1  0  0  0  0  0  0  0  0  0
    3.1317   -3.7598    1.5905 C   0  0  2  0  0  0  0  0  0  0  0  0
    3.4098   -4.5342    2.8721 C   0  0  2  0  0  0  0  0  0  0  0  0
    3.0786   -2.2943    1.1020 C   0  0  1  0  0  0  0  0  0  0  0  0
    3.8723   -1.1353    1.7441 C   0  0  0  0  0  0  0  0  0  0  0  0
    3.5642   -2.7440   -0.3066 C   0  0  1  0  0  0  0  0  0  0  0  0
    3.6077   -1.8782   -1.5241 C   0  0  0  0  0  0  0  0  0  0  0  0
    4.2748   -0.6758   -1.7102 C   0  0  0  0  0  0  0  0  0  0  0  0
    4.2081   -0.0861   -2.9897 C   0  0  0  0  0  0  0  0  0  0  0  0
    3.5600   -0.7250   -4.0705 C   0  0  0  0  0  0  0  0  0  0  0  0
    2.9062   -1.9498   -3.8663 C   0  0  0  0  0  0  0  0  0  0  0  0
    2.9314   -2.4990   -2.5707 C   0  0  0  0  0  0  0  0  0  0  0  0
    2.3205   -3.6780   -2.1768 N   0  0  0  0  0  0  0  0  0  0  0  0
    2.3955   -3.6430   -0.7139 C   0  0  1  0  0  0  0  0  0  0  0  0
    5.2653   -7.8855    3.5608 H   0  0  0  0  0  0  0  0  0  0  0  0
    3.5684   -7.3846    3.6262 H   0  0  0  0  0  0  0  0  0  0  0  0
    4.4170   -7.7778    5.1051 H   0  0  0  0  0  0  0  0  0  0  0  0
    5.9495   -5.7699    4.7870 H   0  0  0  0  0  0  0  0  0  0  0  0
    3.1966   -3.1769    4.6625 H   0  0  0  0  0  0  0  0  0  0  0  0
    6.5232   -5.9418    2.0068 H   0  0  0  0  0  0  0  0  0  0  0  0
    6.2338   -2.8603    1.7357 H   0  0  0  0  0  0  0  0  0  0  0  0
    7.6626   -3.8813    1.2634 H   0  0  0  0  0  0  0  0  0  0  0  0
    6.3814   -5.1437   -0.3044 H   0  0  0  0  0  0  0  0  0  0  0  0
    4.5081   -4.4786   -1.3890 H   0  0  0  0  0  0  0  0  0  0  0  0
    2.9656   -5.6110    0.2683 H   0  0  0  0  0  0  0  0  0  0  0  0
    4.1153   -3.3753    1.7309 H   0  0  0  0  0  0  0  0  0  0  0  0
    2.7428   -5.3903    2.9773 H   0  0  0  0  0  0  0  0  0  0  0  0
    2.0325   -1.9828    1.1013 H   0  0  0  0  0  0  0  0  0  0  0  0
    4.9344   -1.1968    1.5291 H   0  0  0  0  0  0  0  0  0  0  0  0
    3.7202   -1.0986    2.8219 H   0  0  0  0  0  0  0  0  0  0  0  0
    3.5212   -0.1959    1.3119 H   0  0  0  0  0  0  0  0  0  0  0  0
    4.7837   -0.2165   -0.8782 H   0  0  0  0  0  0  0  0  0  0  0  0
    4.6384    0.8884   -3.1303 H   0  0  0  0  0  0  0  0  0  0  0  0
    3.5547   -0.2570   -5.0394 H   0  0  0  0  0  0  0  0  0  0  0  0
    2.3978   -2.4667   -4.6671 H   0  0  0  0  0  0  0  0  0  0  0  0
    1.4871   -3.9818   -2.6542 H   0  0  0  0  0  0  0  0  0  0  0  0
    1.4248   -3.3452   -0.3284 H   0  0  0  0  0  0  0  0  0  0  0  0
  1  2  1  0
  1 25  1  0
  1 26  1  0
  1 27  1  0
  2  6  1  0
  2  3  1  0
  2 28  1  1
  3  4  1  0
  4 13  1  0
  4  5  1  0
  4 29  1  1
  6  5  1  1
  6 13  1  0
  6  7  1  0
  7  9  1  0
  7  8  1  0
  7 30  1  6
  8  9  1  0
  8 31  1  0
  8 32  1  0
  9 10  1  0
  9 33  1  6
 10 16  1  0
 10 11  1  0
 10 34  1  6
 11 24  1  0
 11 12  1  0
 11 35  1  1
 12 13  1  0
 12 14  1  0
 12 36  1  1
 13 37  1  1
 14 15  1  0
 14 16  1  0
 14 38  1  6
 15 39  1  0
 15 40  1  0
 15 41  1  0
 16 24  1  0
 16 17  1  6
 17 22  2  0
 17 18  1  0
 18 19  2  0
 18 42  1  0
 19 20  1  0
 19 43  1  0
 20 21  2  0
 20 44  1  0
 21 22  1  0
 21 45  1  0
 22 23  1  0
 23 24  1  0
 23 46  1  0
 24 47  1  1
M  END
>  <i_m_ct_stereo_status>  (146) 
1

>  <s_m_source_file>  (146) 
/var/tmp/pbs.5076255.sched01/tmpb5cfx69f/43pm4c6kpw.sdf

>  <i_m_source_file_index>  (146) 
15

>  <i_lp_mmshare_version>  (146) 
48012

>  <i_f3d_flags>  (146) 
0

>  <s_epik_input>  (146) 
W0NIM11bQ0BASF0xT1tDQEBIXShPMilbQ0BIXTNbQ0BIXShbQ0BIXTRbQ0gzXSlbQ0BIXTVbQ0BASF02W05IXWMoW2NIXVtjSF1bY0hdW2NIXTcpYzdbQ0BAXTQ2W0NASF01W0NASF0oW0NAQEhdOFtDQEBdMTIzKVtDSDJdOA==

>  <s_epik_cmdline>  (146) 
J2VwaWtfcHl0aG9uJywgJy1waHQnLCAnMi4wJywgJy1waCcsICc3LjAnLCAnLXRuJywgJzgnLCAnLW1hJywgJzIwMCcsICctaW1hZScsICc8aW5maWxlLm1hZT4nLCAnLW9tYWUnLCAnPG91dGZpbGUubWFlPic=

>  <r_epik_Ionization_Penalty>  (146) 
0.212103

>  <r_epik_Ionization_Penalty_Charging>  (146) 
0

>  <r_epik_Ionization_Penalty_Neutral>  (146) 
0.212103

>  <r_epik_State_Penalty>  (146) 
0.202219

>  <r_epik_Charging_Adjusted_Penalty>  (146) 
0.202219

>  <i_epik_Tot_Q>  (146) 
0

>  <i_epik_Tot_abs_Q>  (146) 
0

>  <s_epik_Chemistry_Notes>  (146) 
This compound contains an acetal/aminal-like group ( X-CH(R)-Y where X, Y are N, S, or O) that may be acid/base labile, releasing an aldehyde.

>  <s_lp_Force_Field>  (146) 
OPLS3e

>  <r_lp_Energy>  (146) 
163.677

>  <b_lp_Chiralities_Consistent>  (146) 
1

>  <s_lp_Variant>  (146) 
40:0-1

>  <s_i_glide_gridfile>  (146) 
pfpi4k_grid

>  <i_i_glide_lignum>  (146) 
15

>  <i_i_glide_rotatable_bonds>  (146) 
0

>  <r_i_docking_score>  (146) 
-2.99539

>  <r_i_glide_ligand_efficiency>  (146) 
-0.124808

>  <r_i_glide_ligand_efficiency_sa>  (146) 
-0.360008

>  <r_i_glide_ligand_efficiency_ln>  (146) 
-0.716933

>  <r_i_glide_gscore>  (146) 
-2.99539

>  <r_i_glide_lipo>  (146) 
-0.690104

>  <r_i_glide_hbond>  (146) 
-0.247932

>  <r_i_glide_metal>  (146) 
-0

>  <r_i_glide_rewards>  (146) 
-1.21764

>  <r_i_glide_evdw>  (146) 
-14.3745

>  <r_i_glide_ecoul>  (146) 
-0.80658

>  <r_i_glide_erotb>  (146) 
0

>  <r_i_glide_esite>  (146) 
0

>  <r_i_glide_emodel>  (146) 
-18.3044

>  <r_i_glide_energy>  (146) 
-15.181

>  <r_i_glide_einternal>  (146) 
0

>  <r_i_glide_intrahb_reward>  (146) 
-0

>  <i_i_glide_confnum>  (146) 
2

>  <i_i_glide_posenum>  (146) 
11

>  <r_i_glide_eff_state_penalty>  (146) 
0

>  <ligand_id>  (146) 
40

>  <original_smiles>  (146) 
CC1OC2OC13C1CC1C1C4C(C23)C(C)C12c1ccccc1NC42

>  <smiles>  (146) 
[H]c1c([H])c([H])c2c(c1[H])N([H])C1([H])C3([H])C4([H])C5([H])C6([H])OC([H])(C([H])([H])[H])C5(O6)C5([H])C([H])([H])C5([H])C3([H])C21C4([H])C([H])([H])[H]

$$$$
40:1:0
     RDKit          3D

 48 55  0  0  1  0  0  0  0  0999 V2000
    4.8322   -6.5305    4.6066 C   0  0  0  0  0  0  0  0  0  0  0  0
    5.3192   -5.0754    4.5384 C   0  0  2  0  0  0  0  0  0  0  0  0
    4.4054   -4.2594    5.2766 O   0  0  0  0  0  0  0  0  0  0  0  0
    4.1689   -3.2204    4.3427 C   0  0  1  0  0  0  0  0  0  0  0  0
    5.4106   -2.9966    3.7058 O   0  0  0  0  0  0  0  0  0  0  0  0
    5.1493   -4.3360    3.2079 C   0  0  1  0  0  0  0  0  0  0  0  0
    6.0640   -4.6714    1.9886 C   0  0  2  0  0  0  0  0  0  0  0  0
    6.7628   -3.5154    1.2778 C   0  0  0  0  0  0  0  0  0  0  0  0
    5.8496   -4.3746    0.4483 C   0  0  2  0  0  0  0  0  0  0  0  0
    4.5099   -3.9714   -0.2777 C   0  0  1  0  0  0  0  0  0  0  0  0
    3.2618   -4.2772    0.5036 C   0  0  1  0  0  0  0  0  0  0  0  0
    3.3323   -3.3201    1.6985 C   0  0  2  0  0  0  0  0  0  0  0  0
    3.6812   -3.9217    3.0574 C   0  0  2  0  0  0  0  0  0  0  0  0
    3.2984   -1.9318    1.0152 C   0  0  1  0  0  0  0  0  0  0  0  0
    4.1702   -0.7292    1.4536 C   0  0  0  0  0  0  0  0  0  0  0  0
    3.6784   -2.5872   -0.3538 C   0  0  1  0  0  0  0  0  0  0  0  0
    3.6473   -1.8390   -1.6520 C   0  0  0  0  0  0  0  0  0  0  0  0
    4.3130   -0.6598   -1.9963 C   0  0  0  0  0  0  0  0  0  0  0  0
    4.1440   -0.1590   -3.3027 C   0  0  0  0  0  0  0  0  0  0  0  0
    3.3705   -0.8554   -4.2632 C   0  0  0  0  0  0  0  0  0  0  0  0
    2.7336   -2.0763   -3.9161 C   0  0  0  0  0  0  0  0  0  0  0  0
    2.9026   -2.5303   -2.6091 C   0  0  0  0  0  0  0  0  0  0  0  0
    2.3365   -3.7794   -2.0226 N   0  0  0  0  0  0  0  0  0  0  0  0
    2.4687   -3.5163   -0.5684 C   0  0  1  0  0  0  0  0  0  0  0  0
    5.5133   -7.2036    4.0831 H   0  0  0  0  0  0  0  0  0  0  0  0
    3.8360   -6.6474    4.1795 H   0  0  0  0  0  0  0  0  0  0  0  0
    4.7685   -6.8651    5.6448 H   0  0  0  0  0  0  0  0  0  0  0  0
    6.3200   -4.9669    4.9583 H   0  0  0  0  0  0  0  0  0  0  0  0
    3.6187   -2.3353    4.6674 H   0  0  0  0  0  0  0  0  0  0  0  0
    6.6947   -5.5292    2.1913 H   0  0  0  0  0  0  0  0  0  0  0  0
    6.4716   -2.5079    1.5320 H   0  0  0  0  0  0  0  0  0  0  0  0
    7.8342   -3.6318    1.1070 H   0  0  0  0  0  0  0  0  0  0  0  0
    6.4213   -5.0520   -0.1878 H   0  0  0  0  0  0  0  0  0  0  0  0
    4.5122   -4.4798   -1.2435 H   0  0  0  0  0  0  0  0  0  0  0  0
    3.0317   -5.3290    0.6661 H   0  0  0  0  0  0  0  0  0  0  0  0
    4.3350   -2.9577    1.7118 H   0  0  0  0  0  0  0  0  0  0  0  0
    3.0035   -4.7359    3.3123 H   0  0  0  0  0  0  0  0  0  0  0  0
    2.2626   -1.5838    1.0438 H   0  0  0  0  0  0  0  0  0  0  0  0
    5.2168   -0.8453    1.1807 H   0  0  0  0  0  0  0  0  0  0  0  0
    4.0995   -0.5573    2.5260 H   0  0  0  0  0  0  0  0  0  0  0  0
    3.8168    0.1694    0.9466 H   0  0  0  0  0  0  0  0  0  0  0  0
    4.9037   -0.1402   -1.2585 H   0  0  0  0  0  0  0  0  0  0  0  0
    4.5949    0.7814   -3.5750 H   0  0  0  0  0  0  0  0  0  0  0  0
    3.2416   -0.4506   -5.2582 H   0  0  0  0  0  0  0  0  0  0  0  0
    2.1267   -2.6280   -4.6112 H   0  0  0  0  0  0  0  0  0  0  0  0
    1.3678   -3.9130   -2.2859 H   0  0  0  0  0  0  0  0  0  0  0  0
    1.5269   -3.1034   -0.2247 H   0  0  0  0  0  0  0  0  0  0  0  0
    2.8523   -4.6088   -2.3040 H   0  0  0  0  0  0  0  0  0  0  0  0
  1  2  1  0
  1 25  1  0
  1 26  1  0
  1 27  1  0
  2  6  1  0
  2  3  1  0
  2 28  1  1
  3  4  1  0
  4 13  1  0
  4  5  1  0
  4 29  1  1
  6  5  1  1
  6 13  1  0
  6  7  1  0
  7  9  1  0
  7  8  1  0
  7 30  1  6
  8  9  1  0
  8 31  1  0
  8 32  1  0
  9 10  1  0
  9 33  1  6
 10 16  1  0
 10 11  1  0
 10 34  1  6
 11 24  1  0
 11 12  1  0
 11 35  1  1
 12 13  1  0
 12 14  1  0
 12 36  1  1
 13 37  1  1
 14 15  1  0
 14 16  1  0
 14 38  1  6
 15 39  1  0
 15 40  1  0
 15 41  1  0
 16 24  1  0
 16 17  1  6
 17 22  2  0
 17 18  1  0
 18 19  2  0
 18 42  1  0
 19 20  1  0
 19 43  1  0
 20 21  2  0
 20 44  1  0
 21 22  1  0
 21 45  1  0
 22 23  1  0
 23 24  1  0
 23 46  1  0
 23 48  1  0
 24 47  1  1
M  CHG  1  23   1
M  END
>  <i_m_ct_stereo_status>  (147) 
1

>  <s_m_source_file>  (147) 
/var/tmp/pbs.5076255.sched01/tmpb5cfx69f/43pm4c6kpw.sdf

>  <i_m_source_file_index>  (147) 
16

>  <i_lp_mmshare_version>  (147) 
48012

>  <i_f3d_flags>  (147) 
0

>  <s_epik_input>  (147) 
W0NIM11bQ0BASF0xT1tDQEBIXShPMilbQ0BIXTNbQ0BIXShbQ0BIXTRbQ0gzXSlbQ0BIXTVbQ0BASF02W05IXWMoW2NIXVtjSF1bY0hdW2NIXTcpYzdbQ0BAXTQ2W0NASF01W0NASF0oW0NAQEhdOFtDQEBdMTIzKVtDSDJdOA==

>  <s_epik_cmdline>  (147) 
J2VwaWtfcHl0aG9uJywgJy1waHQnLCAnMi4wJywgJy1waCcsICc3LjAnLCAnLXRuJywgJzgnLCAnLW1hJywgJzIwMCcsICctaW1hZScsICc8aW5maWxlLm1hZT4nLCAnLW9tYWUnLCAnPG91dGZpbGUubWFlPic=

>  <r_epik_Ionization_Penalty>  (147) 
0.711525

>  <r_epik_Ionization_Penalty_Charging>  (147) 
0.711525

>  <r_epik_Ionization_Penalty_Neutral>  (147) 
2.54697e-13

>  <r_epik_State_Penalty>  (147) 
0.735143

>  <r_epik_Charging_Adjusted_Penalty>  (147) 
1.44667

>  <i_epik_Tot_Q>  (147) 
1

>  <i_epik_Tot_abs_Q>  (147) 
1

>  <s_epik_Chemistry_Notes>  (147) 
This compound contains an acetal/aminal-like group ( X-CH(R)-Y where X, Y are N, S, or O) that may be acid/base labile, releasing an aldehyde.

>  <s_lp_Force_Field>  (147) 
OPLS3e

>  <r_lp_Energy>  (147) 
170.571

>  <b_lp_Chiralities_Consistent>  (147) 
1

>  <s_lp_Variant>  (147) 
40:0-2

>  <s_i_glide_gridfile>  (147) 
pfpi4k_grid

>  <i_i_glide_lignum>  (147) 
16

>  <i_i_glide_rotatable_bonds>  (147) 
0

>  <r_i_docking_score>  (147) 
-4.03822

>  <r_i_glide_ligand_efficiency>  (147) 
-0.168259

>  <r_i_glide_ligand_efficiency_sa>  (147) 
-0.485343

>  <r_i_glide_ligand_efficiency_ln>  (147) 
-0.966531

>  <r_i_glide_gscore>  (147) 
-4.03822

>  <r_i_glide_lipo>  (147) 
-0.716243

>  <r_i_glide_hbond>  (147) 
0

>  <r_i_glide_metal>  (147) 
-0

>  <r_i_glide_rewards>  (147) 
-1.21375

>  <r_i_glide_evdw>  (147) 
-18.1369

>  <r_i_glide_ecoul>  (147) 
-8.00918

>  <r_i_glide_erotb>  (147) 
0

>  <r_i_glide_esite>  (147) 
0

>  <r_i_glide_emodel>  (147) 
-32.7971

>  <r_i_glide_energy>  (147) 
-26.1461

>  <r_i_glide_einternal>  (147) 
0

>  <r_i_glide_intrahb_reward>  (147) 
-0

>  <i_i_glide_confnum>  (147) 
1

>  <i_i_glide_posenum>  (147) 
1

>  <r_i_glide_eff_state_penalty>  (147) 
0

>  <ligand_id>  (147) 
40

>  <original_smiles>  (147) 
CC1OC2OC13C1CC1C1C4C(C23)C(C)C12c1ccccc1NC42

>  <smiles>  (147) 
[H]c1c([H])c([H])c2c(c1[H])C13C([H])(C([H])([H])[H])C4([H])C5([H])C6([H])OC([H])(C([H])([H])[H])C5(O6)C5([H])C([H])([H])C5([H])C1([H])C4([H])C3([H])[N+]2([H])[H]

$$$$
40:1:1
     RDKit          3D

 48 55  0  0  1  0  0  0  0  0999 V2000
    3.3405   -5.3233    6.3790 C   0  0  0  0  0  0  0  0  0  0  0  0
    4.1806   -6.1148    5.3638 C   0  0  2  0  0  0  0  0  0  0  0  0
    5.5636   -5.8426    5.6127 O   0  0  0  0  0  0  0  0  0  0  0  0
    6.0071   -5.5380    4.2961 C   0  0  1  0  0  0  0  0  0  0  0  0
    5.2908   -6.4204    3.4411 O   0  0  0  0  0  0  0  0  0  0  0  0
    4.1809   -5.6175    3.9110 C   0  0  1  0  0  0  0  0  0  0  0  0
    2.9294   -5.8196    2.9994 C   0  0  2  0  0  0  0  0  0  0  0  0
    3.1456   -6.4479    1.6268 C   0  0  0  0  0  0  0  0  0  0  0  0
    2.5298   -5.0805    1.6592 C   0  0  2  0  0  0  0  0  0  0  0  0
    3.1020   -3.7148    1.0949 C   0  0  1  0  0  0  0  0  0  0  0  0
    3.8087   -2.8682    2.1213 C   0  0  1  0  0  0  0  0  0  0  0  0
    5.0566   -3.6831    2.4589 C   0  0  2  0  0  0  0  0  0  0  0  0
    5.0946   -4.3888    3.8127 C   0  0  2  0  0  0  0  0  0  0  0  0
    5.8000   -3.7350    1.1075 C   0  0  1  0  0  0  0  0  0  0  0  0
    6.5077   -4.9951    0.5610 C   0  0  0  0  0  0  0  0  0  0  0  0
    4.4959   -3.3134    0.3633 C   0  0  1  0  0  0  0  0  0  0  0  0
    4.4722   -2.9458   -1.1046 C   0  0  0  0  0  0  0  0  0  0  0  0
    4.9117   -3.6934   -2.2052 C   0  0  0  0  0  0  0  0  0  0  0  0
    4.7039   -3.1586   -3.4994 C   0  0  0  0  0  0  0  0  0  0  0  0
    4.0811   -1.8981   -3.6760 C   0  0  0  0  0  0  0  0  0  0  0  0
    3.6232   -1.1592   -2.5676 C   0  0  0  0  0  0  0  0  0  0  0  0
    3.8146   -1.7283   -1.2938 C   0  0  0  0  0  0  0  0  0  0  0  0
    3.4020   -1.1538    0.0310 N   0  0  0  0  0  0  0  0  0  0  0  0
    4.2393   -1.9229    0.9859 C   0  0  1  0  0  0  0  0  0  0  0  0
    2.2754   -5.5172    6.2529 H   0  0  0  0  0  0  0  0  0  0  0  0
    3.5084   -4.2490    6.2989 H   0  0  0  0  0  0  0  0  0  0  0  0
    3.6124   -5.6086    7.3982 H   0  0  0  0  0  0  0  0  0  0  0  0
    3.9995   -7.1879    5.4420 H   0  0  0  0  0  0  0  0  0  0  0  0
    7.0809   -5.4552    4.1163 H   0  0  0  0  0  0  0  0  0  0  0  0
    2.0867   -6.2148    3.5641 H   0  0  0  0  0  0  0  0  0  0  0  0
    4.1592   -6.5722    1.2677 H   0  0  0  0  0  0  0  0  0  0  0  0
    2.4912   -7.2780    1.3670 H   0  0  0  0  0  0  0  0  0  0  0  0
    1.4613   -5.1290    1.4718 H   0  0  0  0  0  0  0  0  0  0  0  0
    2.2529   -3.1857    0.6566 H   0  0  0  0  0  0  0  0  0  0  0  0
    3.2062   -2.4558    2.9281 H   0  0  0  0  0  0  0  0  0  0  0  0
    4.8845   -4.6630    2.0745 H   0  0  0  0  0  0  0  0  0  0  0  0
    4.9194   -3.6853    4.6271 H   0  0  0  0  0  0  0  0  0  0  0  0
    6.5516   -2.9431    1.1108 H   0  0  0  0  0  0  0  0  0  0  0  0
    5.8139   -5.7616    0.2210 H   0  0  0  0  0  0  0  0  0  0  0  0
    7.1763   -5.4328    1.3027 H   0  0  0  0  0  0  0  0  0  0  0  0
    7.1058   -4.7095   -0.3032 H   0  0  0  0  0  0  0  0  0  0  0  0
    5.3570   -4.6626   -2.0716 H   0  0  0  0  0  0  0  0  0  0  0  0
    5.0189   -3.7323   -4.3559 H   0  0  0  0  0  0  0  0  0  0  0  0
    3.9401   -1.4951   -4.6680 H   0  0  0  0  0  0  0  0  0  0  0  0
    3.1294   -0.2064   -2.7099 H   0  0  0  0  0  0  0  0  0  0  0  0
    3.6100   -0.1711    0.0970 H   0  0  0  0  0  0  0  0  0  0  0  0
    5.1306   -1.3439    1.2231 H   0  0  0  0  0  0  0  0  0  0  0  0
    2.4028   -1.2771    0.1602 H   0  0  0  0  0  0  0  0  0  0  0  0
  1  2  1  0
  1 25  1  0
  1 26  1  0
  1 27  1  0
  2  6  1  0
  2  3  1  0
  2 28  1  6
  3  4  1  0
  4 13  1  0
  4  5  1  0
  4 29  1  1
  6  5  1  6
  6 13  1  0
  6  7  1  0
  7  9  1  0
  7  8  1  0
  7 30  1  1
  8  9  1  0
  8 31  1  0
  8 32  1  0
  9 10  1  0
  9 33  1  1
 10 16  1  0
 10 11  1  0
 10 34  1  6
 11 24  1  0
 11 12  1  0
 11 35  1  1
 12 13  1  0
 12 14  1  0
 12 36  1  1
 13 37  1  1
 14 15  1  0
 14 16  1  0
 14 38  1  1
 15 39  1  0
 15 40  1  0
 15 41  1  0
 16 24  1  0
 16 17  1  6
 17 22  2  0
 17 18  1  0
 18 19  2  0
 18 42  1  0
 19 20  1  0
 19 43  1  0
 20 21  2  0
 20 44  1  0
 21 22  1  0
 21 45  1  0
 22 23  1  0
 23 24  1  0
 23 46  1  0
 23 48  1  0
 24 47  1  1
M  CHG  1  23   1
M  END
>  <i_m_ct_stereo_status>  (148) 
1

>  <s_m_source_file>  (148) 
/var/tmp/pbs.5076255.sched01/tmpb5cfx69f/43pm4c6kpw.sdf

>  <i_m_source_file_index>  (148) 
16

>  <i_lp_mmshare_version>  (148) 
48012

>  <i_f3d_flags>  (148) 
0

>  <s_epik_input>  (148) 
W0NIM11bQ0BASF0xT1tDQEBIXShPMilbQ0BIXTNbQ0BIXShbQ0BIXTRbQ0gzXSlbQ0BIXTVbQ0BASF02W05IXWMoW2NIXVtjSF1bY0hdW2NIXTcpYzdbQ0BAXTQ2W0NASF01W0NASF0oW0NAQEhdOFtDQEBdMTIzKVtDSDJdOA==

>  <s_epik_cmdline>  (148) 
J2VwaWtfcHl0aG9uJywgJy1waHQnLCAnMi4wJywgJy1waCcsICc3LjAnLCAnLXRuJywgJzgnLCAnLW1hJywgJzIwMCcsICctaW1hZScsICc8aW5maWxlLm1hZT4nLCAnLW9tYWUnLCAnPG91dGZpbGUubWFlPic=

>  <r_epik_Ionization_Penalty>  (148) 
0.711525

>  <r_epik_Ionization_Penalty_Charging>  (148) 
0.711525

>  <r_epik_Ionization_Penalty_Neutral>  (148) 
2.54697e-13

>  <r_epik_State_Penalty>  (148) 
0.735143

>  <r_epik_Charging_Adjusted_Penalty>  (148) 
1.44667

>  <i_epik_Tot_Q>  (148) 
1

>  <i_epik_Tot_abs_Q>  (148) 
1

>  <s_epik_Chemistry_Notes>  (148) 
This compound contains an acetal/aminal-like group ( X-CH(R)-Y where X, Y are N, S, or O) that may be acid/base labile, releasing an aldehyde.

>  <s_lp_Force_Field>  (148) 
OPLS3e

>  <r_lp_Energy>  (148) 
170.571

>  <b_lp_Chiralities_Consistent>  (148) 
1

>  <s_lp_Variant>  (148) 
40:0-2

>  <s_i_glide_gridfile>  (148) 
pfpi4k_grid

>  <i_i_glide_lignum>  (148) 
16

>  <i_i_glide_rotatable_bonds>  (148) 
0

>  <r_i_docking_score>  (148) 
-3.689

>  <r_i_glide_ligand_efficiency>  (148) 
-0.153708

>  <r_i_glide_ligand_efficiency_sa>  (148) 
-0.443371

>  <r_i_glide_ligand_efficiency_ln>  (148) 
-0.882946

>  <r_i_glide_gscore>  (148) 
-3.689

>  <r_i_glide_lipo>  (148) 
-0.716284

>  <r_i_glide_hbond>  (148) 
-0.160498

>  <r_i_glide_metal>  (148) 
-0

>  <r_i_glide_rewards>  (148) 
-1.21141

>  <r_i_glide_evdw>  (148) 
-22.116

>  <r_i_glide_ecoul>  (148) 
-2.74771

>  <r_i_glide_erotb>  (148) 
0

>  <r_i_glide_esite>  (148) 
-0.0828461

>  <r_i_glide_emodel>  (148) 
-30.9279

>  <r_i_glide_energy>  (148) 
-24.8637

>  <r_i_glide_einternal>  (148) 
0

>  <r_i_glide_intrahb_reward>  (148) 
-0

>  <i_i_glide_confnum>  (148) 
1

>  <i_i_glide_posenum>  (148) 
32

>  <r_i_glide_eff_state_penalty>  (148) 
0

>  <ligand_id>  (148) 
40

>  <original_smiles>  (148) 
CC1OC2OC13C1CC1C1C4C(C23)C(C)C12c1ccccc1NC42

>  <smiles>  (148) 
[H]c1c([H])c([H])c2c(c1[H])C13C([H])(C([H])([H])[H])C4([H])C5([H])C6([H])OC([H])(C([H])([H])[H])C5(O6)C5([H])C([H])([H])C5([H])C1([H])C4([H])C3([H])[N+]2([H])[H]

$$$$
40:1:2
     RDKit          3D

 48 55  0  0  1  0  0  0  0  0999 V2000
    4.3244   -7.1828    6.1709 C   0  0  0  0  0  0  0  0  0  0  0  0
    5.3815   -7.4634    5.0905 C   0  0  2  0  0  0  0  0  0  0  0  0
    6.6061   -6.8382    5.4878 O   0  0  0  0  0  0  0  0  0  0  0  0
    6.9506   -6.1532    4.2926 C   0  0  1  0  0  0  0  0  0  0  0  0
    6.5666   -7.0272    3.2400 O   0  0  0  0  0  0  0  0  0  0  0  0
    5.2488   -6.7153    3.7587 C   0  0  1  0  0  0  0  0  0  0  0  0
    4.1388   -7.1033    2.7331 C   0  0  2  0  0  0  0  0  0  0  0  0
    4.5606   -7.3508    1.2861 C   0  0  0  0  0  0  0  0  0  0  0  0
    3.5427   -6.2732    1.5247 C   0  0  2  0  0  0  0  0  0  0  0  0
    3.6640   -4.7178    1.2653 C   0  0  1  0  0  0  0  0  0  0  0  0
    4.0511   -3.9147    2.4792 C   0  0  1  0  0  0  0  0  0  0  0  0
    5.4896   -4.3585    2.7541 C   0  0  2  0  0  0  0  0  0  0  0  0
    5.7274   -5.2728    3.9557 C   0  0  2  0  0  0  0  0  0  0  0  0
    6.2290   -3.9102    1.4730 C   0  0  1  0  0  0  0  0  0  0  0  0
    7.3106   -4.7618    0.7650 C   0  0  0  0  0  0  0  0  0  0  0  0
    4.8651   -3.7703    0.7240 C   0  0  1  0  0  0  0  0  0  0  0  0
    4.7477   -3.1436   -0.6433 C   0  0  0  0  0  0  0  0  0  0  0  0
    5.4293   -3.4737   -1.8147 C   0  0  0  0  0  0  0  0  0  0  0  0
    5.0794   -2.7996   -3.0046 C   0  0  0  0  0  0  0  0  0  0  0  0
    4.0957   -1.7807   -3.0096 C   0  0  0  0  0  0  0  0  0  0  0  0
    3.4137   -1.4518   -1.8187 C   0  0  0  0  0  0  0  0  0  0  0  0
    3.7363   -2.1789   -0.6592 C   0  0  0  0  0  0  0  0  0  0  0  0
    3.1218   -2.0435    0.7098 N   0  0  0  0  0  0  0  0  0  0  0  0
    4.1638   -2.6797    1.5694 C   0  0  1  0  0  0  0  0  0  0  0  0
    3.3776   -7.6680    5.9324 H   0  0  0  0  0  0  0  0  0  0  0  0
    4.1481   -6.1153    6.3017 H   0  0  0  0  0  0  0  0  0  0  0  0
    4.6599   -7.5639    7.1383 H   0  0  0  0  0  0  0  0  0  0  0  0
    5.5503   -8.5333    4.9599 H   0  0  0  0  0  0  0  0  0  0  0  0
    7.9407   -5.6997    4.2137 H   0  0  0  0  0  0  0  0  0  0  0  0
    3.4582   -7.8424    3.1496 H   0  0  0  0  0  0  0  0  0  0  0  0
    5.5685   -7.0858    0.9936 H   0  0  0  0  0  0  0  0  0  0  0  0
    4.2073   -8.2774    0.8328 H   0  0  0  0  0  0  0  0  0  0  0  0
    2.5480   -6.6111    1.2437 H   0  0  0  0  0  0  0  0  0  0  0  0
    2.7022   -4.3956    0.8662 H   0  0  0  0  0  0  0  0  0  0  0  0
    3.3379   -3.8752    3.3016 H   0  0  0  0  0  0  0  0  0  0  0  0
    5.6358   -5.2442    2.1796 H   0  0  0  0  0  0  0  0  0  0  0  0
    5.3321   -4.8321    4.8696 H   0  0  0  0  0  0  0  0  0  0  0  0
    6.6915   -2.9419    1.6773 H   0  0  0  0  0  0  0  0  0  0  0  0
    6.8968   -5.6254    0.2481 H   0  0  0  0  0  0  0  0  0  0  0  0
    8.0717   -5.1040    1.4659 H   0  0  0  0  0  0  0  0  0  0  0  0
    7.8063   -4.1570    0.0044 H   0  0  0  0  0  0  0  0  0  0  0  0
    6.1757   -4.2483   -1.8285 H   0  0  0  0  0  0  0  0  0  0  0  0
    5.5769   -3.0833   -3.9136 H   0  0  0  0  0  0  0  0  0  0  0  0
    3.8517   -1.2553   -3.9247 H   0  0  0  0  0  0  0  0  0  0  0  0
    2.6518   -0.6912   -1.8163 H   0  0  0  0  0  0  0  0  0  0  0  0
    3.0168   -1.0720    0.9600 H   0  0  0  0  0  0  0  0  0  0  0  0
    4.8279   -1.9150    1.9724 H   0  0  0  0  0  0  0  0  0  0  0  0
    2.2249   -2.4985    0.7724 H   0  0  0  0  0  0  0  0  0  0  0  0
  1  2  1  0
  1 25  1  0
  1 26  1  0
  1 27  1  0
  2  6  1  0
  2  3  1  0
  2 28  1  6
  3  4  1  0
  4 13  1  0
  4  5  1  0
  4 29  1  1
  6  5  1  6
  6 13  1  0
  6  7  1  0
  7  9  1  0
  7  8  1  0
  7 30  1  1
  8  9  1  0
  8 31  1  0
  8 32  1  0
  9 10  1  0
  9 33  1  6
 10 16  1  0
 10 11  1  0
 10 34  1  6
 11 24  1  0
 11 12  1  0
 11 35  1  1
 12 13  1  0
 12 14  1  0
 12 36  1  1
 13 37  1  1
 14 15  1  0
 14 16  1  0
 14 38  1  1
 15 39  1  0
 15 40  1  0
 15 41  1  0
 16 24  1  0
 16 17  1  6
 17 22  2  0
 17 18  1  0
 18 19  2  0
 18 42  1  0
 19 20  1  0
 19 43  1  0
 20 21  2  0
 20 44  1  0
 21 22  1  0
 21 45  1  0
 22 23  1  0
 23 24  1  0
 23 46  1  0
 23 48  1  0
 24 47  1  1
M  CHG  1  23   1
M  END
>  <i_m_ct_stereo_status>  (149) 
1

>  <s_m_source_file>  (149) 
/var/tmp/pbs.5076255.sched01/tmpb5cfx69f/43pm4c6kpw.sdf

>  <i_m_source_file_index>  (149) 
16

>  <i_lp_mmshare_version>  (149) 
48012

>  <i_f3d_flags>  (149) 
0

>  <s_epik_input>  (149) 
W0NIM11bQ0BASF0xT1tDQEBIXShPMilbQ0BIXTNbQ0BIXShbQ0BIXTRbQ0gzXSlbQ0BIXTVbQ0BASF02W05IXWMoW2NIXVtjSF1bY0hdW2NIXTcpYzdbQ0BAXTQ2W0NASF01W0NASF0oW0NAQEhdOFtDQEBdMTIzKVtDSDJdOA==

>  <s_epik_cmdline>  (149) 
J2VwaWtfcHl0aG9uJywgJy1waHQnLCAnMi4wJywgJy1waCcsICc3LjAnLCAnLXRuJywgJzgnLCAnLW1hJywgJzIwMCcsICctaW1hZScsICc8aW5maWxlLm1hZT4nLCAnLW9tYWUnLCAnPG91dGZpbGUubWFlPic=

>  <r_epik_Ionization_Penalty>  (149) 
0.711525

>  <r_epik_Ionization_Penalty_Charging>  (149) 
0.711525

>  <r_epik_Ionization_Penalty_Neutral>  (149) 
2.54697e-13

>  <r_epik_State_Penalty>  (149) 
0.735143

>  <r_epik_Charging_Adjusted_Penalty>  (149) 
1.44667

>  <i_epik_Tot_Q>  (149) 
1

>  <i_epik_Tot_abs_Q>  (149) 
1

>  <s_epik_Chemistry_Notes>  (149) 
This compound contains an acetal/aminal-like group ( X-CH(R)-Y where X, Y are N, S, or O) that may be acid/base labile, releasing an aldehyde.

>  <s_lp_Force_Field>  (149) 
OPLS3e

>  <r_lp_Energy>  (149) 
170.571

>  <b_lp_Chiralities_Consistent>  (149) 
1

>  <s_lp_Variant>  (149) 
40:0-2

>  <s_i_glide_gridfile>  (149) 
pfpi4k_grid

>  <i_i_glide_lignum>  (149) 
16

>  <i_i_glide_rotatable_bonds>  (149) 
0

>  <r_i_docking_score>  (149) 
-3.42576

>  <r_i_glide_ligand_efficiency>  (149) 
-0.14274

>  <r_i_glide_ligand_efficiency_sa>  (149) 
-0.411733

>  <r_i_glide_ligand_efficiency_ln>  (149) 
-0.819942

>  <r_i_glide_gscore>  (149) 
-3.42576

>  <r_i_glide_lipo>  (149) 
-0.77738

>  <r_i_glide_hbond>  (149) 
0

>  <r_i_glide_metal>  (149) 
-0

>  <r_i_glide_rewards>  (149) 
-1.21111

>  <r_i_glide_evdw>  (149) 
-19.7266

>  <r_i_glide_ecoul>  (149) 
-2.67046

>  <r_i_glide_erotb>  (149) 
0

>  <r_i_glide_esite>  (149) 
-0.0503744

>  <r_i_glide_emodel>  (149) 
-28.0309

>  <r_i_glide_energy>  (149) 
-22.397

>  <r_i_glide_einternal>  (149) 
0

>  <r_i_glide_intrahb_reward>  (149) 
-0

>  <i_i_glide_confnum>  (149) 
2

>  <i_i_glide_posenum>  (149) 
14

>  <r_i_glide_eff_state_penalty>  (149) 
0

>  <ligand_id>  (149) 
40

>  <original_smiles>  (149) 
CC1OC2OC13C1CC1C1C4C(C23)C(C)C12c1ccccc1NC42

>  <smiles>  (149) 
[H]c1c([H])c([H])c2c(c1[H])C13C([H])(C([H])([H])[H])C4([H])C5([H])C6([H])OC([H])(C([H])([H])[H])C5(O6)C5([H])C([H])([H])C5([H])C1([H])C4([H])C3([H])[N+]2([H])[H]

$$$$
42:0:0
     RDKit          3D

 30 33  0  0  1  0  0  0  0  0999 V2000
    0.7253   -3.4035    8.9625 C   0  0  0  0  0  0  0  0  0  0  0  0
    1.6646   -4.2369    8.3120 C   0  0  0  0  0  0  0  0  0  0  0  0
    1.2997   -5.0970    7.3317 N   0  0  0  0  0  0  0  0  0  0  0  0
   -0.0182   -5.1203    7.0071 C   0  0  0  0  0  0  0  0  0  0  0  0
   -0.4730   -5.9832    6.0299 O   0  0  0  0  0  0  0  0  0  0  0  0
    0.4293   -6.9178    5.4426 C   0  0  2  0  0  0  0  0  0  0  0  0
    1.2602   -6.3283    4.2904 C   0  0  0  0  0  0  0  0  0  0  0  0
    0.7472   -7.1247    3.0819 C   0  0  2  0  0  0  0  0  0  0  0  0
   -0.5877   -6.6617    2.8767 O   0  0  0  0  0  0  0  0  0  0  0  0
   -1.3949   -7.4843    3.7214 C   0  0  1  0  0  0  0  0  0  0  0  0
   -1.7495   -8.7028    2.8646 C   0  0  0  0  0  0  0  0  0  0  0  0
   -0.3883   -9.3883    2.7288 C   0  0  0  0  0  0  0  0  0  0  0  0
    0.5144   -8.5377    3.6304 C   0  0  2  0  0  0  0  0  0  0  0  0
   -0.3739   -8.0208    4.7324 C   0  0  1  0  0  0  0  0  0  0  0  0
   -0.9502   -4.2833    7.6609 C   0  0  0  0  0  0  0  0  0  0  0  0
   -0.5868   -3.4224    8.6379 N   0  0  0  0  0  0  0  0  0  0  0  0
    1.0250   -2.7154    9.7432 H   0  0  0  0  0  0  0  0  0  0  0  0
    2.7121   -4.2051    8.5853 H   0  0  0  0  0  0  0  0  0  0  0  0
    1.0793   -7.3853    6.1854 H   0  0  0  0  0  0  0  0  0  0  0  0
    1.1330   -5.2521    4.1743 H   0  0  0  0  0  0  0  0  0  0  0  0
    2.3203   -6.5314    4.4498 H   0  0  0  0  0  0  0  0  0  0  0  0
    1.3713   -7.0570    2.1891 H   0  0  0  0  0  0  0  0  0  0  0  0
   -2.2557   -6.9658    4.1451 H   0  0  0  0  0  0  0  0  0  0  0  0
   -2.4512   -9.3550    3.3858 H   0  0  0  0  0  0  0  0  0  0  0  0
   -2.1824   -8.4327    1.9026 H   0  0  0  0  0  0  0  0  0  0  0  0
   -0.4383  -10.4223    3.0723 H   0  0  0  0  0  0  0  0  0  0  0  0
   -0.0300   -9.3749    1.7021 H   0  0  0  0  0  0  0  0  0  0  0  0
    1.4222   -9.0445    3.9591 H   0  0  0  0  0  0  0  0  0  0  0  0
   -0.7735   -8.7900    5.3956 H   0  0  0  0  0  0  0  0  0  0  0  0
   -1.9979   -4.3129    7.4009 H   0  0  0  0  0  0  0  0  0  0  0  0
  1 16  2  0
  1  2  1  0
  1 17  1  0
  2  3  2  0
  2 18  1  0
  3  4  1  0
  4  5  1  0
  4 15  2  0
  5  6  1  0
  6 14  1  0
  6  7  1  0
  6 19  1  1
  7  8  1  0
  7 20  1  0
  7 21  1  0
  8 13  1  0
  8  9  1  0
  8 22  1  6
  9 10  1  0
 10 14  1  0
 10 11  1  0
 10 23  1  1
 11 12  1  0
 11 24  1  0
 11 25  1  0
 12 13  1  0
 12 26  1  0
 12 27  1  0
 13 14  1  0
 13 28  1  1
 14 29  1  1
 15 16  1  0
 15 30  1  0
M  END
>  <i_m_ct_stereo_status>  (150) 
1

>  <s_m_source_file>  (150) 
/var/tmp/pbs.5076255.sched01/tmpb5cfx69f/43pm4c6kpw.sdf

>  <i_m_source_file_index>  (150) 
19

>  <i_lp_mmshare_version>  (150) 
48012

>  <i_f3d_flags>  (150) 
0

>  <s_epik_input>  (150) 
W2NIXTFuW2NIXVtjSF1uYzFPW0NASF0oW0NIMl0yKVtDQEhdKFtDQEBIXTNbQ0BIXTI0KVtDQEBIXShPNClbQ0gyXVtDSDJdMw==

>  <s_epik_cmdline>  (150) 
J2VwaWtfcHl0aG9uJywgJy1waHQnLCAnMi4wJywgJy1waCcsICc3LjAnLCAnLXRuJywgJzgnLCAnLW1hJywgJzIwMCcsICctaW1hZScsICc8aW5maWxlLm1hZT4nLCAnLW9tYWUnLCAnPG91dGZpbGUubWFlPic=

>  <r_lp_tautomer_probability>  (150) 
1

>  <r_epik_Ionization_Penalty>  (150) 
3.26202e-08

>  <r_epik_Ionization_Penalty_Charging>  (150) 
0

>  <r_epik_Ionization_Penalty_Neutral>  (150) 
3.26202e-08

>  <r_epik_State_Penalty>  (150) 
-0

>  <r_epik_Charging_Adjusted_Penalty>  (150) 
0

>  <i_epik_Tot_Q>  (150) 
0

>  <i_epik_Tot_abs_Q>  (150) 
0

>  <s_lp_Force_Field>  (150) 
OPLS3e

>  <r_lp_Energy>  (150) 
47.5972

>  <b_lp_Chiralities_Consistent>  (150) 
1

>  <s_lp_Variant>  (150) 
42:0-1

>  <s_i_glide_gridfile>  (150) 
pfpi4k_grid

>  <i_i_glide_lignum>  (150) 
19

>  <i_i_glide_rotatable_bonds>  (150) 
2

>  <r_i_docking_score>  (150) 
-3.03403

>  <r_i_glide_ligand_efficiency>  (150) 
-0.189627

>  <r_i_glide_ligand_efficiency_sa>  (150) 
-0.477831

>  <r_i_glide_ligand_efficiency_ln>  (150) 
-0.804231

>  <r_i_glide_gscore>  (150) 
-3.03403

>  <r_i_glide_lipo>  (150) 
-0.00318929

>  <r_i_glide_hbond>  (150) 
-0.295273

>  <r_i_glide_metal>  (150) 
-0

>  <r_i_glide_rewards>  (150) 
-1.92101

>  <r_i_glide_evdw>  (150) 
-16.2113

>  <r_i_glide_ecoul>  (150) 
-4.72965

>  <r_i_glide_erotb>  (150) 
0.705452

>  <r_i_glide_esite>  (150) 
0

>  <r_i_glide_emodel>  (150) 
-25.5061

>  <r_i_glide_energy>  (150) 
-20.941

>  <r_i_glide_einternal>  (150) 
0.358242

>  <r_i_glide_intrahb_reward>  (150) 
-0

>  <i_i_glide_confnum>  (150) 
1

>  <i_i_glide_posenum>  (150) 
13

>  <r_i_glide_eff_state_penalty>  (150) 
0

>  <ligand_id>  (150) 
42

>  <original_smiles>  (150) 
c1cnc(OC2CC3OC4CCC3C24)cn1

>  <smiles>  (150) 
[H]c1nc([H])c(OC2([H])C([H])([H])C3([H])OC4([H])C([H])([H])C([H])([H])C3([H])C42[H])nc1[H]

$$$$
42:0:1
     RDKit          3D

 30 33  0  0  1  0  0  0  0  0999 V2000
   -0.5131   -4.8059    9.0101 C   0  0  0  0  0  0  0  0  0  0  0  0
    0.2259   -5.9021    8.5203 C   0  0  0  0  0  0  0  0  0  0  0  0
    0.4880   -6.0500    7.2012 N   0  0  0  0  0  0  0  0  0  0  0  0
    0.0206   -5.0834    6.3704 C   0  0  0  0  0  0  0  0  0  0  0  0
    0.2838   -5.1509    5.0167 O   0  0  0  0  0  0  0  0  0  0  0  0
    0.9761   -6.2886    4.4982 C   0  0  2  0  0  0  0  0  0  0  0  0
    1.4304   -6.0628    3.0463 C   0  0  0  0  0  0  0  0  0  0  0  0
    0.6265   -7.1239    2.2845 C   0  0  2  0  0  0  0  0  0  0  0  0
   -0.7226   -6.6580    2.3551 O   0  0  0  0  0  0  0  0  0  0  0  0
   -1.2380   -7.2129    3.5698 C   0  0  1  0  0  0  0  0  0  0  0  0
   -1.7780   -8.5962    3.1994 C   0  0  0  0  0  0  0  0  0  0  0  0
   -0.4892   -9.3564    2.8807 C   0  0  0  0  0  0  0  0  0  0  0  0
    0.6023   -8.3320    3.2295 C   0  0  2  0  0  0  0  0  0  0  0  0
    0.0410   -7.5059    4.3615 C   0  0  1  0  0  0  0  0  0  0  0  0
   -0.7237   -3.9948    6.8719 C   0  0  0  0  0  0  0  0  0  0  0  0
   -0.9980   -3.8527    8.1879 N   0  0  0  0  0  0  0  0  0  0  0  0
   -0.7224   -4.6974   10.0648 H   0  0  0  0  0  0  0  0  0  0  0  0
    0.6070   -6.6608    9.1866 H   0  0  0  0  0  0  0  0  0  0  0  0
    1.8554   -6.5327    5.0944 H   0  0  0  0  0  0  0  0  0  0  0  0
    1.2394   -5.0499    2.6877 H   0  0  0  0  0  0  0  0  0  0  0  0
    2.4991   -6.2553    2.9498 H   0  0  0  0  0  0  0  0  0  0  0  0
    0.9723   -7.3174    1.2675 H   0  0  0  0  0  0  0  0  0  0  0  0
   -1.9634   -6.5710    4.0679 H   0  0  0  0  0  0  0  0  0  0  0  0
   -2.2814   -9.0464    4.0553 H   0  0  0  0  0  0  0  0  0  0  0  0
   -2.4775   -8.5680    2.3612 H   0  0  0  0  0  0  0  0  0  0  0  0
   -0.4047  -10.2509    3.4976 H   0  0  0  0  0  0  0  0  0  0  0  0
   -0.4504   -9.6580    1.8338 H   0  0  0  0  0  0  0  0  0  0  0  0
    1.5853   -8.7692    3.4161 H   0  0  0  0  0  0  0  0  0  0  0  0
   -0.1327   -8.0558    5.2883 H   0  0  0  0  0  0  0  0  0  0  0  0
   -1.0998   -3.2307    6.2095 H   0  0  0  0  0  0  0  0  0  0  0  0
  1 16  2  0
  1  2  1  0
  1 17  1  0
  2  3  2  0
  2 18  1  0
  3  4  1  0
  4  5  1  0
  4 15  2  0
  5  6  1  0
  6 14  1  0
  6  7  1  0
  6 19  1  1
  7  8  1  0
  7 20  1  0
  7 21  1  0
  8 13  1  0
  8  9  1  0
  8 22  1  6
  9 10  1  0
 10 14  1  0
 10 11  1  0
 10 23  1  1
 11 12  1  0
 11 24  1  0
 11 25  1  0
 12 13  1  0
 12 26  1  0
 12 27  1  0
 13 14  1  0
 13 28  1  1
 14 29  1  1
 15 16  1  0
 15 30  1  0
M  END
>  <i_m_ct_stereo_status>  (151) 
1

>  <s_m_source_file>  (151) 
/var/tmp/pbs.5076255.sched01/tmpb5cfx69f/43pm4c6kpw.sdf

>  <i_m_source_file_index>  (151) 
19

>  <i_lp_mmshare_version>  (151) 
48012

>  <i_f3d_flags>  (151) 
0

>  <s_epik_input>  (151) 
W2NIXTFuW2NIXVtjSF1uYzFPW0NASF0oW0NIMl0yKVtDQEhdKFtDQEBIXTNbQ0BIXTI0KVtDQEBIXShPNClbQ0gyXVtDSDJdMw==

>  <s_epik_cmdline>  (151) 
J2VwaWtfcHl0aG9uJywgJy1waHQnLCAnMi4wJywgJy1waCcsICc3LjAnLCAnLXRuJywgJzgnLCAnLW1hJywgJzIwMCcsICctaW1hZScsICc8aW5maWxlLm1hZT4nLCAnLW9tYWUnLCAnPG91dGZpbGUubWFlPic=

>  <r_lp_tautomer_probability>  (151) 
1

>  <r_epik_Ionization_Penalty>  (151) 
3.26202e-08

>  <r_epik_Ionization_Penalty_Charging>  (151) 
0

>  <r_epik_Ionization_Penalty_Neutral>  (151) 
3.26202e-08

>  <r_epik_State_Penalty>  (151) 
-0

>  <r_epik_Charging_Adjusted_Penalty>  (151) 
0

>  <i_epik_Tot_Q>  (151) 
0

>  <i_epik_Tot_abs_Q>  (151) 
0

>  <s_lp_Force_Field>  (151) 
OPLS3e

>  <r_lp_Energy>  (151) 
47.5972

>  <b_lp_Chiralities_Consistent>  (151) 
1

>  <s_lp_Variant>  (151) 
42:0-1

>  <s_i_glide_gridfile>  (151) 
pfpi4k_grid

>  <i_i_glide_lignum>  (151) 
19

>  <i_i_glide_rotatable_bonds>  (151) 
2

>  <r_i_docking_score>  (151) 
-2.88988

>  <r_i_glide_ligand_efficiency>  (151) 
-0.180618

>  <r_i_glide_ligand_efficiency_sa>  (151) 
-0.455128

>  <r_i_glide_ligand_efficiency_ln>  (151) 
-0.766021

>  <r_i_glide_gscore>  (151) 
-2.88988

>  <r_i_glide_lipo>  (151) 
0

>  <r_i_glide_hbond>  (151) 
-0.191525

>  <r_i_glide_metal>  (151) 
-0

>  <r_i_glide_rewards>  (151) 
-1.92101

>  <r_i_glide_evdw>  (151) 
-17.8886

>  <r_i_glide_ecoul>  (151) 
-3.92246

>  <r_i_glide_erotb>  (151) 
0.705452

>  <r_i_glide_esite>  (151) 
0

>  <r_i_glide_emodel>  (151) 
-26.123

>  <r_i_glide_energy>  (151) 
-21.811

>  <r_i_glide_einternal>  (151) 
0.46541

>  <r_i_glide_intrahb_reward>  (151) 
-0

>  <i_i_glide_confnum>  (151) 
5

>  <i_i_glide_posenum>  (151) 
11

>  <r_i_glide_eff_state_penalty>  (151) 
0

>  <ligand_id>  (151) 
42

>  <original_smiles>  (151) 
c1cnc(OC2CC3OC4CCC3C24)cn1

>  <smiles>  (151) 
[H]c1nc([H])c(OC2([H])C([H])([H])C3([H])OC4([H])C([H])([H])C([H])([H])C3([H])C42[H])nc1[H]

$$$$
42:0:2
     RDKit          3D

 30 33  0  0  1  0  0  0  0  0999 V2000
    3.1614   -9.4566    2.0690 C   0  0  0  0  0  0  0  0  0  0  0  0
    4.2500   -9.0353    1.2767 C   0  0  0  0  0  0  0  0  0  0  0  0
    4.3945   -7.7478    0.8820 N   0  0  0  0  0  0  0  0  0  0  0  0
    3.4256   -6.8842    1.2845 C   0  0  0  0  0  0  0  0  0  0  0  0
    3.4791   -5.5596    0.9016 O   0  0  0  0  0  0  0  0  0  0  0  0
    4.5531   -5.0981    0.0811 C   0  0  2  0  0  0  0  0  0  0  0  0
    5.8411   -4.7910    0.8656 C   0  0  0  0  0  0  0  0  0  0  0  0
    5.9738   -3.2719    0.6879 C   0  0  2  0  0  0  0  0  0  0  0  0
    4.8993   -2.7142    1.4455 O   0  0  0  0  0  0  0  0  0  0  0  0
    3.7850   -2.6783    0.5510 C   0  0  1  0  0  0  0  0  0  0  0  0
    3.8952   -1.3332   -0.1774 C   0  0  0  0  0  0  0  0  0  0  0  0
    5.1601   -1.5334   -1.0182 C   0  0  0  0  0  0  0  0  0  0  0  0
    5.5091   -3.0100   -0.7506 C   0  0  2  0  0  0  0  0  0  0  0  0
    4.1950   -3.7161   -0.5032 C   0  0  1  0  0  0  0  0  0  0  0  0
    2.3393   -7.3162    2.0765 C   0  0  0  0  0  0  0  0  0  0  0  0
    2.1991   -8.6010    2.4726 N   0  0  0  0  0  0  0  0  0  0  0  0
    3.0661  -10.4850    2.3819 H   0  0  0  0  0  0  0  0  0  0  0  0
    5.0059   -9.7375    0.9602 H   0  0  0  0  0  0  0  0  0  0  0  0
    4.7480   -5.7842   -0.7444 H   0  0  0  0  0  0  0  0  0  0  0  0
    5.7830   -5.0793    1.9135 H   0  0  0  0  0  0  0  0  0  0  0  0
    6.6937   -5.3088    0.4253 H   0  0  0  0  0  0  0  0  0  0  0  0
    6.9479   -2.8656    0.9626 H   0  0  0  0  0  0  0  0  0  0  0  0
    2.8250   -2.8437    1.0410 H   0  0  0  0  0  0  0  0  0  0  0  0
    3.0274   -1.1653   -0.8163 H   0  0  0  0  0  0  0  0  0  0  0  0
    3.9717   -0.4872    0.5054 H   0  0  0  0  0  0  0  0  0  0  0  0
    4.9534   -1.3633   -2.0757 H   0  0  0  0  0  0  0  0  0  0  0  0
    5.9618   -0.8622   -0.7111 H   0  0  0  0  0  0  0  0  0  0  0  0
    6.1450   -3.4681   -1.5096 H   0  0  0  0  0  0  0  0  0  0  0  0
    3.5252   -3.7545   -1.3638 H   0  0  0  0  0  0  0  0  0  0  0  0
    1.5743   -6.6234    2.3882 H   0  0  0  0  0  0  0  0  0  0  0  0
  1 16  2  0
  1  2  1  0
  1 17  1  0
  2  3  2  0
  2 18  1  0
  3  4  1  0
  4  5  1  0
  4 15  2  0
  5  6  1  0
  6 14  1  0
  6  7  1  0
  6 19  1  6
  7  8  1  0
  7 20  1  0
  7 21  1  0
  8 13  1  0
  8  9  1  0
  8 22  1  1
  9 10  1  0
 10 14  1  0
 10 11  1  0
 10 23  1  1
 11 12  1  0
 11 24  1  0
 11 25  1  0
 12 13  1  0
 12 26  1  0
 12 27  1  0
 13 14  1  0
 13 28  1  6
 14 29  1  6
 15 16  1  0
 15 30  1  0
M  END
>  <i_m_ct_stereo_status>  (152) 
1

>  <s_m_source_file>  (152) 
/var/tmp/pbs.5076255.sched01/tmpb5cfx69f/43pm4c6kpw.sdf

>  <i_m_source_file_index>  (152) 
19

>  <i_lp_mmshare_version>  (152) 
48012

>  <i_f3d_flags>  (152) 
0

>  <s_epik_input>  (152) 
W2NIXTFuW2NIXVtjSF1uYzFPW0NASF0oW0NIMl0yKVtDQEhdKFtDQEBIXTNbQ0BIXTI0KVtDQEBIXShPNClbQ0gyXVtDSDJdMw==

>  <s_epik_cmdline>  (152) 
J2VwaWtfcHl0aG9uJywgJy1waHQnLCAnMi4wJywgJy1waCcsICc3LjAnLCAnLXRuJywgJzgnLCAnLW1hJywgJzIwMCcsICctaW1hZScsICc8aW5maWxlLm1hZT4nLCAnLW9tYWUnLCAnPG91dGZpbGUubWFlPic=

>  <r_lp_tautomer_probability>  (152) 
1

>  <r_epik_Ionization_Penalty>  (152) 
3.26202e-08

>  <r_epik_Ionization_Penalty_Charging>  (152) 
0

>  <r_epik_Ionization_Penalty_Neutral>  (152) 
3.26202e-08

>  <r_epik_State_Penalty>  (152) 
-0

>  <r_epik_Charging_Adjusted_Penalty>  (152) 
0

>  <i_epik_Tot_Q>  (152) 
0

>  <i_epik_Tot_abs_Q>  (152) 
0

>  <s_lp_Force_Field>  (152) 
OPLS3e

>  <r_lp_Energy>  (152) 
47.5972

>  <b_lp_Chiralities_Consistent>  (152) 
1

>  <s_lp_Variant>  (152) 
42:0-1

>  <s_i_glide_gridfile>  (152) 
pfpi4k_grid

>  <i_i_glide_lignum>  (152) 
19

>  <i_i_glide_rotatable_bonds>  (152) 
2

>  <r_i_docking_score>  (152) 
-2.60392

>  <r_i_glide_ligand_efficiency>  (152) 
-0.162745

>  <r_i_glide_ligand_efficiency_sa>  (152) 
-0.410091

>  <r_i_glide_ligand_efficiency_ln>  (152) 
-0.69022

>  <r_i_glide_gscore>  (152) 
-2.60392

>  <r_i_glide_lipo>  (152) 
-0.258601

>  <r_i_glide_hbond>  (152) 
0

>  <r_i_glide_metal>  (152) 
-0

>  <r_i_glide_rewards>  (152) 
-1.92101

>  <r_i_glide_evdw>  (152) 
-20.248

>  <r_i_glide_ecoul>  (152) 
-0.782389

>  <r_i_glide_erotb>  (152) 
0.705452

>  <r_i_glide_esite>  (152) 
0

>  <r_i_glide_emodel>  (152) 
-25.0257

>  <r_i_glide_energy>  (152) 
-21.0303

>  <r_i_glide_einternal>  (152) 
0.171203

>  <r_i_glide_intrahb_reward>  (152) 
-0

>  <i_i_glide_confnum>  (152) 
3

>  <i_i_glide_posenum>  (152) 
4

>  <r_i_glide_eff_state_penalty>  (152) 
0

>  <ligand_id>  (152) 
42

>  <original_smiles>  (152) 
c1cnc(OC2CC3OC4CCC3C24)cn1

>  <smiles>  (152) 
[H]c1nc([H])c(OC2([H])C([H])([H])C3([H])OC4([H])C([H])([H])C([H])([H])C3([H])C42[H])nc1[H]

$$$$
43:0:0
     RDKit          3D

 43 47  0  0  1  0  0  0  0  0999 V2000
    3.9421   -5.8994    1.6926 C   0  0  0  0  0  0  0  0  0  0  0  0
    4.6551   -4.5451    1.3196 C   0  0  0  0  0  0  0  0  0  0  0  0
    5.9376   -4.6888    2.1592 C   0  0  0  0  0  0  0  0  0  0  0  0
    4.6866   -4.4469   -0.2029 C   0  0  0  0  0  0  0  0  0  0  0  0
    3.4117   -4.0675   -0.5290 C   0  0  0  0  0  0  0  0  0  0  0  0
    3.4132   -2.9241   -1.4756 C   0  0  0  0  0  0  0  0  0  0  0  0
    4.6393   -2.2362   -0.8876 C   0  0  2  0  0  0  0  0  0  0  0  0
    4.9959   -1.0536   -1.8172 C   0  0  0  0  0  0  0  0  0  0  0  0
    5.5932   -3.4368   -0.9650 C   0  0  1  0  0  0  0  0  0  0  0  0
    7.0276   -2.9285   -0.6865 C   0  0  2  0  0  0  0  0  0  0  0  0
    8.0288   -3.0253    0.4434 C   0  0  0  0  0  0  0  0  0  0  0  0
    7.1363   -1.8110    0.3609 C   0  0  2  0  0  0  0  0  0  0  0  0
    5.9279   -1.5781    1.2514 C   0  0  0  0  0  0  0  0  0  0  0  0
    6.0675   -1.0867    2.3728 O   0  0  0  0  0  0  0  0  0  0  0  0
    4.5075   -1.9120    0.7043 C   0  0  1  0  0  0  0  0  0  0  0  0
    3.6598   -0.6250    0.8986 C   0  0  0  0  0  0  0  0  0  0  0  0
    3.8486   -3.1980    1.5118 C   0  0  2  0  0  0  0  0  0  0  0  0
    3.4678   -2.9292    2.9827 C   0  0  0  0  0  0  0  0  0  0  0  0
    2.6344   -3.6261    0.6903 C   0  0  0  0  0  0  0  0  0  0  0  0
    3.5378   -5.8816    2.7056 H   0  0  0  0  0  0  0  0  0  0  0  0
    4.6422   -6.7366    1.6499 H   0  0  0  0  0  0  0  0  0  0  0  0
    3.1356   -6.2020    1.0237 H   0  0  0  0  0  0  0  0  0  0  0  0
    5.7233   -5.1616    3.1203 H   0  0  0  0  0  0  0  0  0  0  0  0
    6.3663   -3.7514    2.4794 H   0  0  0  0  0  0  0  0  0  0  0  0
    6.6670   -5.3382    1.6718 H   0  0  0  0  0  0  0  0  0  0  0  0
    3.5611   -3.2730   -2.4989 H   0  0  0  0  0  0  0  0  0  0  0  0
    2.5157   -2.3061   -1.4659 H   0  0  0  0  0  0  0  0  0  0  0  0
    5.8134   -0.4425   -1.4455 H   0  0  0  0  0  0  0  0  0  0  0  0
    4.1466   -0.3867   -1.9418 H   0  0  0  0  0  0  0  0  0  0  0  0
    5.2654   -1.4101   -2.8115 H   0  0  0  0  0  0  0  0  0  0  0  0
    5.6480   -3.8245   -1.9843 H   0  0  0  0  0  0  0  0  0  0  0  0
    7.5104   -2.6733   -1.6311 H   0  0  0  0  0  0  0  0  0  0  0  0
    7.9597   -3.7672    1.2110 H   0  0  0  0  0  0  0  0  0  0  0  0
    9.0617   -2.8503    0.1496 H   0  0  0  0  0  0  0  0  0  0  0  0
    7.6495   -0.8954    0.0822 H   0  0  0  0  0  0  0  0  0  0  0  0
    2.6641   -0.7043    0.4638 H   0  0  0  0  0  0  0  0  0  0  0  0
    4.1457    0.2372    0.4360 H   0  0  0  0  0  0  0  0  0  0  0  0
    3.5398   -0.3675    1.9520 H   0  0  0  0  0  0  0  0  0  0  0  0
    2.7403   -2.1248    3.0670 H   0  0  0  0  0  0  0  0  0  0  0  0
    4.3337   -2.6633    3.5866 H   0  0  0  0  0  0  0  0  0  0  0  0
    3.0097   -3.8016    3.4450 H   0  0  0  0  0  0  0  0  0  0  0  0
    1.9384   -2.8076    0.5128 H   0  0  0  0  0  0  0  0  0  0  0  0
    2.0383   -4.4171    1.1346 H   0  0  0  0  0  0  0  0  0  0  0  0
  1  2  1  0
  1 20  1  0
  1 21  1  0
  1 22  1  0
  2 17  1  0
  2  3  1  0
  2  4  1  0
  3 23  1  0
  3 24  1  0
  3 25  1  0
  4  9  1  0
  4  5  2  0
  5 19  1  0
  5  6  1  0
  6  7  1  0
  6 26  1  0
  6 27  1  0
  7 15  1  0
  7  8  1  6
  7  9  1  0
  8 28  1  0
  8 29  1  0
  8 30  1  0
  9 10  1  0
  9 31  1  6
 10 12  1  0
 10 11  1  0
 10 32  1  6
 11 12  1  0
 11 33  1  0
 11 34  1  0
 12 13  1  0
 12 35  1  6
 13 14  2  0
 13 15  1  0
 15 16  1  6
 15 17  1  0
 16 36  1  0
 16 37  1  0
 16 38  1  0
 17 18  1  1
 17 19  1  0
 18 39  1  0
 18 40  1  0
 18 41  1  0
 19 42  1  0
 19 43  1  0
M  END
>  <i_m_ct_stereo_status>  (153) 
1

>  <s_m_source_file>  (153) 
/var/tmp/pbs.5076255.sched01/tmpb5cfx69f/43pm4c6kpw.sdf

>  <i_m_source_file_index>  (153) 
20

>  <i_lp_mmshare_version>  (153) 
48012

>  <i_f3d_flags>  (153) 
0

>  <s_epik_input>  (153) 
W0NIMl0xW0NAQEhdMltDQEhdMUMoPU8pW0NAXTMoW0NIM10pW0NAXShbQ0gzXSkoQzQoW0NIM10pW0NIM10pW0NIMl1DKFtDSDJdNSk9QzRbQ0BIXTJbQ0BdMzVbQ0gzXQ==

>  <s_epik_cmdline>  (153) 
J2VwaWtfcHl0aG9uJywgJy1waHQnLCAnMi4wJywgJy1waCcsICc3LjAnLCAnLXRuJywgJzgnLCAnLW1hJywgJzIwMCcsICctaW1hZScsICc8aW5maWxlLm1hZT4nLCAnLW9tYWUnLCAnPG91dGZpbGUubWFlPic=

>  <r_lp_tautomer_probability>  (153) 
1

>  <r_epik_Ionization_Penalty>  (153) 
2.03915e-14

>  <r_epik_Ionization_Penalty_Charging>  (153) 
0

>  <r_epik_Ionization_Penalty_Neutral>  (153) 
2.03915e-14

>  <r_epik_State_Penalty>  (153) 
-0

>  <r_epik_Charging_Adjusted_Penalty>  (153) 
0

>  <i_epik_Tot_Q>  (153) 
0

>  <i_epik_Tot_abs_Q>  (153) 
0

>  <s_lp_Force_Field>  (153) 
OPLS3e

>  <r_lp_Energy>  (153) 
119.523

>  <b_lp_Chiralities_Consistent>  (153) 
1

>  <s_lp_Variant>  (153) 
43:0-1

>  <s_i_glide_gridfile>  (153) 
pfpi4k_grid

>  <i_i_glide_lignum>  (153) 
20

>  <i_i_glide_rotatable_bonds>  (153) 
0

>  <r_i_docking_score>  (153) 
-3.45215

>  <r_i_glide_ligand_efficiency>  (153) 
-0.181692

>  <r_i_glide_ligand_efficiency_sa>  (153) 
-0.484827

>  <r_i_glide_ligand_efficiency_ln>  (153) 
-0.875193

>  <r_i_glide_gscore>  (153) 
-3.45215

>  <r_i_glide_lipo>  (153) 
-0.441448

>  <r_i_glide_hbond>  (153) 
0

>  <r_i_glide_metal>  (153) 
-0

>  <r_i_glide_rewards>  (153) 
-1.88703

>  <r_i_glide_evdw>  (153) 
-22.139

>  <r_i_glide_ecoul>  (153) 
-0.111465

>  <r_i_glide_erotb>  (153) 
0

>  <r_i_glide_esite>  (153) 
0

>  <r_i_glide_emodel>  (153) 
-26.6856

>  <r_i_glide_energy>  (153) 
-22.2505

>  <r_i_glide_einternal>  (153) 
0

>  <r_i_glide_intrahb_reward>  (153) 
-0

>  <i_i_glide_confnum>  (153) 
1

>  <i_i_glide_posenum>  (153) 
1

>  <r_i_glide_eff_state_penalty>  (153) 
0

>  <ligand_id>  (153) 
43

>  <original_smiles>  (153) 
CC1(C)C2=C3CC4(C)C2C2CC2C(=O)C4(C)C1(C)C3

>  <smiles>  (153) 
[H]C([H])([H])C1(C([H])([H])[H])C2=C3C([H])([H])C4(C([H])([H])[H])C2([H])C2([H])C([H])([H])C2([H])C(=O)C4(C([H])([H])[H])C1(C([H])([H])[H])C3([H])[H]

$$$$
43:0:1
     RDKit          3D

 43 47  0  0  1  0  0  0  0  0999 V2000
    3.7050   -2.8748   -2.8887 C   0  0  0  0  0  0  0  0  0  0  0  0
    4.3349   -2.4967   -1.4948 C   0  0  0  0  0  0  0  0  0  0  0  0
    4.5175   -0.9904   -1.7115 C   0  0  0  0  0  0  0  0  0  0  0  0
    3.4268   -3.0683   -0.4023 C   0  0  0  0  0  0  0  0  0  0  0  0
    3.7532   -4.3926   -0.3752 C   0  0  0  0  0  0  0  0  0  0  0  0
    4.0220   -4.8818    0.9986 C   0  0  0  0  0  0  0  0  0  0  0  0
    4.6658   -3.5899    1.4936 C   0  0  2  0  0  0  0  0  0  0  0  0
    4.8979   -3.7328    3.0191 C   0  0  0  0  0  0  0  0  0  0  0  0
    3.5260   -2.6424    1.0888 C   0  0  1  0  0  0  0  0  0  0  0  0
    3.7924   -1.2706    1.7401 C   0  0  2  0  0  0  0  0  0  0  0  0
    4.2231    0.0948    1.2743 C   0  0  0  0  0  0  0  0  0  0  0  0
    5.2643   -0.8520    1.8211 C   0  0  2  0  0  0  0  0  0  0  0  0
    6.2381   -1.6173    0.9329 C   0  0  0  0  0  0  0  0  0  0  0  0
    7.2450   -1.0703    0.4828 O   0  0  0  0  0  0  0  0  0  0  0  0
    5.9354   -3.1069    0.5953 C   0  0  1  0  0  0  0  0  0  0  0  0
    7.1847   -3.9373    0.9865 C   0  0  0  0  0  0  0  0  0  0  0  0
    5.6178   -3.2698   -1.0123 C   0  0  2  0  0  0  0  0  0  0  0  0
    6.8291   -3.0533   -1.9439 C   0  0  0  0  0  0  0  0  0  0  0  0
    5.0158   -4.6545   -1.1610 C   0  0  0  0  0  0  0  0  0  0  0  0
    4.4394   -2.8431   -3.6941 H   0  0  0  0  0  0  0  0  0  0  0  0
    2.9093   -2.1783   -3.1630 H   0  0  0  0  0  0  0  0  0  0  0  0
    3.2200   -3.8526   -2.9308 H   0  0  0  0  0  0  0  0  0  0  0  0
    4.8121   -0.7600   -2.7389 H   0  0  0  0  0  0  0  0  0  0  0  0
    5.3162   -0.5277   -1.1497 H   0  0  0  0  0  0  0  0  0  0  0  0
    3.5614   -0.5025   -1.5629 H   0  0  0  0  0  0  0  0  0  0  0  0
    3.0891   -5.1244    1.5089 H   0  0  0  0  0  0  0  0  0  0  0  0
    4.6684   -5.7588    1.0647 H   0  0  0  0  0  0  0  0  0  0  0  0
    5.4143   -2.8871    3.4707 H   0  0  0  0  0  0  0  0  0  0  0  0
    5.4905   -4.6224    3.2351 H   0  0  0  0  0  0  0  0  0  0  0  0
    3.9493   -3.8555    3.5428 H   0  0  0  0  0  0  0  0  0  0  0  0
    2.5797   -2.9613    1.5294 H   0  0  0  0  0  0  0  0  0  0  0  0
    3.2910   -1.2311    2.7094 H   0  0  0  0  0  0  0  0  0  0  0  0
    4.1892    0.3991    0.2490 H   0  0  0  0  0  0  0  0  0  0  0  0
    3.9260    0.9013    1.9420 H   0  0  0  0  0  0  0  0  0  0  0  0
    5.6534   -0.5952    2.8031 H   0  0  0  0  0  0  0  0  0  0  0  0
    7.0465   -5.0087    0.8612 H   0  0  0  0  0  0  0  0  0  0  0  0
    7.4090   -3.7855    2.0383 H   0  0  0  0  0  0  0  0  0  0  0  0
    8.0750   -3.6349    0.4325 H   0  0  0  0  0  0  0  0  0  0  0  0
    7.6439   -3.7403   -1.7300 H   0  0  0  0  0  0  0  0  0  0  0  0
    7.2274   -2.0496   -1.8780 H   0  0  0  0  0  0  0  0  0  0  0  0
    6.5628   -3.2125   -2.9873 H   0  0  0  0  0  0  0  0  0  0  0  0
    5.6430   -5.4410   -0.7411 H   0  0  0  0  0  0  0  0  0  0  0  0
    4.8570   -4.9476   -2.1960 H   0  0  0  0  0  0  0  0  0  0  0  0
  1  2  1  0
  1 20  1  0
  1 21  1  0
  1 22  1  0
  2 17  1  0
  2  3  1  0
  2  4  1  0
  3 23  1  0
  3 24  1  0
  3 25  1  0
  4  9  1  0
  4  5  2  0
  5 19  1  0
  5  6  1  0
  6  7  1  0
  6 26  1  0
  6 27  1  0
  7 15  1  0
  7  8  1  1
  7  9  1  0
  8 28  1  0
  8 29  1  0
  8 30  1  0
  9 10  1  0
  9 31  1  1
 10 12  1  0
 10 11  1  0
 10 32  1  1
 11 12  1  0
 11 33  1  0
 11 34  1  0
 12 13  1  0
 12 35  1  1
 13 14  2  0
 13 15  1  0
 15 16  1  1
 15 17  1  0
 16 36  1  0
 16 37  1  0
 16 38  1  0
 17 18  1  6
 17 19  1  0
 18 39  1  0
 18 40  1  0
 18 41  1  0
 19 42  1  0
 19 43  1  0
M  END
>  <i_m_ct_stereo_status>  (154) 
1

>  <s_m_source_file>  (154) 
/var/tmp/pbs.5076255.sched01/tmpb5cfx69f/43pm4c6kpw.sdf

>  <i_m_source_file_index>  (154) 
20

>  <i_lp_mmshare_version>  (154) 
48012

>  <i_f3d_flags>  (154) 
0

>  <s_epik_input>  (154) 
W0NIMl0xW0NAQEhdMltDQEhdMUMoPU8pW0NAXTMoW0NIM10pW0NAXShbQ0gzXSkoQzQoW0NIM10pW0NIM10pW0NIMl1DKFtDSDJdNSk9QzRbQ0BIXTJbQ0BdMzVbQ0gzXQ==

>  <s_epik_cmdline>  (154) 
J2VwaWtfcHl0aG9uJywgJy1waHQnLCAnMi4wJywgJy1waCcsICc3LjAnLCAnLXRuJywgJzgnLCAnLW1hJywgJzIwMCcsICctaW1hZScsICc8aW5maWxlLm1hZT4nLCAnLW9tYWUnLCAnPG91dGZpbGUubWFlPic=

>  <r_lp_tautomer_probability>  (154) 
1

>  <r_epik_Ionization_Penalty>  (154) 
2.03915e-14

>  <r_epik_Ionization_Penalty_Charging>  (154) 
0

>  <r_epik_Ionization_Penalty_Neutral>  (154) 
2.03915e-14

>  <r_epik_State_Penalty>  (154) 
-0

>  <r_epik_Charging_Adjusted_Penalty>  (154) 
0

>  <i_epik_Tot_Q>  (154) 
0

>  <i_epik_Tot_abs_Q>  (154) 
0

>  <s_lp_Force_Field>  (154) 
OPLS3e

>  <r_lp_Energy>  (154) 
119.523

>  <b_lp_Chiralities_Consistent>  (154) 
1

>  <s_lp_Variant>  (154) 
43:0-1

>  <s_i_glide_gridfile>  (154) 
pfpi4k_grid

>  <i_i_glide_lignum>  (154) 
20

>  <i_i_glide_rotatable_bonds>  (154) 
0

>  <r_i_docking_score>  (154) 
-3.40325

>  <r_i_glide_ligand_efficiency>  (154) 
-0.179118

>  <r_i_glide_ligand_efficiency_sa>  (154) 
-0.47796

>  <r_i_glide_ligand_efficiency_ln>  (154) 
-0.862797

>  <r_i_glide_gscore>  (154) 
-3.40325

>  <r_i_glide_lipo>  (154) 
-0.515102

>  <r_i_glide_hbond>  (154) 
-0.0265436

>  <r_i_glide_metal>  (154) 
-0

>  <r_i_glide_rewards>  (154) 
-1.83081

>  <r_i_glide_evdw>  (154) 
-20.0686

>  <r_i_glide_ecoul>  (154) 
-0.182442

>  <r_i_glide_erotb>  (154) 
0

>  <r_i_glide_esite>  (154) 
0

>  <r_i_glide_emodel>  (154) 
-24.5736

>  <r_i_glide_energy>  (154) 
-20.251

>  <r_i_glide_einternal>  (154) 
0

>  <r_i_glide_intrahb_reward>  (154) 
-0

>  <i_i_glide_confnum>  (154) 
1

>  <i_i_glide_posenum>  (154) 
2

>  <r_i_glide_eff_state_penalty>  (154) 
0

>  <ligand_id>  (154) 
43

>  <original_smiles>  (154) 
CC1(C)C2=C3CC4(C)C2C2CC2C(=O)C4(C)C1(C)C3

>  <smiles>  (154) 
[H]C([H])([H])C1(C([H])([H])[H])C2=C3C([H])([H])C4(C([H])([H])[H])C2([H])C2([H])C([H])([H])C2([H])C(=O)C4(C([H])([H])[H])C1(C([H])([H])[H])C3([H])[H]

$$$$
43:0:2
     RDKit          3D

 43 47  0  0  1  0  0  0  0  0999 V2000
    4.8363   -0.7007    0.4682 C   0  0  0  0  0  0  0  0  0  0  0  0
    4.8415   -2.0838    1.2161 C   0  0  0  0  0  0  0  0  0  0  0  0
    5.6378   -1.6916    2.4716 C   0  0  0  0  0  0  0  0  0  0  0  0
    3.3976   -2.5766    1.2905 C   0  0  0  0  0  0  0  0  0  0  0  0
    3.1579   -3.0659    0.0340 C   0  0  0  0  0  0  0  0  0  0  0  0
    2.5791   -4.4297    0.0980 C   0  0  0  0  0  0  0  0  0  0  0  0
    3.3235   -4.8944    1.3287 C   0  0  2  0  0  0  0  0  0  0  0  0
    2.7435   -6.2769    1.7352 C   0  0  0  0  0  0  0  0  0  0  0  0
    2.9494   -3.7254    2.2444 C   0  0  1  0  0  0  0  0  0  0  0  0
    3.3821   -4.0979    3.6829 C   0  0  2  0  0  0  0  0  0  0  0  0
    4.4774   -3.6915    4.6482 C   0  0  0  0  0  0  0  0  0  0  0  0
    4.6790   -4.9137    3.7879 C   0  0  2  0  0  0  0  0  0  0  0  0
    5.5701   -4.9466    2.5566 C   0  0  0  0  0  0  0  0  0  0  0  0
    6.7769   -5.1664    2.6564 O   0  0  0  0  0  0  0  0  0  0  0  0
    4.9299   -4.7879    1.1494 C   0  0  1  0  0  0  0  0  0  0  0  0
    5.4201   -5.9991    0.3267 C   0  0  0  0  0  0  0  0  0  0  0  0
    5.3638   -3.3561    0.4370 C   0  0  2  0  0  0  0  0  0  0  0  0
    6.8495   -3.2411    0.0274 C   0  0  0  0  0  0  0  0  0  0  0  0
    4.4370   -3.1894   -0.7700 C   0  0  0  0  0  0  0  0  0  0  0  0
    5.8125   -0.4656    0.0434 H   0  0  0  0  0  0  0  0  0  0  0  0
    4.5830    0.1121    1.1499 H   0  0  0  0  0  0  0  0  0  0  0  0
    4.0979   -0.6103   -0.3306 H   0  0  0  0  0  0  0  0  0  0  0  0
    6.4393   -0.9923    2.2195 H   0  0  0  0  0  0  0  0  0  0  0  0
    6.1996   -2.5032    2.9093 H   0  0  0  0  0  0  0  0  0  0  0  0
    5.0132   -1.1695    3.2012 H   0  0  0  0  0  0  0  0  0  0  0  0
    1.5057   -4.4096    0.2265 H   0  0  0  0  0  0  0  0  0  0  0  0
    2.7750   -5.0582   -0.7539 H   0  0  0  0  0  0  0  0  0  0  0  0
    3.2670   -6.7531    2.5643 H   0  0  0  0  0  0  0  0  0  0  0  0
    2.7851   -6.9765    0.8985 H   0  0  0  0  0  0  0  0  0  0  0  0
    1.6952   -6.1951    2.0187 H   0  0  0  0  0  0  0  0  0  0  0  0
    1.8647   -3.6224    2.3144 H   0  0  0  0  0  0  0  0  0  0  0  0
    2.5513   -4.5894    4.1915 H   0  0  0  0  0  0  0  0  0  0  0  0
    5.0201   -2.7775    4.5415 H   0  0  0  0  0  0  0  0  0  0  0  0
    4.2559   -3.9051    5.6912 H   0  0  0  0  0  0  0  0  0  0  0  0
    4.6289   -5.8584    4.3204 H   0  0  0  0  0  0  0  0  0  0  0  0
    4.9577   -6.0632   -0.6561 H   0  0  0  0  0  0  0  0  0  0  0  0
    5.2164   -6.9385    0.8475 H   0  0  0  0  0  0  0  0  0  0  0  0
    6.5018   -5.9679    0.1850 H   0  0  0  0  0  0  0  0  0  0  0  0
    7.1295   -4.0122   -0.6854 H   0  0  0  0  0  0  0  0  0  0  0  0
    7.5181   -3.3183    0.8841 H   0  0  0  0  0  0  0  0  0  0  0  0
    7.0599   -2.2923   -0.4591 H   0  0  0  0  0  0  0  0  0  0  0  0
    4.4603   -4.0400   -1.4510 H   0  0  0  0  0  0  0  0  0  0  0  0
    4.6436   -2.3286   -1.3982 H   0  0  0  0  0  0  0  0  0  0  0  0
  1  2  1  0
  1 20  1  0
  1 21  1  0
  1 22  1  0
  2 17  1  0
  2  3  1  0
  2  4  1  0
  3 23  1  0
  3 24  1  0
  3 25  1  0
  4  9  1  0
  4  5  2  0
  5 19  1  0
  5  6  1  0
  6  7  1  0
  6 26  1  0
  6 27  1  0
  7 15  1  0
  7  8  1  1
  7  9  1  0
  8 28  1  0
  8 29  1  0
  8 30  1  0
  9 10  1  0
  9 31  1  1
 10 12  1  0
 10 11  1  0
 10 32  1  1
 11 12  1  0
 11 33  1  0
 11 34  1  0
 12 13  1  0
 12 35  1  1
 13 14  2  0
 13 15  1  0
 15 16  1  6
 15 17  1  0
 16 36  1  0
 16 37  1  0
 16 38  1  0
 17 18  1  6
 17 19  1  0
 18 39  1  0
 18 40  1  0
 18 41  1  0
 19 42  1  0
 19 43  1  0
M  END
>  <i_m_ct_stereo_status>  (155) 
1

>  <s_m_source_file>  (155) 
/var/tmp/pbs.5076255.sched01/tmpb5cfx69f/43pm4c6kpw.sdf

>  <i_m_source_file_index>  (155) 
20

>  <i_lp_mmshare_version>  (155) 
48012

>  <i_f3d_flags>  (155) 
0

>  <s_epik_input>  (155) 
W0NIMl0xW0NAQEhdMltDQEhdMUMoPU8pW0NAXTMoW0NIM10pW0NAXShbQ0gzXSkoQzQoW0NIM10pW0NIM10pW0NIMl1DKFtDSDJdNSk9QzRbQ0BIXTJbQ0BdMzVbQ0gzXQ==

>  <s_epik_cmdline>  (155) 
J2VwaWtfcHl0aG9uJywgJy1waHQnLCAnMi4wJywgJy1waCcsICc3LjAnLCAnLXRuJywgJzgnLCAnLW1hJywgJzIwMCcsICctaW1hZScsICc8aW5maWxlLm1hZT4nLCAnLW9tYWUnLCAnPG91dGZpbGUubWFlPic=

>  <r_lp_tautomer_probability>  (155) 
1

>  <r_epik_Ionization_Penalty>  (155) 
2.03915e-14

>  <r_epik_Ionization_Penalty_Charging>  (155) 
0

>  <r_epik_Ionization_Penalty_Neutral>  (155) 
2.03915e-14

>  <r_epik_State_Penalty>  (155) 
-0

>  <r_epik_Charging_Adjusted_Penalty>  (155) 
0

>  <i_epik_Tot_Q>  (155) 
0

>  <i_epik_Tot_abs_Q>  (155) 
0

>  <s_lp_Force_Field>  (155) 
OPLS3e

>  <r_lp_Energy>  (155) 
119.523

>  <b_lp_Chiralities_Consistent>  (155) 
1

>  <s_lp_Variant>  (155) 
43:0-1

>  <s_i_glide_gridfile>  (155) 
pfpi4k_grid

>  <i_i_glide_lignum>  (155) 
20

>  <i_i_glide_rotatable_bonds>  (155) 
0

>  <r_i_docking_score>  (155) 
-2.99831

>  <r_i_glide_ligand_efficiency>  (155) 
-0.157806

>  <r_i_glide_ligand_efficiency_sa>  (155) 
-0.421089

>  <r_i_glide_ligand_efficiency_ln>  (155) 
-0.760136

>  <r_i_glide_gscore>  (155) 
-2.99831

>  <r_i_glide_lipo>  (155) 
-0.594156

>  <r_i_glide_hbond>  (155) 
0

>  <r_i_glide_metal>  (155) 
-0

>  <r_i_glide_rewards>  (155) 
-1.68371

>  <r_i_glide_evdw>  (155) 
-14.0972

>  <r_i_glide_ecoul>  (155) 
-0.103867

>  <r_i_glide_erotb>  (155) 
0

>  <r_i_glide_esite>  (155) 
0

>  <r_i_glide_emodel>  (155) 
-18.0432

>  <r_i_glide_energy>  (155) 
-14.2011

>  <r_i_glide_einternal>  (155) 
0

>  <r_i_glide_intrahb_reward>  (155) 
-0

>  <i_i_glide_confnum>  (155) 
2

>  <i_i_glide_posenum>  (155) 
30

>  <r_i_glide_eff_state_penalty>  (155) 
0

>  <ligand_id>  (155) 
43

>  <original_smiles>  (155) 
CC1(C)C2=C3CC4(C)C2C2CC2C(=O)C4(C)C1(C)C3

>  <smiles>  (155) 
[H]C([H])([H])C1(C([H])([H])[H])C2=C3C([H])([H])C4(C([H])([H])[H])C2([H])C2([H])C([H])([H])C2([H])C(=O)C4(C([H])([H])[H])C1(C([H])([H])[H])C3([H])[H]

$$$$
44:1:0
     RDKit          3D

 67 74  0  0  1  0  0  0  0  0999 V2000
    1.9189    4.5557    8.1167 C   0  0  0  0  0  0  0  0  0  0  0  0
    1.8612    3.7947    7.0287 C   0  0  0  0  0  0  0  0  0  0  0  0
    1.1949    4.1946    5.7147 C   0  0  0  0  0  0  0  0  0  0  0  0
    1.4810    2.9751    4.8448 C   0  0  2  0  0  0  0  0  0  0  0  0
    0.8105    2.6787    3.4784 C   0  0  1  0  0  0  0  0  0  0  0  0
    1.8605    2.1237    2.5481 C   0  0  0  0  0  0  0  0  0  0  0  0
    2.6700    1.1480    2.9770 C   0  0  0  0  0  0  0  0  0  0  0  0
    3.0305   -0.1838    2.5220 C   0  0  1  0  0  0  0  0  0  0  0  0
    2.4133   -1.4196    2.8580 O   0  0  0  0  0  0  0  0  0  0  0  0
    3.3664   -2.3911    3.1228 C   0  0  0  0  0  0  0  0  0  0  0  0
    4.4046   -2.5497    2.2755 C   0  0  0  0  0  0  0  0  0  0  0  0
    4.6859   -1.4190    1.3192 C   0  0  0  0  0  0  0  0  0  0  0  0
    6.1837   -1.2996    0.9934 C   0  0  0  0  0  0  0  0  0  0  0  0
    3.8527   -1.5118    0.0313 C   0  0  0  0  0  0  0  0  0  0  0  0
    4.3757   -0.2304    2.0571 O   0  0  0  0  0  0  0  0  0  0  0  0
    3.4441   -2.4533    4.5909 C   0  0  2  0  0  0  0  0  0  0  0  0
    4.5708   -1.4077    4.8724 C   0  0  1  0  0  0  0  0  0  0  0  0
    4.0751    0.0381    4.9932 C   0  0  0  0  0  0  0  0  0  0  0  0
    2.8208    0.2944    4.1215 C   0  0  1  0  0  0  0  0  0  0  0  0
    1.5793    0.4389    5.0718 C   0  0  1  0  0  0  0  0  0  0  0  0
    1.4475    1.7968    5.8314 C   0  0  1  0  0  0  0  0  0  0  0  0
    2.3550    2.3466    6.9395 C   0  0  0  0  0  0  0  0  0  0  0  0
    0.1780    1.6262    6.4719 O   0  0  0  0  0  0  0  0  0  0  0  0
   -0.5546    0.6951    5.8931 C   0  0  0  0  0  0  0  0  0  0  0  0
   -1.5779    0.1651    6.3294 O   0  0  0  0  0  0  0  0  0  0  0  0
    0.0944    0.4303    4.5454 C   0  0  2  0  0  0  0  0  0  0  0  0
   -0.2918   -0.8557    4.0847 O   0  0  0  0  0  0  0  0  0  0  0  0
   -0.3435    1.6226    3.5540 C   0  0  0  0  0  0  0  0  0  0  0  0
   -1.6221    2.4248    3.9556 C   0  0  0  0  0  0  0  0  0  0  0  0
   -0.7072    1.0621    2.1522 C   0  0  0  0  0  0  0  0  0  0  0  0
    4.4529   -2.6498    5.7003 C   0  0  0  0  0  0  0  0  0  0  0  0
    3.9831   -2.5126    7.1306 C   0  0  0  0  0  0  0  0  0  0  0  0
    5.4398   -3.7903    5.5799 C   0  0  0  0  0  0  0  0  0  0  0  0
    2.3688    4.1912    9.0304 H   0  0  0  0  0  0  0  0  0  0  0  0
    1.5030    5.5567    8.1294 H   0  0  0  0  0  0  0  0  0  0  0  0
    0.1279    4.3429    5.8833 H   0  0  0  0  0  0  0  0  0  0  0  0
    1.6262    5.1140    5.3124 H   0  0  0  0  0  0  0  0  0  0  0  0
    2.5301    3.1420    4.5892 H   0  0  0  0  0  0  0  0  0  0  0  0
    0.4887    3.6031    2.9969 H   0  0  0  0  0  0  0  0  0  0  0  0
    1.6823    2.2302    1.4974 H   0  0  0  0  0  0  0  0  0  0  0  0
    5.2881   -3.0905    2.5881 H   0  0  0  0  0  0  0  0  0  0  0  0
    6.5534   -2.1811    0.4650 H   0  0  0  0  0  0  0  0  0  0  0  0
    6.7753   -1.1789    1.9006 H   0  0  0  0  0  0  0  0  0  0  0  0
    6.3832   -0.4223    0.3764 H   0  0  0  0  0  0  0  0  0  0  0  0
    4.1103   -2.4060   -0.5373 H   0  0  0  0  0  0  0  0  0  0  0  0
    4.0062   -0.6442   -0.6101 H   0  0  0  0  0  0  0  0  0  0  0  0
    2.7894   -1.5702    0.2538 H   0  0  0  0  0  0  0  0  0  0  0  0
    2.4415   -2.2978    4.9782 H   0  0  0  0  0  0  0  0  0  0  0  0
    5.4935   -1.4180    4.2972 H   0  0  0  0  0  0  0  0  0  0  0  0
    3.9035    0.2565    6.0478 H   0  0  0  0  0  0  0  0  0  0  0  0
    4.8686    0.7080    4.6683 H   0  0  0  0  0  0  0  0  0  0  0  0
    1.6722   -0.3501    5.8243 H   0  0  0  0  0  0  0  0  0  0  0  0
    3.3971    2.3843    6.6271 H   0  0  0  0  0  0  0  0  0  0  0  0
    2.2899    1.8195    7.8937 H   0  0  0  0  0  0  0  0  0  0  0  0
    0.1159   -0.9940    3.2496 H   0  0  0  0  0  0  0  0  0  0  0  0
   -2.4924    1.7765    4.0745 H   0  0  0  0  0  0  0  0  0  0  0  0
   -1.8768    3.1515    3.1827 H   0  0  0  0  0  0  0  0  0  0  0  0
   -1.4978    3.0030    4.8720 H   0  0  0  0  0  0  0  0  0  0  0  0
   -1.6681    0.5438    2.1625 H   0  0  0  0  0  0  0  0  0  0  0  0
    0.0333    0.3776    1.7382 H   0  0  0  0  0  0  0  0  0  0  0  0
   -0.7971    1.8698    1.4321 H   0  0  0  0  0  0  0  0  0  0  0  0
    4.8235   -2.2670    7.7807 H   0  0  0  0  0  0  0  0  0  0  0  0
    3.5114   -3.4364    7.4651 H   0  0  0  0  0  0  0  0  0  0  0  0
    3.2487   -1.7126    7.1990 H   0  0  0  0  0  0  0  0  0  0  0  0
    6.3091   -3.6129    6.2126 H   0  0  0  0  0  0  0  0  0  0  0  0
    5.7814   -3.8985    4.5539 H   0  0  0  0  0  0  0  0  0  0  0  0
    4.9702   -4.7289    5.8742 H   0  0  0  0  0  0  0  0  0  0  0  0
  1  2  2  0
  1 34  1  0
  1 35  1  0
  2 22  1  0
  2  3  1  0
  3  4  1  0
  3 36  1  0
  3 37  1  0
  4 21  1  0
  4  5  1  0
  4 38  1  6
  5 28  1  0
  5  6  1  0
  5 39  1  6
  6  7  2  0
  6 40  1  0
  7 19  1  0
  7  8  1  0
  8 15  1  1
  8 19  1  0
  8  9  1  0
  9 10  1  0
 10 11  2  0
 10 16  1  0
 11 12  1  0
 11 41  1  0
 12 13  1  0
 12 14  1  0
 12 15  1  0
 13 42  1  0
 13 43  1  0
 13 44  1  0
 14 45  1  0
 14 46  1  0
 14 47  1  0
 16 31  1  0
 16 17  1  0
 16 48  1  1
 17 18  1  0
 17 31  1  0
 17 49  1  6
 19 18  1  1
 18 50  1  0
 18 51  1  0
 19 20  1  0
 20 26  1  0
 20 21  1  0
 20 52  1  1
 21 22  1  0
 21 23  1  1
 22 53  1  0
 22 54  1  0
 23 24  1  0
 24 25  2  0
 24 26  1  0
 26 27  1  6
 26 28  1  0
 27 55  1  0
 28 29  1  0
 28 30  1  0
 29 56  1  0
 29 57  1  0
 29 58  1  0
 30 59  1  0
 30 60  1  0
 30 61  1  0
 31 32  1  0
 31 33  1  0
 32 62  1  0
 32 63  1  0
 32 64  1  0
 33 65  1  0
 33 66  1  0
 33 67  1  0
M  END
>  <i_m_ct_stereo_status>  (156) 
1

>  <s_m_source_file>  (156) 
/var/tmp/pbs.5076255.sched01/tmpb5cfx69f/43pm4c6kpw.sdf

>  <i_m_source_file_index>  (156) 
22

>  <i_lp_mmshare_version>  (156) 
48012

>  <i_f3d_flags>  (156) 
0

>  <s_epik_input>  (156) 
TzFDKD1PKVtDQEBdKFtPSF0pKEMyKFtDSDNdKVtDSDNdKVtDQEBIXTNbQ0BAXTEoW0NIMl1DKD1bQ0gyXSlbQ0gyXTQpW0NASF00W0NASF0yW0NIXT1DNUMzKEM1NjcpW0NIMl1bQ0BASF04W0NASF0oQzgoW0NIM10pW0NIM10pQyhPNik9W0NIXUMoTzcpKFtDSDNdKVtDSDNd

>  <s_epik_cmdline>  (156) 
J2VwaWtfcHl0aG9uJywgJy1waHQnLCAnMi4wJywgJy1waCcsICc3LjAnLCAnLXRuJywgJzgnLCAnLW1hJywgJzIwMCcsICctaW1hZScsICc8aW5maWxlLm1hZT4nLCAnLW9tYWUnLCAnPG91dGZpbGUubWFlPic=

>  <r_lp_tautomer_probability>  (156) 
1

>  <r_epik_Ionization_Penalty>  (156) 
2.87672e-07

>  <r_epik_Ionization_Penalty_Charging>  (156) 
0

>  <r_epik_Ionization_Penalty_Neutral>  (156) 
2.87672e-07

>  <r_epik_State_Penalty>  (156) 
-0

>  <r_epik_Charging_Adjusted_Penalty>  (156) 
0

>  <i_epik_Tot_Q>  (156) 
0

>  <i_epik_Tot_abs_Q>  (156) 
0

>  <s_epik_Chemistry_Notes>  (156) 
This compound has an ester and may undergo hydrolysis at high or low pH.

>  <s_lp_Force_Field>  (156) 
OPLS3e

>  <r_lp_Energy>  (156) 
176.407

>  <b_lp_Chiralities_Consistent>  (156) 
1

>  <s_lp_Variant>  (156) 
44:0-2

>  <s_i_glide_gridfile>  (156) 
pfpi4k_grid

>  <i_i_glide_lignum>  (156) 
22

>  <i_i_glide_rotatable_bonds>  (156) 
1

>  <r_i_docking_score>  (156) 
-3.2166

>  <r_i_glide_ligand_efficiency>  (156) 
-0.0974726

>  <r_i_glide_ligand_efficiency_sa>  (156) 
-0.312647

>  <r_i_glide_ligand_efficiency_ln>  (156) 
-0.715354

>  <r_i_glide_gscore>  (156) 
-3.2166

>  <r_i_glide_lipo>  (156) 
-0.239232

>  <r_i_glide_hbond>  (156) 
-0.16

>  <r_i_glide_metal>  (156) 
-0

>  <r_i_glide_rewards>  (156) 
-0.837046

>  <r_i_glide_evdw>  (156) 
-26.7827

>  <r_i_glide_ecoul>  (156) 
-4.09892

>  <r_i_glide_erotb>  (156) 
0

>  <r_i_glide_esite>  (156) 
-0.0263465

>  <r_i_glide_emodel>  (156) 
-41.906

>  <r_i_glide_energy>  (156) 
-30.8816

>  <r_i_glide_einternal>  (156) 
0.00614262

>  <r_i_glide_intrahb_reward>  (156) 
-0.5

>  <i_i_glide_confnum>  (156) 
2

>  <i_i_glide_posenum>  (156) 
20

>  <r_i_glide_eff_state_penalty>  (156) 
0

>  <ligand_id>  (156) 
44

>  <original_smiles>  (156) 
C=C1CC2C3C=C4C56OC(=CC(C)(C)O5)C5C(CC46C4C2(C1)OC(=O)C4(O)C3(C)C)C5(C)C

>  <smiles>  (156) 
[H]OC12C(=O)OC34C([H])([H])C(=C([H])[H])C([H])([H])C3([H])C([H])(C([H])=C3C56OC(=C([H])C(C([H])([H])[H])(C([H])([H])[H])O5)C5([H])C([H])(C([H])([H])C36C14[H])C5(C([H])([H])[H])C([H])([H])[H])C2(C([H])([H])[H])C([H])([H])[H]

$$$$
44:1:1
     RDKit          3D

 67 74  0  0  1  0  0  0  0  0999 V2000
   -0.9582    1.5727    2.5962 C   0  0  0  0  0  0  0  0  0  0  0  0
   -0.1464    0.5671    2.9861 C   0  0  0  0  0  0  0  0  0  0  0  0
   -0.3240   -0.2463    4.2546 C   0  0  0  0  0  0  0  0  0  0  0  0
    0.8238   -1.2436    4.1270 C   0  0  2  0  0  0  0  0  0  0  0  0
    1.3293   -2.1681    5.2667 C   0  0  1  0  0  0  0  0  0  0  0  0
    1.6586   -3.5185    4.6685 C   0  0  0  0  0  0  0  0  0  0  0  0
    2.3808   -3.5809    3.5486 C   0  0  0  0  0  0  0  0  0  0  0  0
    3.6021   -4.2509    3.1393 C   0  0  1  0  0  0  0  0  0  0  0  0
    4.9395   -3.7751    3.2257 O   0  0  0  0  0  0  0  0  0  0  0  0
    5.6373   -4.0525    2.0633 C   0  0  0  0  0  0  0  0  0  0  0  0
    5.5688   -5.2996    1.5327 C   0  0  0  0  0  0  0  0  0  0  0  0
    4.4465   -6.1796    2.0087 C   0  0  0  0  0  0  0  0  0  0  0  0
    3.9842   -7.1479    0.9100 C   0  0  0  0  0  0  0  0  0  0  0  0
    4.7923   -6.9390    3.2987 C   0  0  0  0  0  0  0  0  0  0  0  0
    3.3316   -5.2963    2.2104 O   0  0  0  0  0  0  0  0  0  0  0  0
    5.6190   -2.8021    1.2973 C   0  0  2  0  0  0  0  0  0  0  0  0
    4.3195   -2.9940    0.4495 C   0  0  1  0  0  0  0  0  0  0  0  0
    3.0330   -2.5342    1.1519 C   0  0  0  0  0  0  0  0  0  0  0  0
    3.1221   -2.7084    2.6864 C   0  0  1  0  0  0  0  0  0  0  0  0
    3.2485   -1.2813    3.3397 C   0  0  1  0  0  0  0  0  0  0  0  0
    1.9337   -0.4493    3.4186 C   0  0  1  0  0  0  0  0  0  0  0  0
    1.1308    0.1606    2.2616 C   0  0  0  0  0  0  0  0  0  0  0  0
    2.3797    0.6883    4.1620 O   0  0  0  0  0  0  0  0  0  0  0  0
    3.4881    0.4354    4.8353 C   0  0  0  0  0  0  0  0  0  0  0  0
    4.2256    1.2497    5.3884 O   0  0  0  0  0  0  0  0  0  0  0  0
    3.6380   -1.0705    4.8472 C   0  0  2  0  0  0  0  0  0  0  0  0
    5.0015   -1.4003    5.0924 O   0  0  0  0  0  0  0  0  0  0  0  0
    2.6317   -1.6515    5.9694 C   0  0  0  0  0  0  0  0  0  0  0  0
    2.1499   -0.6405    7.0554 C   0  0  0  0  0  0  0  0  0  0  0  0
    3.3148   -2.7638    6.8172 C   0  0  0  0  0  0  0  0  0  0  0  0
    5.5115   -2.3042   -0.1274 C   0  0  0  0  0  0  0  0  0  0  0  0
    5.4195   -0.8176   -0.3524 C   0  0  0  0  0  0  0  0  0  0  0  0
    6.3812   -2.9514   -1.1837 C   0  0  0  0  0  0  0  0  0  0  0  0
   -0.7347    2.1280    1.7026 H   0  0  0  0  0  0  0  0  0  0  0  0
   -1.8262    1.8466    3.1716 H   0  0  0  0  0  0  0  0  0  0  0  0
   -0.2134    0.4071    5.1205 H   0  0  0  0  0  0  0  0  0  0  0  0
   -1.3056   -0.7277    4.2880 H   0  0  0  0  0  0  0  0  0  0  0  0
    0.4178   -1.9387    3.3886 H   0  0  0  0  0  0  0  0  0  0  0  0
    0.5328   -2.3648    5.9842 H   0  0  0  0  0  0  0  0  0  0  0  0
    1.6460   -4.3623    5.3294 H   0  0  0  0  0  0  0  0  0  0  0  0
    5.8646   -5.4725    0.5090 H   0  0  0  0  0  0  0  0  0  0  0  0
    4.7687   -7.8592    0.6376 H   0  0  0  0  0  0  0  0  0  0  0  0
    3.6962   -6.6114    0.0084 H   0  0  0  0  0  0  0  0  0  0  0  0
    3.1137   -7.7237    1.2330 H   0  0  0  0  0  0  0  0  0  0  0  0
    5.6179   -7.6341    3.1308 H   0  0  0  0  0  0  0  0  0  0  0  0
    3.9385   -7.5099    3.6695 H   0  0  0  0  0  0  0  0  0  0  0  0
    5.1025   -6.2616    4.0898 H   0  0  0  0  0  0  0  0  0  0  0  0
    5.6956   -1.9869    2.0049 H   0  0  0  0  0  0  0  0  0  0  0  0
    4.1254   -3.9211   -0.0784 H   0  0  0  0  0  0  0  0  0  0  0  0
    2.8154   -1.5090    0.8532 H   0  0  0  0  0  0  0  0  0  0  0  0
    2.2146   -3.1405    0.7810 H   0  0  0  0  0  0  0  0  0  0  0  0
    3.9591   -0.7229    2.7221 H   0  0  0  0  0  0  0  0  0  0  0  0
    0.8547   -0.5963    1.5344 H   0  0  0  0  0  0  0  0  0  0  0  0
    1.6168    0.9896    1.7399 H   0  0  0  0  0  0  0  0  0  0  0  0
    5.0819   -2.3464    5.0755 H   0  0  0  0  0  0  0  0  0  0  0  0
    2.9884   -0.1815    7.5876 H   0  0  0  0  0  0  0  0  0  0  0  0
    1.5419   -1.1390    7.8083 H   0  0  0  0  0  0  0  0  0  0  0  0
    1.5253    0.1596    6.6560 H   0  0  0  0  0  0  0  0  0  0  0  0
    4.0697   -2.3461    7.4902 H   0  0  0  0  0  0  0  0  0  0  0  0
    3.8142   -3.5235    6.2173 H   0  0  0  0  0  0  0  0  0  0  0  0
    2.5888   -3.2784    7.4482 H   0  0  0  0  0  0  0  0  0  0  0  0
    4.9556   -0.6107   -1.3181 H   0  0  0  0  0  0  0  0  0  0  0  0
    6.4089   -0.3728   -0.3035 H   0  0  0  0  0  0  0  0  0  0  0  0
    4.8174   -0.3567    0.4273 H   0  0  0  0  0  0  0  0  0  0  0  0
    5.9703   -2.7815   -2.1801 H   0  0  0  0  0  0  0  0  0  0  0  0
    6.4355   -4.0201   -1.0158 H   0  0  0  0  0  0  0  0  0  0  0  0
    7.3966   -2.5581   -1.1412 H   0  0  0  0  0  0  0  0  0  0  0  0
  1  2  2  0
  1 34  1  0
  1 35  1  0
  2 22  1  0
  2  3  1  0
  3  4  1  0
  3 36  1  0
  3 37  1  0
  4 21  1  0
  4  5  1  0
  4 38  1  6
  5 28  1  0
  5  6  1  0
  5 39  1  1
  6  7  2  0
  6 40  1  0
  7 19  1  0
  7  8  1  0
  8 15  1  6
  8 19  1  0
  8  9  1  0
  9 10  1  0
 10 11  2  0
 10 16  1  0
 11 12  1  0
 11 41  1  0
 12 13  1  0
 12 14  1  0
 12 15  1  0
 13 42  1  0
 13 43  1  0
 13 44  1  0
 14 45  1  0
 14 46  1  0
 14 47  1  0
 16 31  1  0
 16 17  1  0
 16 48  1  1
 17 18  1  0
 17 31  1  0
 17 49  1  6
 19 18  1  6
 18 50  1  0
 18 51  1  0
 19 20  1  0
 20 26  1  0
 20 21  1  0
 20 52  1  6
 21 22  1  0
 21 23  1  1
 22 53  1  0
 22 54  1  0
 23 24  1  0
 24 25  2  0
 24 26  1  0
 26 27  1  6
 26 28  1  0
 27 55  1  0
 28 29  1  0
 28 30  1  0
 29 56  1  0
 29 57  1  0
 29 58  1  0
 30 59  1  0
 30 60  1  0
 30 61  1  0
 31 32  1  0
 31 33  1  0
 32 62  1  0
 32 63  1  0
 32 64  1  0
 33 65  1  0
 33 66  1  0
 33 67  1  0
M  END
>  <i_m_ct_stereo_status>  (157) 
1

>  <s_m_source_file>  (157) 
/var/tmp/pbs.5076255.sched01/tmpb5cfx69f/43pm4c6kpw.sdf

>  <i_m_source_file_index>  (157) 
22

>  <i_lp_mmshare_version>  (157) 
48012

>  <i_f3d_flags>  (157) 
0

>  <s_epik_input>  (157) 
TzFDKD1PKVtDQEBdKFtPSF0pKEMyKFtDSDNdKVtDSDNdKVtDQEBIXTNbQ0BAXTEoW0NIMl1DKD1bQ0gyXSlbQ0gyXTQpW0NASF00W0NASF0yW0NIXT1DNUMzKEM1NjcpW0NIMl1bQ0BASF04W0NASF0oQzgoW0NIM10pW0NIM10pQyhPNik9W0NIXUMoTzcpKFtDSDNdKVtDSDNd

>  <s_epik_cmdline>  (157) 
J2VwaWtfcHl0aG9uJywgJy1waHQnLCAnMi4wJywgJy1waCcsICc3LjAnLCAnLXRuJywgJzgnLCAnLW1hJywgJzIwMCcsICctaW1hZScsICc8aW5maWxlLm1hZT4nLCAnLW9tYWUnLCAnPG91dGZpbGUubWFlPic=

>  <r_lp_tautomer_probability>  (157) 
1

>  <r_epik_Ionization_Penalty>  (157) 
2.87672e-07

>  <r_epik_Ionization_Penalty_Charging>  (157) 
0

>  <r_epik_Ionization_Penalty_Neutral>  (157) 
2.87672e-07

>  <r_epik_State_Penalty>  (157) 
-0

>  <r_epik_Charging_Adjusted_Penalty>  (157) 
0

>  <i_epik_Tot_Q>  (157) 
0

>  <i_epik_Tot_abs_Q>  (157) 
0

>  <s_epik_Chemistry_Notes>  (157) 
This compound has an ester and may undergo hydrolysis at high or low pH.

>  <s_lp_Force_Field>  (157) 
OPLS3e

>  <r_lp_Energy>  (157) 
176.407

>  <b_lp_Chiralities_Consistent>  (157) 
1

>  <s_lp_Variant>  (157) 
44:0-2

>  <s_i_glide_gridfile>  (157) 
pfpi4k_grid

>  <i_i_glide_lignum>  (157) 
22

>  <i_i_glide_rotatable_bonds>  (157) 
1

>  <r_i_docking_score>  (157) 
-2.71596

>  <r_i_glide_ligand_efficiency>  (157) 
-0.0823019

>  <r_i_glide_ligand_efficiency_sa>  (157) 
-0.263986

>  <r_i_glide_ligand_efficiency_ln>  (157) 
-0.604016

>  <r_i_glide_gscore>  (157) 
-2.71596

>  <r_i_glide_lipo>  (157) 
-0.34701

>  <r_i_glide_hbond>  (157) 
0

>  <r_i_glide_metal>  (157) 
-0

>  <r_i_glide_rewards>  (157) 
-0.83907

>  <r_i_glide_evdw>  (157) 
-27.3046

>  <r_i_glide_ecoul>  (157) 
-1.09768

>  <r_i_glide_erotb>  (157) 
0

>  <r_i_glide_esite>  (157) 
0

>  <r_i_glide_emodel>  (157) 
-38.6412

>  <r_i_glide_energy>  (157) 
-28.4023

>  <r_i_glide_einternal>  (157) 
0.000141619

>  <r_i_glide_intrahb_reward>  (157) 
-0.5

>  <i_i_glide_confnum>  (157) 
2

>  <i_i_glide_posenum>  (157) 
26

>  <r_i_glide_eff_state_penalty>  (157) 
0

>  <ligand_id>  (157) 
44

>  <original_smiles>  (157) 
C=C1CC2C3C=C4C56OC(=CC(C)(C)O5)C5C(CC46C4C2(C1)OC(=O)C4(O)C3(C)C)C5(C)C

>  <smiles>  (157) 
[H]OC12C(=O)OC34C([H])([H])C(=C([H])[H])C([H])([H])C3([H])C([H])(C([H])=C3C56OC(=C([H])C(C([H])([H])[H])(C([H])([H])[H])O5)C5([H])C([H])(C([H])([H])C36C14[H])C5(C([H])([H])[H])C([H])([H])[H])C2(C([H])([H])[H])C([H])([H])[H]

$$$$
44:1:2
     RDKit          3D

 67 74  0  0  1  0  0  0  0  0999 V2000
    2.0785    6.8849    5.1358 C   0  0  0  0  0  0  0  0  0  0  0  0
    1.8865    5.5958    4.8390 C   0  0  0  0  0  0  0  0  0  0  0  0
    0.8293    5.0725    3.8720 C   0  0  0  0  0  0  0  0  0  0  0  0
    1.1119    3.5699    3.8928 C   0  0  2  0  0  0  0  0  0  0  0  0
    0.1752    2.4770    3.3057 C   0  0  1  0  0  0  0  0  0  0  0  0
    1.0297    1.4345    2.6294 C   0  0  0  0  0  0  0  0  0  0  0  0
    2.0929    0.9484    3.2775 C   0  0  0  0  0  0  0  0  0  0  0  0
    2.5963   -0.3581    3.6511 C   0  0  1  0  0  0  0  0  0  0  0  0
    2.3425   -1.1056    4.8285 O   0  0  0  0  0  0  0  0  0  0  0  0
    3.5034   -1.6877    5.3002 C   0  0  0  0  0  0  0  0  0  0  0  0
    4.2969   -2.3682    4.4423 C   0  0  0  0  0  0  0  0  0  0  0  0
    4.0736   -2.1127    2.9713 C   0  0  0  0  0  0  0  0  0  0  0  0
    5.3801   -2.2610    2.1676 C   0  0  0  0  0  0  0  0  0  0  0  0
    2.9596   -2.9988    2.3807 C   0  0  0  0  0  0  0  0  0  0  0  0
    3.7417   -0.7229    2.8801 O   0  0  0  0  0  0  0  0  0  0  0  0
    3.9838   -0.7957    6.3725 C   0  0  2  0  0  0  0  0  0  0  0  0
    4.9124    0.1699    5.5669 C   0  0  1  0  0  0  0  0  0  0  0  0
    4.1810    1.3640    4.9510 C   0  0  0  0  0  0  0  0  0  0  0  0
    2.7205    1.0327    4.5752 C   0  0  1  0  0  0  0  0  0  0  0  0
    1.7713    1.7707    5.5774 C   0  0  1  0  0  0  0  0  0  0  0  0
    1.5790    3.3027    5.3324 C   0  0  1  0  0  0  0  0  0  0  0  0
    2.6185    4.4200    5.4914 C   0  0  0  0  0  0  0  0  0  0  0  0
    0.5889    3.5994    6.3225 O   0  0  0  0  0  0  0  0  0  0  0  0
   -0.0730    2.5307    6.7124 C   0  0  0  0  0  0  0  0  0  0  0  0
   -0.8353    2.4233    7.6732 O   0  0  0  0  0  0  0  0  0  0  0  0
    0.2313    1.4430    5.6887 C   0  0  2  0  0  0  0  0  0  0  0  0
   -0.0089    0.1734    6.2683 O   0  0  0  0  0  0  0  0  0  0  0  0
   -0.6803    1.7397    4.3926 C   0  0  0  0  0  0  0  0  0  0  0  0
   -1.9376    2.6410    4.6213 C   0  0  0  0  0  0  0  0  0  0  0  0
   -1.2981    0.4217    3.8495 C   0  0  0  0  0  0  0  0  0  0  0  0
    5.2659   -0.2518    6.9582 C   0  0  0  0  0  0  0  0  0  0  0  0
    5.1773    0.7871    8.0545 C   0  0  0  0  0  0  0  0  0  0  0  0
    6.4001   -1.2182    7.2331 C   0  0  0  0  0  0  0  0  0  0  0  0
    2.8192    7.1828    5.8635 H   0  0  0  0  0  0  0  0  0  0  0  0
    1.4891    7.6626    4.6643 H   0  0  0  0  0  0  0  0  0  0  0  0
   -0.1644    5.3103    4.2509 H   0  0  0  0  0  0  0  0  0  0  0  0
    0.9425    5.5088    2.8798 H   0  0  0  0  0  0  0  0  0  0  0  0
    1.9960    3.5209    3.2542 H   0  0  0  0  0  0  0  0  0  0  0  0
   -0.4464    2.8935    2.5112 H   0  0  0  0  0  0  0  0  0  0  0  0
    0.5745    0.8409    1.8565 H   0  0  0  0  0  0  0  0  0  0  0  0
    5.3176   -2.5980    4.7095 H   0  0  0  0  0  0  0  0  0  0  0  0
    5.7609   -3.2814    2.2037 H   0  0  0  0  0  0  0  0  0  0  0  0
    6.1596   -1.6001    2.5530 H   0  0  0  0  0  0  0  0  0  0  0  0
    5.2295   -1.9952    1.1220 H   0  0  0  0  0  0  0  0  0  0  0  0
    3.2337   -4.0520    2.4300 H   0  0  0  0  0  0  0  0  0  0  0  0
    2.7607   -2.7432    1.3408 H   0  0  0  0  0  0  0  0  0  0  0  0
    2.0258   -2.8832    2.9313 H   0  0  0  0  0  0  0  0  0  0  0  0
    3.1095   -0.4029    6.8958 H   0  0  0  0  0  0  0  0  0  0  0  0
    5.6385   -0.2183    4.8513 H   0  0  0  0  0  0  0  0  0  0  0  0
    4.2601    2.2177    5.6253 H   0  0  0  0  0  0  0  0  0  0  0  0
    4.7013    1.6548    4.0431 H   0  0  0  0  0  0  0  0  0  0  0  0
    2.2186    1.6485    6.5688 H   0  0  0  0  0  0  0  0  0  0  0  0
    3.5122    4.2258    4.8953 H   0  0  0  0  0  0  0  0  0  0  0  0
    2.9198    4.6242    6.5180 H   0  0  0  0  0  0  0  0  0  0  0  0
    0.2839   -0.4804    5.6545 H   0  0  0  0  0  0  0  0  0  0  0  0
   -2.5801    2.2380    5.4008 H   0  0  0  0  0  0  0  0  0  0  0  0
   -2.5379    2.7047    3.7107 H   0  0  0  0  0  0  0  0  0  0  0  0
   -1.6880    3.6686    4.8828 H   0  0  0  0  0  0  0  0  0  0  0  0
   -2.0835    0.0419    4.5065 H   0  0  0  0  0  0  0  0  0  0  0  0
   -0.5688   -0.3804    3.7215 H   0  0  0  0  0  0  0  0  0  0  0  0
   -1.7600    0.5916    2.8752 H   0  0  0  0  0  0  0  0  0  0  0  0
    6.0923    1.3786    8.0943 H   0  0  0  0  0  0  0  0  0  0  0  0
    5.0057    0.3065    9.0187 H   0  0  0  0  0  0  0  0  0  0  0  0
    4.3420    1.4604    7.8622 H   0  0  0  0  0  0  0  0  0  0  0  0
    7.3515   -0.6913    7.2910 H   0  0  0  0  0  0  0  0  0  0  0  0
    6.4710   -1.9697    6.4484 H   0  0  0  0  0  0  0  0  0  0  0  0
    6.2241   -1.7401    8.1740 H   0  0  0  0  0  0  0  0  0  0  0  0
  1  2  2  0
  1 34  1  0
  1 35  1  0
  2 22  1  0
  2  3  1  0
  3  4  1  0
  3 36  1  0
  3 37  1  0
  4 21  1  0
  4  5  1  0
  4 38  1  6
  5 28  1  0
  5  6  1  0
  5 39  1  6
  6  7  2  0
  6 40  1  0
  7 19  1  0
  7  8  1  0
  8 15  1  6
  8 19  1  0
  8  9  1  0
  9 10  1  0
 10 11  2  0
 10 16  1  0
 11 12  1  0
 11 41  1  0
 12 13  1  0
 12 14  1  0
 12 15  1  0
 13 42  1  0
 13 43  1  0
 13 44  1  0
 14 45  1  0
 14 46  1  0
 14 47  1  0
 16 31  1  0
 16 17  1  0
 16 48  1  1
 17 18  1  0
 17 31  1  0
 17 49  1  6
 19 18  1  6
 18 50  1  0
 18 51  1  0
 19 20  1  0
 20 26  1  0
 20 21  1  0
 20 52  1  1
 21 22  1  0
 21 23  1  1
 22 53  1  0
 22 54  1  0
 23 24  1  0
 24 25  2  0
 24 26  1  0
 26 27  1  1
 26 28  1  0
 27 55  1  0
 28 29  1  0
 28 30  1  0
 29 56  1  0
 29 57  1  0
 29 58  1  0
 30 59  1  0
 30 60  1  0
 30 61  1  0
 31 32  1  0
 31 33  1  0
 32 62  1  0
 32 63  1  0
 32 64  1  0
 33 65  1  0
 33 66  1  0
 33 67  1  0
M  END
>  <i_m_ct_stereo_status>  (158) 
1

>  <s_m_source_file>  (158) 
/var/tmp/pbs.5076255.sched01/tmpb5cfx69f/43pm4c6kpw.sdf

>  <i_m_source_file_index>  (158) 
22

>  <i_lp_mmshare_version>  (158) 
48012

>  <i_f3d_flags>  (158) 
0

>  <s_epik_input>  (158) 
TzFDKD1PKVtDQEBdKFtPSF0pKEMyKFtDSDNdKVtDSDNdKVtDQEBIXTNbQ0BAXTEoW0NIMl1DKD1bQ0gyXSlbQ0gyXTQpW0NASF00W0NASF0yW0NIXT1DNUMzKEM1NjcpW0NIMl1bQ0BASF04W0NASF0oQzgoW0NIM10pW0NIM10pQyhPNik9W0NIXUMoTzcpKFtDSDNdKVtDSDNd

>  <s_epik_cmdline>  (158) 
J2VwaWtfcHl0aG9uJywgJy1waHQnLCAnMi4wJywgJy1waCcsICc3LjAnLCAnLXRuJywgJzgnLCAnLW1hJywgJzIwMCcsICctaW1hZScsICc8aW5maWxlLm1hZT4nLCAnLW9tYWUnLCAnPG91dGZpbGUubWFlPic=

>  <r_lp_tautomer_probability>  (158) 
1

>  <r_epik_Ionization_Penalty>  (158) 
2.87672e-07

>  <r_epik_Ionization_Penalty_Charging>  (158) 
0

>  <r_epik_Ionization_Penalty_Neutral>  (158) 
2.87672e-07

>  <r_epik_State_Penalty>  (158) 
-0

>  <r_epik_Charging_Adjusted_Penalty>  (158) 
0

>  <i_epik_Tot_Q>  (158) 
0

>  <i_epik_Tot_abs_Q>  (158) 
0

>  <s_epik_Chemistry_Notes>  (158) 
This compound has an ester and may undergo hydrolysis at high or low pH.

>  <s_lp_Force_Field>  (158) 
OPLS3e

>  <r_lp_Energy>  (158) 
176.407

>  <b_lp_Chiralities_Consistent>  (158) 
1

>  <s_lp_Variant>  (158) 
44:0-2

>  <s_i_glide_gridfile>  (158) 
pfpi4k_grid

>  <i_i_glide_lignum>  (158) 
22

>  <i_i_glide_rotatable_bonds>  (158) 
1

>  <r_i_docking_score>  (158) 
-2.57155

>  <r_i_glide_ligand_efficiency>  (158) 
-0.0779257

>  <r_i_glide_ligand_efficiency_sa>  (158) 
-0.249949

>  <r_i_glide_ligand_efficiency_ln>  (158) 
-0.571899

>  <r_i_glide_gscore>  (158) 
-2.57155

>  <r_i_glide_lipo>  (158) 
-0.126424

>  <r_i_glide_hbond>  (158) 
0

>  <r_i_glide_metal>  (158) 
-0

>  <r_i_glide_rewards>  (158) 
-0.837046

>  <r_i_glide_evdw>  (158) 
-24.3846

>  <r_i_glide_ecoul>  (158) 
-2.58692

>  <r_i_glide_erotb>  (158) 
0

>  <r_i_glide_esite>  (158) 
-0.000810417

>  <r_i_glide_emodel>  (158) 
-36.9132

>  <r_i_glide_energy>  (158) 
-26.9715

>  <r_i_glide_einternal>  (158) 
0.0331045

>  <r_i_glide_intrahb_reward>  (158) 
-0.5

>  <i_i_glide_confnum>  (158) 
2

>  <i_i_glide_posenum>  (158) 
15

>  <r_i_glide_eff_state_penalty>  (158) 
0

>  <ligand_id>  (158) 
44

>  <original_smiles>  (158) 
C=C1CC2C3C=C4C56OC(=CC(C)(C)O5)C5C(CC46C4C2(C1)OC(=O)C4(O)C3(C)C)C5(C)C

>  <smiles>  (158) 
[H]OC12C(=O)OC34C([H])([H])C(=C([H])[H])C([H])([H])C3([H])C([H])(C([H])=C3C56OC(=C([H])C(C([H])([H])[H])(C([H])([H])[H])O5)C5([H])C([H])(C([H])([H])C36C14[H])C5(C([H])([H])[H])C([H])([H])[H])C2(C([H])([H])[H])C([H])([H])[H]

$$$$
44:2:0
     RDKit          3D

 67 74  0  0  1  0  0  0  0  0999 V2000
    2.6259   -4.7895    0.5171 C   0  0  0  0  0  0  0  0  0  0  0  0
    2.4292   -5.5988    1.5644 C   0  0  0  0  0  0  0  0  0  0  0  0
    2.7324   -7.0981    1.5657 C   0  0  0  0  0  0  0  0  0  0  0  0
    2.5105   -7.4036    3.0501 C   0  0  2  0  0  0  0  0  0  0  0  0
    2.5052   -8.7905    3.7345 C   0  0  1  0  0  0  0  0  0  0  0  0
    3.2411   -8.5147    5.0263 C   0  0  0  0  0  0  0  0  0  0  0  0
    2.6674   -7.7179    5.9456 C   0  0  0  0  0  0  0  0  0  0  0  0
    3.0735   -6.6464    6.7427 C   0  0  2  0  0  0  0  0  0  0  0  0
    3.0155   -5.2206    6.5332 O   0  0  0  0  0  0  0  0  0  0  0  0
    3.0665   -4.5553    7.7534 C   0  0  0  0  0  0  0  0  0  0  0  0
    4.0748   -4.9053    8.5875 C   0  0  0  0  0  0  0  0  0  0  0  0
    4.5964   -6.3286    8.4475 C   0  0  0  0  0  0  0  0  0  0  0  0
    5.7934   -6.4155    7.4609 C   0  0  0  0  0  0  0  0  0  0  0  0
    5.0027   -6.9339    9.8008 C   0  0  0  0  0  0  0  0  0  0  0  0
    3.4992   -7.1200    8.0235 O   0  0  0  0  0  0  0  0  0  0  0  0
    1.7335   -4.5920    8.4041 C   0  0  2  0  0  0  0  0  0  0  0  0
    0.6844   -4.9989    7.4078 C   0  0  1  0  0  0  0  0  0  0  0  0
    0.5737   -6.5049    7.3416 C   0  0  0  0  0  0  0  0  0  0  0  0
    1.4796   -6.9217    6.1577 C   0  0  2  0  0  0  0  0  0  0  0  0
    0.6850   -6.8418    4.8193 C   0  0  1  0  0  0  0  0  0  0  0  0
    1.3265   -6.5120    3.4240 C   0  0  1  0  0  0  0  0  0  0  0  0
    1.7993   -5.1606    2.8938 C   0  0  0  0  0  0  0  0  0  0  0  0
    0.2041   -6.8235    2.5972 O   0  0  0  0  0  0  0  0  0  0  0  0
   -0.6290   -7.6766    3.1170 C   0  0  0  0  0  0  0  0  0  0  0  0
   -1.7394   -8.0096    2.7206 O   0  0  0  0  0  0  0  0  0  0  0  0
    0.0258   -8.2116    4.3851 C   0  0  2  0  0  0  0  0  0  0  0  0
   -0.9671   -8.6582    5.2870 O   0  0  0  0  0  0  0  0  0  0  0  0
    1.0859   -9.3608    4.0402 C   0  0  0  0  0  0  0  0  0  0  0  0
    0.6689  -10.2061    2.8180 C   0  0  0  0  0  0  0  0  0  0  0  0
    1.1532  -10.4109    5.1935 C   0  0  0  0  0  0  0  0  0  0  0  0
    0.4299   -3.8344    8.3620 C   0  0  0  0  0  0  0  0  0  0  0  0
   -0.6415   -4.0407    9.4035 C   0  0  0  0  0  0  0  0  0  0  0  0
    0.4477   -2.4075    7.8581 C   0  0  0  0  0  0  0  0  0  0  0  0
    2.3720   -3.7406    0.5562 H   0  0  0  0  0  0  0  0  0  0  0  0
    3.0470   -5.1611   -0.4137 H   0  0  0  0  0  0  0  0  0  0  0  0
    2.0182   -7.6217    0.9387 H   0  0  0  0  0  0  0  0  0  0  0  0
    3.7469   -7.3079    1.2286 H   0  0  0  0  0  0  0  0  0  0  0  0
    3.4055   -6.8985    3.4396 H   0  0  0  0  0  0  0  0  0  0  0  0
    3.1191   -9.5116    3.1882 H   0  0  0  0  0  0  0  0  0  0  0  0
    4.3219   -8.6585    5.0226 H   0  0  0  0  0  0  0  0  0  0  0  0
    4.0277   -4.6209    9.6267 H   0  0  0  0  0  0  0  0  0  0  0  0
    6.6582   -5.8653    7.8250 H   0  0  0  0  0  0  0  0  0  0  0  0
    5.5395   -5.9843    6.4895 H   0  0  0  0  0  0  0  0  0  0  0  0
    6.0849   -7.4491    7.2764 H   0  0  0  0  0  0  0  0  0  0  0  0
    5.8259   -6.3854   10.2636 H   0  0  0  0  0  0  0  0  0  0  0  0
    5.3099   -7.9745    9.6976 H   0  0  0  0  0  0  0  0  0  0  0  0
    4.1613   -6.9150   10.4989 H   0  0  0  0  0  0  0  0  0  0  0  0
    1.8156   -5.1850    9.3183 H   0  0  0  0  0  0  0  0  0  0  0  0
    0.7302   -4.5693    6.4001 H   0  0  0  0  0  0  0  0  0  0  0  0
    0.8840   -6.9824    8.2787 H   0  0  0  0  0  0  0  0  0  0  0  0
   -0.4648   -6.7591    7.1516 H   0  0  0  0  0  0  0  0  0  0  0  0
   -0.1044   -6.1086    4.9762 H   0  0  0  0  0  0  0  0  0  0  0  0
    2.5788   -4.7412    3.5249 H   0  0  0  0  0  0  0  0  0  0  0  0
    1.0107   -4.4241    2.7740 H   0  0  0  0  0  0  0  0  0  0  0  0
   -1.2992   -9.5285    5.0233 H   0  0  0  0  0  0  0  0  0  0  0  0
   -0.3435  -10.5960    2.8926 H   0  0  0  0  0  0  0  0  0  0  0  0
    1.3347  -11.0680    2.6933 H   0  0  0  0  0  0  0  0  0  0  0  0
    0.7547   -9.6402    1.8849 H   0  0  0  0  0  0  0  0  0  0  0  0
    0.2509  -11.0172    5.2599 H   0  0  0  0  0  0  0  0  0  0  0  0
    1.2956   -9.9627    6.1781 H   0  0  0  0  0  0  0  0  0  0  0  0
    1.9785  -11.1125    5.0422 H   0  0  0  0  0  0  0  0  0  0  0  0
   -1.6241   -3.8155    8.9938 H   0  0  0  0  0  0  0  0  0  0  0  0
   -0.4499   -3.4239   10.2876 H   0  0  0  0  0  0  0  0  0  0  0  0
   -0.6543   -5.0862    9.7142 H   0  0  0  0  0  0  0  0  0  0  0  0
   -0.5012   -2.1461    7.4118 H   0  0  0  0  0  0  0  0  0  0  0  0
    1.2192   -2.3041    7.0948 H   0  0  0  0  0  0  0  0  0  0  0  0
    0.6896   -1.7213    8.6692 H   0  0  0  0  0  0  0  0  0  0  0  0
  1  2  2  0
  1 34  1  0
  1 35  1  0
  2 22  1  0
  2  3  1  0
  3  4  1  0
  3 36  1  0
  3 37  1  0
  4 21  1  0
  4  5  1  0
  4 38  1  1
  5 28  1  0
  5  6  1  0
  5 39  1  6
  6  7  2  0
  6 40  1  0
  7 19  1  0
  7  8  1  0
  8 15  1  1
  8 19  1  0
  8  9  1  0
  9 10  1  0
 10 11  2  0
 10 16  1  0
 11 12  1  0
 11 41  1  0
 12 13  1  0
 12 14  1  0
 12 15  1  0
 13 42  1  0
 13 43  1  0
 13 44  1  0
 14 45  1  0
 14 46  1  0
 14 47  1  0
 16 31  1  0
 16 17  1  0
 16 48  1  1
 17 18  1  0
 17 31  1  0
 17 49  1  6
 19 18  1  1
 18 50  1  0
 18 51  1  0
 19 20  1  0
 20 26  1  0
 20 21  1  0
 20 52  1  1
 21 22  1  0
 21 23  1  6
 22 53  1  0
 22 54  1  0
 23 24  1  0
 24 25  2  0
 24 26  1  0
 26 27  1  1
 26 28  1  0
 27 55  1  0
 28 29  1  0
 28 30  1  0
 29 56  1  0
 29 57  1  0
 29 58  1  0
 30 59  1  0
 30 60  1  0
 30 61  1  0
 31 32  1  0
 31 33  1  0
 32 62  1  0
 32 63  1  0
 32 64  1  0
 33 65  1  0
 33 66  1  0
 33 67  1  0
M  END
>  <i_m_ct_stereo_status>  (159) 
1

>  <s_m_source_file>  (159) 
/var/tmp/pbs.5076255.sched01/tmpb5cfx69f/43pm4c6kpw.sdf

>  <i_m_source_file_index>  (159) 
23

>  <i_lp_mmshare_version>  (159) 
48012

>  <i_f3d_flags>  (159) 
1

>  <s_epik_input>  (159) 
TzFDKD1PKVtDQEBdKFtPSF0pKEMyKFtDSDNdKVtDSDNdKVtDQEBIXTNbQ0BAXTEoW0NIMl1DKD1bQ0gyXSlbQ0gyXTQpW0NASF00W0NASF0yW0NIXT1DNUMzKEM1NjcpW0NIMl1bQ0BASF04W0NASF0oQzgoW0NIM10pW0NIM10pQyhPNik9W0NIXUMoTzcpKFtDSDNdKVtDSDNd

>  <s_epik_cmdline>  (159) 
J2VwaWtfcHl0aG9uJywgJy1waHQnLCAnMi4wJywgJy1waCcsICc3LjAnLCAnLXRuJywgJzgnLCAnLW1hJywgJzIwMCcsICctaW1hZScsICc8aW5maWxlLm1hZT4nLCAnLW9tYWUnLCAnPG91dGZpbGUubWFlPic=

>  <r_lp_tautomer_probability>  (159) 
1

>  <r_epik_Ionization_Penalty>  (159) 
2.87672e-07

>  <r_epik_Ionization_Penalty_Charging>  (159) 
0

>  <r_epik_Ionization_Penalty_Neutral>  (159) 
2.87672e-07

>  <r_epik_State_Penalty>  (159) 
-0

>  <r_epik_Charging_Adjusted_Penalty>  (159) 
0

>  <i_epik_Tot_Q>  (159) 
0

>  <i_epik_Tot_abs_Q>  (159) 
0

>  <s_epik_Chemistry_Notes>  (159) 
This compound has an ester and may undergo hydrolysis at high or low pH.

>  <s_lp_Force_Field>  (159) 
OPLS3e

>  <r_lp_Energy>  (159) 
208.609

>  <b_lp_Chiralities_Consistent>  (159) 
1

>  <s_lp_Variant>  (159) 
44:0-3

>  <s_i_glide_gridfile>  (159) 
pfpi4k_grid

>  <i_i_glide_lignum>  (159) 
23

>  <i_i_glide_rotatable_bonds>  (159) 
1

>  <r_i_docking_score>  (159) 
-2.62574

>  <r_i_glide_ligand_efficiency>  (159) 
-0.0795679

>  <r_i_glide_ligand_efficiency_sa>  (159) 
-0.255217

>  <r_i_glide_ligand_efficiency_ln>  (159) 
-0.583951

>  <r_i_glide_gscore>  (159) 
-2.62574

>  <r_i_glide_lipo>  (159) 
-0.125285

>  <r_i_glide_hbond>  (159) 
-0.0349539

>  <r_i_glide_metal>  (159) 
-0

>  <r_i_glide_rewards>  (159) 
-0.337046

>  <r_i_glide_evdw>  (159) 
-24.2281

>  <r_i_glide_ecoul>  (159) 
-5.6967

>  <r_i_glide_erotb>  (159) 
0

>  <r_i_glide_esite>  (159) 
-0.062548

>  <r_i_glide_emodel>  (159) 
-33.2928

>  <r_i_glide_energy>  (159) 
-29.9248

>  <r_i_glide_einternal>  (159) 
1.79772

>  <r_i_glide_intrahb_reward>  (159) 
-0

>  <i_i_glide_confnum>  (159) 
2

>  <i_i_glide_posenum>  (159) 
26

>  <r_i_glide_eff_state_penalty>  (159) 
0

>  <ligand_id>  (159) 
44

>  <original_smiles>  (159) 
C=C1CC2C3C=C4C56OC(=CC(C)(C)O5)C5C(CC46C4C2(C1)OC(=O)C4(O)C3(C)C)C5(C)C

>  <smiles>  (159) 
[H]OC12C(=O)OC34C([H])([H])C(=C([H])[H])C([H])([H])C3([H])C([H])(C([H])=C3C56OC(=C([H])C(C([H])([H])[H])(C([H])([H])[H])O5)C5([H])C([H])(C([H])([H])C36C14[H])C5(C([H])([H])[H])C([H])([H])[H])C2(C([H])([H])[H])C([H])([H])[H]

$$$$
44:2:1
     RDKit          3D

 67 74  0  0  1  0  0  0  0  0999 V2000
    5.2055   -3.4149   -1.7354 C   0  0  0  0  0  0  0  0  0  0  0  0
    4.8243   -3.5640   -0.4542 C   0  0  0  0  0  0  0  0  0  0  0  0
    5.4088   -4.5937    0.5174 C   0  0  0  0  0  0  0  0  0  0  0  0
    4.7579   -4.1276    1.8194 C   0  0  2  0  0  0  0  0  0  0  0  0
    4.7904   -4.8368    3.2036 C   0  0  1  0  0  0  0  0  0  0  0  0
    4.9498   -3.6773    4.1641 C   0  0  0  0  0  0  0  0  0  0  0  0
    3.9521   -2.8096    4.2706 C   0  0  0  0  0  0  0  0  0  0  0  0
    3.7756   -1.4093    4.3147 C   0  0  2  0  0  0  0  0  0  0  0  0
    3.5612   -0.4450    3.2810 O   0  0  0  0  0  0  0  0  0  0  0  0
    3.0328    0.7252    3.8267 C   0  0  0  0  0  0  0  0  0  0  0  0
    3.7261    1.2655    4.8492 C   0  0  0  0  0  0  0  0  0  0  0  0
    4.5484    0.3033    5.6935 C   0  0  0  0  0  0  0  0  0  0  0  0
    5.9927    0.1612    5.1648 C   0  0  0  0  0  0  0  0  0  0  0  0
    4.5597    0.7001    7.1761 C   0  0  0  0  0  0  0  0  0  0  0  0
    3.8434   -0.9458    5.6583 O   0  0  0  0  0  0  0  0  0  0  0  0
    1.5872    0.5307    4.1488 C   0  0  2  0  0  0  0  0  0  0  0  0
    1.0500   -0.6910    3.4253 C   0  0  1  0  0  0  0  0  0  0  0  0
    1.2773   -1.9273    4.3039 C   0  0  0  0  0  0  0  0  0  0  0  0
    2.6123   -2.5078    3.7828 C   0  0  2  0  0  0  0  0  0  0  0  0
    2.3534   -3.4477    2.5587 C   0  0  1  0  0  0  0  0  0  0  0  0
    3.3592   -3.7029    1.3850 C   0  0  1  0  0  0  0  0  0  0  0  0
    3.6910   -2.7750    0.2161 C   0  0  0  0  0  0  0  0  0  0  0  0
    2.7005   -4.8086    0.7533 O   0  0  0  0  0  0  0  0  0  0  0  0
    1.9204   -5.4802    1.5544 C   0  0  0  0  0  0  0  0  0  0  0  0
    1.0921   -6.3345    1.2392 O   0  0  0  0  0  0  0  0  0  0  0  0
    2.1755   -4.9599    2.9527 C   0  0  2  0  0  0  0  0  0  0  0  0
    1.0240   -5.1861    3.7487 O   0  0  0  0  0  0  0  0  0  0  0  0
    3.4891   -5.6527    3.5606 C   0  0  0  0  0  0  0  0  0  0  0  0
    3.7312   -7.1002    3.0502 C   0  0  0  0  0  0  0  0  0  0  0  0
    3.3725   -5.8184    5.1080 C   0  0  0  0  0  0  0  0  0  0  0  0
    0.2598    0.6000    3.4412 C   0  0  0  0  0  0  0  0  0  0  0  0
   -1.0379    0.5913    4.2108 C   0  0  0  0  0  0  0  0  0  0  0  0
    0.1555    1.4312    2.1772 C   0  0  0  0  0  0  0  0  0  0  0  0
    4.7254   -2.6897   -2.3710 H   0  0  0  0  0  0  0  0  0  0  0  0
    5.9817   -4.0315   -2.1564 H   0  0  0  0  0  0  0  0  0  0  0  0
    5.0947   -5.5999    0.2302 H   0  0  0  0  0  0  0  0  0  0  0  0
    6.4977   -4.5587    0.5467 H   0  0  0  0  0  0  0  0  0  0  0  0
    5.3299   -3.2100    1.9617 H   0  0  0  0  0  0  0  0  0  0  0  0
    5.6879   -5.4509    3.3117 H   0  0  0  0  0  0  0  0  0  0  0  0
    5.9537   -3.3836    4.4292 H   0  0  0  0  0  0  0  0  0  0  0  0
    3.2461    2.0152    5.4667 H   0  0  0  0  0  0  0  0  0  0  0  0
    6.5457    1.0955    5.2563 H   0  0  0  0  0  0  0  0  0  0  0  0
    6.0149   -0.1151    4.1095 H   0  0  0  0  0  0  0  0  0  0  0  0
    6.5350   -0.6093    5.7139 H   0  0  0  0  0  0  0  0  0  0  0  0
    5.0411    1.6651    7.3291 H   0  0  0  0  0  0  0  0  0  0  0  0
    5.0939   -0.0386    7.7763 H   0  0  0  0  0  0  0  0  0  0  0  0
    3.5453    0.7614    7.5714 H   0  0  0  0  0  0  0  0  0  0  0  0
    1.4510    0.5870    5.2267 H   0  0  0  0  0  0  0  0  0  0  0  0
    1.3600   -0.8793    2.4000 H   0  0  0  0  0  0  0  0  0  0  0  0
    1.3347   -1.6822    5.3645 H   0  0  0  0  0  0  0  0  0  0  0  0
    0.4494   -2.6215    4.1470 H   0  0  0  0  0  0  0  0  0  0  0  0
    1.4231   -3.0981    2.1058 H   0  0  0  0  0  0  0  0  0  0  0  0
    4.0828   -1.8214    0.5727 H   0  0  0  0  0  0  0  0  0  0  0  0
    2.8542   -2.5765   -0.4547 H   0  0  0  0  0  0  0  0  0  0  0  0
    1.2179   -4.9197    4.6338 H   0  0  0  0  0  0  0  0  0  0  0  0
    2.8528   -7.7319    3.1910 H   0  0  0  0  0  0  0  0  0  0  0  0
    4.5564   -7.5735    3.5850 H   0  0  0  0  0  0  0  0  0  0  0  0
    4.0058   -7.1283    1.9959 H   0  0  0  0  0  0  0  0  0  0  0  0
    2.6452   -6.5863    5.3781 H   0  0  0  0  0  0  0  0  0  0  0  0
    3.0719   -4.9016    5.6200 H   0  0  0  0  0  0  0  0  0  0  0  0
    4.3288   -6.1255    5.5434 H   0  0  0  0  0  0  0  0  0  0  0  0
   -1.8254    0.1953    3.5745 H   0  0  0  0  0  0  0  0  0  0  0  0
   -1.3080    1.5968    4.5377 H   0  0  0  0  0  0  0  0  0  0  0  0
   -0.9538   -0.0586    5.0827 H   0  0  0  0  0  0  0  0  0  0  0  0
   -0.6306    1.0540    1.5220 H   0  0  0  0  0  0  0  0  0  0  0  0
    1.0955    1.3998    1.6299 H   0  0  0  0  0  0  0  0  0  0  0  0
   -0.0548    2.4722    2.4237 H   0  0  0  0  0  0  0  0  0  0  0  0
  1  2  2  0
  1 34  1  0
  1 35  1  0
  2 22  1  0
  2  3  1  0
  3  4  1  0
  3 36  1  0
  3 37  1  0
  4 21  1  0
  4  5  1  0
  4 38  1  1
  5 28  1  0
  5  6  1  0
  5 39  1  6
  6  7  2  0
  6 40  1  0
  7 19  1  0
  7  8  1  0
  8 15  1  1
  8 19  1  0
  8  9  1  0
  9 10  1  0
 10 11  2  0
 10 16  1  0
 11 12  1  0
 11 41  1  0
 12 13  1  0
 12 14  1  0
 12 15  1  0
 13 42  1  0
 13 43  1  0
 13 44  1  0
 14 45  1  0
 14 46  1  0
 14 47  1  0
 16 31  1  0
 16 17  1  0
 16 48  1  1
 17 18  1  0
 17 31  1  0
 17 49  1  6
 19 18  1  1
 18 50  1  0
 18 51  1  0
 19 20  1  0
 20 26  1  0
 20 21  1  0
 20 52  1  6
 21 22  1  0
 21 23  1  6
 22 53  1  0
 22 54  1  0
 23 24  1  0
 24 25  2  0
 24 26  1  0
 26 27  1  1
 26 28  1  0
 27 55  1  0
 28 29  1  0
 28 30  1  0
 29 56  1  0
 29 57  1  0
 29 58  1  0
 30 59  1  0
 30 60  1  0
 30 61  1  0
 31 32  1  0
 31 33  1  0
 32 62  1  0
 32 63  1  0
 32 64  1  0
 33 65  1  0
 33 66  1  0
 33 67  1  0
M  END
>  <i_m_ct_stereo_status>  (160) 
1

>  <s_m_source_file>  (160) 
/var/tmp/pbs.5076255.sched01/tmpb5cfx69f/43pm4c6kpw.sdf

>  <i_m_source_file_index>  (160) 
23

>  <i_lp_mmshare_version>  (160) 
48012

>  <i_f3d_flags>  (160) 
1

>  <s_epik_input>  (160) 
TzFDKD1PKVtDQEBdKFtPSF0pKEMyKFtDSDNdKVtDSDNdKVtDQEBIXTNbQ0BAXTEoW0NIMl1DKD1bQ0gyXSlbQ0gyXTQpW0NASF00W0NASF0yW0NIXT1DNUMzKEM1NjcpW0NIMl1bQ0BASF04W0NASF0oQzgoW0NIM10pW0NIM10pQyhPNik9W0NIXUMoTzcpKFtDSDNdKVtDSDNd

>  <s_epik_cmdline>  (160) 
J2VwaWtfcHl0aG9uJywgJy1waHQnLCAnMi4wJywgJy1waCcsICc3LjAnLCAnLXRuJywgJzgnLCAnLW1hJywgJzIwMCcsICctaW1hZScsICc8aW5maWxlLm1hZT4nLCAnLW9tYWUnLCAnPG91dGZpbGUubWFlPic=

>  <r_lp_tautomer_probability>  (160) 
1

>  <r_epik_Ionization_Penalty>  (160) 
2.87672e-07

>  <r_epik_Ionization_Penalty_Charging>  (160) 
0

>  <r_epik_Ionization_Penalty_Neutral>  (160) 
2.87672e-07

>  <r_epik_State_Penalty>  (160) 
-0

>  <r_epik_Charging_Adjusted_Penalty>  (160) 
0

>  <i_epik_Tot_Q>  (160) 
0

>  <i_epik_Tot_abs_Q>  (160) 
0

>  <s_epik_Chemistry_Notes>  (160) 
This compound has an ester and may undergo hydrolysis at high or low pH.

>  <s_lp_Force_Field>  (160) 
OPLS3e

>  <r_lp_Energy>  (160) 
208.609

>  <b_lp_Chiralities_Consistent>  (160) 
1

>  <s_lp_Variant>  (160) 
44:0-3

>  <s_i_glide_gridfile>  (160) 
pfpi4k_grid

>  <i_i_glide_lignum>  (160) 
23

>  <i_i_glide_rotatable_bonds>  (160) 
1

>  <r_i_docking_score>  (160) 
-2.40835

>  <r_i_glide_ligand_efficiency>  (160) 
-0.0729804

>  <r_i_glide_ligand_efficiency_sa>  (160) 
-0.234087

>  <r_i_glide_ligand_efficiency_ln>  (160) 
-0.535605

>  <r_i_glide_gscore>  (160) 
-2.40835

>  <r_i_glide_lipo>  (160) 
-0.386655

>  <r_i_glide_hbond>  (160) 
-0.127469

>  <r_i_glide_metal>  (160) 
-0

>  <r_i_glide_rewards>  (160) 
-0.337091

>  <r_i_glide_evdw>  (160) 
-26.524

>  <r_i_glide_ecoul>  (160) 
-1.18509

>  <r_i_glide_erotb>  (160) 
0

>  <r_i_glide_esite>  (160) 
-0.0531725

>  <r_i_glide_emodel>  (160) 
-31.6253

>  <r_i_glide_energy>  (160) 
-27.7091

>  <r_i_glide_einternal>  (160) 
0.0168098

>  <r_i_glide_intrahb_reward>  (160) 
-0

>  <i_i_glide_confnum>  (160) 
1

>  <i_i_glide_posenum>  (160) 
22

>  <r_i_glide_eff_state_penalty>  (160) 
0

>  <ligand_id>  (160) 
44

>  <original_smiles>  (160) 
C=C1CC2C3C=C4C56OC(=CC(C)(C)O5)C5C(CC46C4C2(C1)OC(=O)C4(O)C3(C)C)C5(C)C

>  <smiles>  (160) 
[H]OC12C(=O)OC34C([H])([H])C(=C([H])[H])C([H])([H])C3([H])C([H])(C([H])=C3C56OC(=C([H])C(C([H])([H])[H])(C([H])([H])[H])O5)C5([H])C([H])(C([H])([H])C36C14[H])C5(C([H])([H])[H])C([H])([H])[H])C2(C([H])([H])[H])C([H])([H])[H]

$$$$
44:2:2
     RDKit          3D

 67 74  0  0  1  0  0  0  0  0999 V2000
   -1.5915   -8.9640    2.5049 C   0  0  0  0  0  0  0  0  0  0  0  0
   -0.5523   -8.4478    3.1606 C   0  0  0  0  0  0  0  0  0  0  0  0
    0.0087   -9.0108    4.4709 C   0  0  0  0  0  0  0  0  0  0  0  0
    1.2693   -8.1616    4.6021 C   0  0  2  0  0  0  0  0  0  0  0  0
    2.2441   -8.1052    5.8090 C   0  0  1  0  0  0  0  0  0  0  0  0
    3.5919   -8.0417    5.1366 C   0  0  0  0  0  0  0  0  0  0  0  0
    3.8964   -6.9489    4.4390 C   0  0  0  0  0  0  0  0  0  0  0  0
    4.4567   -6.6392    3.1850 C   0  0  2  0  0  0  0  0  0  0  0  0
    3.8711   -6.4236    1.8937 O   0  0  0  0  0  0  0  0  0  0  0  0
    4.7439   -5.7333    1.0711 C   0  0  0  0  0  0  0  0  0  0  0  0
    6.0018   -6.2422    0.9656 C   0  0  0  0  0  0  0  0  0  0  0  0
    6.5028   -7.0551    2.1492 C   0  0  0  0  0  0  0  0  0  0  0  0
    6.1885   -8.5605    1.9980 C   0  0  0  0  0  0  0  0  0  0  0  0
    8.0066   -6.8441    2.3915 C   0  0  0  0  0  0  0  0  0  0  0  0
    5.8756   -6.4901    3.2986 O   0  0  0  0  0  0  0  0  0  0  0  0
    4.7548   -4.2848    1.4383 C   0  0  2  0  0  0  0  0  0  0  0  0
    3.5370   -3.9664    2.2862 C   0  0  1  0  0  0  0  0  0  0  0  0
    3.8725   -4.2169    3.7591 C   0  0  0  0  0  0  0  0  0  0  0  0
    3.3773   -5.6599    4.0142 C   0  0  2  0  0  0  0  0  0  0  0  0
    1.8493   -5.6315    4.3850 C   0  0  1  0  0  0  0  0  0  0  0  0
    0.8373   -6.7910    4.0944 C   0  0  1  0  0  0  0  0  0  0  0  0
    0.2025   -7.1737    2.7562 C   0  0  0  0  0  0  0  0  0  0  0  0
   -0.2797   -6.3117    4.8584 O   0  0  0  0  0  0  0  0  0  0  0  0
    0.0669   -5.5231    5.8450 C   0  0  0  0  0  0  0  0  0  0  0  0
   -0.6857   -4.8741    6.5814 O   0  0  0  0  0  0  0  0  0  0  0  0
    1.5798   -5.5607    5.9329 C   0  0  2  0  0  0  0  0  0  0  0  0
    2.0407   -4.3579    6.5169 O   0  0  0  0  0  0  0  0  0  0  0  0
    2.0471   -6.8571    6.7561 C   0  0  0  0  0  0  0  0  0  0  0  0
    1.0432   -7.3011    7.8553 C   0  0  0  0  0  0  0  0  0  0  0  0
    3.3622   -6.5768    7.5433 C   0  0  0  0  0  0  0  0  0  0  0  0
    3.9424   -3.0543    1.1467 C   0  0  0  0  0  0  0  0  0  0  0  0
    4.4281   -1.6718    1.5173 C   0  0  0  0  0  0  0  0  0  0  0  0
    3.1194   -3.0276   -0.1239 C   0  0  0  0  0  0  0  0  0  0  0  0
   -1.9499   -8.5101    1.5984 H   0  0  0  0  0  0  0  0  0  0  0  0
   -2.0997   -9.8448    2.8715 H   0  0  0  0  0  0  0  0  0  0  0  0
   -0.7024   -8.8400    5.2815 H   0  0  0  0  0  0  0  0  0  0  0  0
    0.2086  -10.0807    4.3971 H   0  0  0  0  0  0  0  0  0  0  0  0
    1.8463   -8.6208    3.8014 H   0  0  0  0  0  0  0  0  0  0  0  0
    2.2337   -9.0414    6.3744 H   0  0  0  0  0  0  0  0  0  0  0  0
    4.0813   -8.9788    4.9230 H   0  0  0  0  0  0  0  0  0  0  0  0
    6.7852   -5.6243    0.5571 H   0  0  0  0  0  0  0  0  0  0  0  0
    6.7246   -8.9990    1.1580 H   0  0  0  0  0  0  0  0  0  0  0  0
    5.1279   -8.7350    1.8171 H   0  0  0  0  0  0  0  0  0  0  0  0
    6.4483   -9.1116    2.9011 H   0  0  0  0  0  0  0  0  0  0  0  0
    8.6037   -7.2024    1.5538 H   0  0  0  0  0  0  0  0  0  0  0  0
    8.3386   -7.3757    3.2837 H   0  0  0  0  0  0  0  0  0  0  0  0
    8.2371   -5.7886    2.5399 H   0  0  0  0  0  0  0  0  0  0  0  0
    5.7320   -4.0269    1.8353 H   0  0  0  0  0  0  0  0  0  0  0  0
    2.5826   -4.4148    2.0271 H   0  0  0  0  0  0  0  0  0  0  0  0
    4.9399   -4.1229    3.9646 H   0  0  0  0  0  0  0  0  0  0  0  0
    3.3331   -3.4877    4.3644 H   0  0  0  0  0  0  0  0  0  0  0  0
    1.4338   -4.7291    3.9260 H   0  0  0  0  0  0  0  0  0  0  0  0
    0.9626   -7.4335    2.0170 H   0  0  0  0  0  0  0  0  0  0  0  0
   -0.4535   -6.4159    2.3329 H   0  0  0  0  0  0  0  0  0  0  0  0
    2.9813   -4.3978    6.5835 H   0  0  0  0  0  0  0  0  0  0  0  0
    0.7912   -6.4828    8.5268 H   0  0  0  0  0  0  0  0  0  0  0  0
    1.4675   -8.0994    8.4647 H   0  0  0  0  0  0  0  0  0  0  0  0
    0.1235   -7.7067    7.4364 H   0  0  0  0  0  0  0  0  0  0  0  0
    3.1944   -5.9065    8.3844 H   0  0  0  0  0  0  0  0  0  0  0  0
    4.1459   -6.1282    6.9303 H   0  0  0  0  0  0  0  0  0  0  0  0
    3.7750   -7.4996    7.9585 H   0  0  0  0  0  0  0  0  0  0  0  0
    3.5810   -0.9957    1.6499 H   0  0  0  0  0  0  0  0  0  0  0  0
    5.0927   -1.2724    0.7486 H   0  0  0  0  0  0  0  0  0  0  0  0
    4.9729   -1.7177    2.4606 H   0  0  0  0  0  0  0  0  0  0  0  0
    2.2586   -2.3745    0.0074 H   0  0  0  0  0  0  0  0  0  0  0  0
    2.7581   -4.0276   -0.3612 H   0  0  0  0  0  0  0  0  0  0  0  0
    3.7181   -2.6746   -0.9657 H   0  0  0  0  0  0  0  0  0  0  0  0
  1  2  2  0
  1 34  1  0
  1 35  1  0
  2 22  1  0
  2  3  1  0
  3  4  1  0
  3 36  1  0
  3 37  1  0
  4 21  1  0
  4  5  1  0
  4 38  1  6
  5 28  1  0
  5  6  1  0
  5 39  1  1
  6  7  2  0
  6 40  1  0
  7 19  1  0
  7  8  1  0
  8 15  1  6
  8 19  1  0
  8  9  1  0
  9 10  1  0
 10 11  2  0
 10 16  1  0
 11 12  1  0
 11 41  1  0
 12 13  1  0
 12 14  1  0
 12 15  1  0
 13 42  1  0
 13 43  1  0
 13 44  1  0
 14 45  1  0
 14 46  1  0
 14 47  1  0
 16 31  1  0
 16 17  1  0
 16 48  1  1
 17 18  1  0
 17 31  1  0
 17 49  1  6
 19 18  1  1
 18 50  1  0
 18 51  1  0
 19 20  1  0
 20 26  1  0
 20 21  1  0
 20 52  1  6
 21 22  1  0
 21 23  1  1
 22 53  1  0
 22 54  1  0
 23 24  1  0
 24 25  2  0
 24 26  1  0
 26 27  1  1
 26 28  1  0
 27 55  1  0
 28 29  1  0
 28 30  1  0
 29 56  1  0
 29 57  1  0
 29 58  1  0
 30 59  1  0
 30 60  1  0
 30 61  1  0
 31 32  1  0
 31 33  1  0
 32 62  1  0
 32 63  1  0
 32 64  1  0
 33 65  1  0
 33 66  1  0
 33 67  1  0
M  END
>  <i_m_ct_stereo_status>  (161) 
1

>  <s_m_source_file>  (161) 
/var/tmp/pbs.5076255.sched01/tmpb5cfx69f/43pm4c6kpw.sdf

>  <i_m_source_file_index>  (161) 
23

>  <i_lp_mmshare_version>  (161) 
48012

>  <i_f3d_flags>  (161) 
1

>  <s_epik_input>  (161) 
TzFDKD1PKVtDQEBdKFtPSF0pKEMyKFtDSDNdKVtDSDNdKVtDQEBIXTNbQ0BAXTEoW0NIMl1DKD1bQ0gyXSlbQ0gyXTQpW0NASF00W0NASF0yW0NIXT1DNUMzKEM1NjcpW0NIMl1bQ0BASF04W0NASF0oQzgoW0NIM10pW0NIM10pQyhPNik9W0NIXUMoTzcpKFtDSDNdKVtDSDNd

>  <s_epik_cmdline>  (161) 
J2VwaWtfcHl0aG9uJywgJy1waHQnLCAnMi4wJywgJy1waCcsICc3LjAnLCAnLXRuJywgJzgnLCAnLW1hJywgJzIwMCcsICctaW1hZScsICc8aW5maWxlLm1hZT4nLCAnLW9tYWUnLCAnPG91dGZpbGUubWFlPic=

>  <r_lp_tautomer_probability>  (161) 
1

>  <r_epik_Ionization_Penalty>  (161) 
2.87672e-07

>  <r_epik_Ionization_Penalty_Charging>  (161) 
0

>  <r_epik_Ionization_Penalty_Neutral>  (161) 
2.87672e-07

>  <r_epik_State_Penalty>  (161) 
-0

>  <r_epik_Charging_Adjusted_Penalty>  (161) 
0

>  <i_epik_Tot_Q>  (161) 
0

>  <i_epik_Tot_abs_Q>  (161) 
0

>  <s_epik_Chemistry_Notes>  (161) 
This compound has an ester and may undergo hydrolysis at high or low pH.

>  <s_lp_Force_Field>  (161) 
OPLS3e

>  <r_lp_Energy>  (161) 
208.609

>  <b_lp_Chiralities_Consistent>  (161) 
1

>  <s_lp_Variant>  (161) 
44:0-3

>  <s_i_glide_gridfile>  (161) 
pfpi4k_grid

>  <i_i_glide_lignum>  (161) 
23

>  <i_i_glide_rotatable_bonds>  (161) 
1

>  <r_i_docking_score>  (161) 
-2.35008

>  <r_i_glide_ligand_efficiency>  (161) 
-0.0712144

>  <r_i_glide_ligand_efficiency_sa>  (161) 
-0.228423

>  <r_i_glide_ligand_efficiency_ln>  (161) 
-0.522645

>  <r_i_glide_gscore>  (161) 
-2.35008

>  <r_i_glide_lipo>  (161) 
-0.464196

>  <r_i_glide_hbond>  (161) 
0

>  <r_i_glide_metal>  (161) 
-0

>  <r_i_glide_rewards>  (161) 
-0.337046

>  <r_i_glide_evdw>  (161) 
-28.3183

>  <r_i_glide_ecoul>  (161) 
-0.853788

>  <r_i_glide_erotb>  (161) 
0

>  <r_i_glide_esite>  (161) 
-0.00484858

>  <r_i_glide_emodel>  (161) 
-33.0614

>  <r_i_glide_energy>  (161) 
-29.1721

>  <r_i_glide_einternal>  (161) 
4.02999e-05

>  <r_i_glide_intrahb_reward>  (161) 
-0

>  <i_i_glide_confnum>  (161) 
2

>  <i_i_glide_posenum>  (161) 
40

>  <r_i_glide_eff_state_penalty>  (161) 
0

>  <ligand_id>  (161) 
44

>  <original_smiles>  (161) 
C=C1CC2C3C=C4C56OC(=CC(C)(C)O5)C5C(CC46C4C2(C1)OC(=O)C4(O)C3(C)C)C5(C)C

>  <smiles>  (161) 
[H]OC12C(=O)OC34C([H])([H])C(=C([H])[H])C([H])([H])C3([H])C([H])(C([H])=C3C56OC(=C([H])C(C([H])([H])[H])(C([H])([H])[H])O5)C5([H])C([H])(C([H])([H])C36C14[H])C5(C([H])([H])[H])C([H])([H])[H])C2(C([H])([H])[H])C([H])([H])[H]

$$$$
44:3:0
     RDKit          3D

 67 74  0  0  1  0  0  0  0  0999 V2000
    5.0734   -5.4967    6.0907 C   0  0  0  0  0  0  0  0  0  0  0  0
    4.8610   -4.4264    5.3190 C   0  0  0  0  0  0  0  0  0  0  0  0
    4.7902   -2.9862    5.8307 C   0  0  0  0  0  0  0  0  0  0  0  0
    4.7388   -2.2333    4.5035 C   0  0  2  0  0  0  0  0  0  0  0  0
    4.4767   -0.7177    4.3147 C   0  0  1  0  0  0  0  0  0  0  0  0
    5.4920   -0.3058    3.2612 C   0  0  0  0  0  0  0  0  0  0  0  0
    5.3685   -0.7567    2.0074 C   0  0  0  0  0  0  0  0  0  0  0  0
    6.0005   -1.7983    1.1629 C   0  0  1  0  0  0  0  0  0  0  0  0
    6.5715   -1.2701   -0.0102 O   0  0  0  0  0  0  0  0  0  0  0  0
    6.3936   -2.1758   -1.0073 C   0  0  0  0  0  0  0  0  0  0  0  0
    6.7419   -3.4483   -0.7551 C   0  0  0  0  0  0  0  0  0  0  0  0
    7.2768   -3.7827    0.6351 C   0  0  0  0  0  0  0  0  0  0  0  0
    7.0147   -5.2666    0.9411 C   0  0  0  0  0  0  0  0  0  0  0  0
    8.7863   -3.4737    0.6889 C   0  0  0  0  0  0  0  0  0  0  0  0
    6.6105   -2.9894    1.6675 O   0  0  0  0  0  0  0  0  0  0  0  0
    5.3852   -1.6167   -1.9175 C   0  0  2  0  0  0  0  0  0  0  0  0
    4.1384   -2.1333   -1.1761 C   0  0  1  0  0  0  0  0  0  0  0  0
    3.7360   -1.2276   -0.0125 C   0  0  0  0  0  0  0  0  0  0  0  0
    4.4240   -1.6728    1.3005 C   0  0  2  0  0  0  0  0  0  0  0  0
    3.4338   -2.4180    2.2617 C   0  0  1  0  0  0  0  0  0  0  0  0
    3.8839   -3.1155    3.6005 C   0  0  1  0  0  0  0  0  0  0  0  0
    4.5820   -4.4684    3.8083 C   0  0  0  0  0  0  0  0  0  0  0  0
    2.6074   -3.3462    4.2023 O   0  0  0  0  0  0  0  0  0  0  0  0
    1.6866   -2.5329    3.7916 C   0  0  0  0  0  0  0  0  0  0  0  0
    0.4836   -2.5824    4.0685 O   0  0  0  0  0  0  0  0  0  0  0  0
    2.3726   -1.4775    2.9428 C   0  0  2  0  0  0  0  0  0  0  0  0
    1.3875   -0.9356    2.0839 O   0  0  0  0  0  0  0  0  0  0  0  0
    3.0062   -0.3439    3.8801 C   0  0  0  0  0  0  0  0  0  0  0  0
    2.2058   -0.1067    5.1931 C   0  0  0  0  0  0  0  0  0  0  0  0
    2.9844    1.0463    3.1803 C   0  0  0  0  0  0  0  0  0  0  0  0
    4.1325   -2.0258   -2.6651 C   0  0  0  0  0  0  0  0  0  0  0  0
    3.2726   -0.9664   -3.3206 C   0  0  0  0  0  0  0  0  0  0  0  0
    4.1658   -3.2703   -3.5240 C   0  0  0  0  0  0  0  0  0  0  0  0
    5.0824   -6.4890    5.6663 H   0  0  0  0  0  0  0  0  0  0  0  0
    5.2260   -5.3900    7.1560 H   0  0  0  0  0  0  0  0  0  0  0  0
    3.8862   -2.8421    6.4267 H   0  0  0  0  0  0  0  0  0  0  0  0
    5.6601   -2.7225    6.4343 H   0  0  0  0  0  0  0  0  0  0  0  0
    5.7724   -2.3893    4.1878 H   0  0  0  0  0  0  0  0  0  0  0  0
    4.7648   -0.1670    5.2101 H   0  0  0  0  0  0  0  0  0  0  0  0
    6.4853   -0.0789    3.6265 H   0  0  0  0  0  0  0  0  0  0  0  0
    6.4245   -4.2415   -1.4116 H   0  0  0  0  0  0  0  0  0  0  0  0
    7.5060   -5.9273    0.2208 H   0  0  0  0  0  0  0  0  0  0  0  0
    5.9464   -5.4826    0.9054 H   0  0  0  0  0  0  0  0  0  0  0  0
    7.3755   -5.5311    1.9310 H   0  0  0  0  0  0  0  0  0  0  0  0
    9.3502   -4.0341   -0.0568 H   0  0  0  0  0  0  0  0  0  0  0  0
    9.2020   -3.7057    1.6678 H   0  0  0  0  0  0  0  0  0  0  0  0
    8.9644   -2.4162    0.4934 H   0  0  0  0  0  0  0  0  0  0  0  0
    5.5525   -0.5435   -2.0069 H   0  0  0  0  0  0  0  0  0  0  0  0
    4.0727   -3.1815   -0.8762 H   0  0  0  0  0  0  0  0  0  0  0  0
    4.0222   -0.1984   -0.2259 H   0  0  0  0  0  0  0  0  0  0  0  0
    2.6587   -1.2804    0.0797 H   0  0  0  0  0  0  0  0  0  0  0  0
    2.9258   -3.1656    1.6500 H   0  0  0  0  0  0  0  0  0  0  0  0
    5.5398   -4.5141    3.2933 H   0  0  0  0  0  0  0  0  0  0  0  0
    3.9865   -5.3324    3.5129 H   0  0  0  0  0  0  0  0  0  0  0  0
    1.7901   -0.4037    1.4199 H   0  0  0  0  0  0  0  0  0  0  0  0
    1.1508    0.0820    4.9951 H   0  0  0  0  0  0  0  0  0  0  0  0
    2.5891    0.7609    5.7337 H   0  0  0  0  0  0  0  0  0  0  0  0
    2.2763   -0.9472    5.8866 H   0  0  0  0  0  0  0  0  0  0  0  0
    1.9720    1.4414    3.1059 H   0  0  0  0  0  0  0  0  0  0  0  0
    3.3855    1.0249    2.1669 H   0  0  0  0  0  0  0  0  0  0  0  0
    3.5634    1.7825    3.7417 H   0  0  0  0  0  0  0  0  0  0  0  0
    2.2411   -1.3213   -3.3841 H   0  0  0  0  0  0  0  0  0  0  0  0
    3.6435   -0.7075   -4.3141 H   0  0  0  0  0  0  0  0  0  0  0  0
    3.2810   -0.0495   -2.7315 H   0  0  0  0  0  0  0  0  0  0  0  0
    3.1628   -3.6816   -3.6491 H   0  0  0  0  0  0  0  0  0  0  0  0
    4.7980   -4.0300   -3.0664 H   0  0  0  0  0  0  0  0  0  0  0  0
    4.5769   -3.0329   -4.5031 H   0  0  0  0  0  0  0  0  0  0  0  0
  1  2  2  0
  1 34  1  0
  1 35  1  0
  2 22  1  0
  2  3  1  0
  3  4  1  0
  3 36  1  0
  3 37  1  0
  4 21  1  0
  4  5  1  0
  4 38  1  6
  5 28  1  0
  5  6  1  0
  5 39  1  1
  6  7  2  0
  6 40  1  0
  7 19  1  0
  7  8  1  0
  8 15  1  1
  8 19  1  0
  8  9  1  0
  9 10  1  0
 10 11  2  0
 10 16  1  0
 11 12  1  0
 11 41  1  0
 12 13  1  0
 12 14  1  0
 12 15  1  0
 13 42  1  0
 13 43  1  0
 13 44  1  0
 14 45  1  0
 14 46  1  0
 14 47  1  0
 16 31  1  0
 16 17  1  0
 16 48  1  1
 17 18  1  0
 17 31  1  0
 17 49  1  6
 19 18  1  6
 18 50  1  0
 18 51  1  0
 19 20  1  0
 20 26  1  0
 20 21  1  0
 20 52  1  6
 21 22  1  0
 21 23  1  1
 22 53  1  0
 22 54  1  0
 23 24  1  0
 24 25  2  0
 24 26  1  0
 26 27  1  6
 26 28  1  0
 27 55  1  0
 28 29  1  0
 28 30  1  0
 29 56  1  0
 29 57  1  0
 29 58  1  0
 30 59  1  0
 30 60  1  0
 30 61  1  0
 31 32  1  0
 31 33  1  0
 32 62  1  0
 32 63  1  0
 32 64  1  0
 33 65  1  0
 33 66  1  0
 33 67  1  0
M  END
>  <i_m_ct_stereo_status>  (162) 
1

>  <s_m_source_file>  (162) 
/var/tmp/pbs.5076255.sched01/tmpb5cfx69f/43pm4c6kpw.sdf

>  <i_m_source_file_index>  (162) 
24

>  <i_lp_mmshare_version>  (162) 
48012

>  <i_f3d_flags>  (162) 
1

>  <s_epik_input>  (162) 
TzFDKD1PKVtDQEBdKFtPSF0pKEMyKFtDSDNdKVtDSDNdKVtDQEBIXTNbQ0BAXTEoW0NIMl1DKD1bQ0gyXSlbQ0gyXTQpW0NASF00W0NASF0yW0NIXT1DNUMzKEM1NjcpW0NIMl1bQ0BASF04W0NASF0oQzgoW0NIM10pW0NIM10pQyhPNik9W0NIXUMoTzcpKFtDSDNdKVtDSDNd

>  <s_epik_cmdline>  (162) 
J2VwaWtfcHl0aG9uJywgJy1waHQnLCAnMi4wJywgJy1waCcsICc3LjAnLCAnLXRuJywgJzgnLCAnLW1hJywgJzIwMCcsICctaW1hZScsICc8aW5maWxlLm1hZT4nLCAnLW9tYWUnLCAnPG91dGZpbGUubWFlPic=

>  <r_lp_tautomer_probability>  (162) 
1

>  <r_epik_Ionization_Penalty>  (162) 
2.87672e-07

>  <r_epik_Ionization_Penalty_Charging>  (162) 
0

>  <r_epik_Ionization_Penalty_Neutral>  (162) 
2.87672e-07

>  <r_epik_State_Penalty>  (162) 
-0

>  <r_epik_Charging_Adjusted_Penalty>  (162) 
0

>  <i_epik_Tot_Q>  (162) 
0

>  <i_epik_Tot_abs_Q>  (162) 
0

>  <s_epik_Chemistry_Notes>  (162) 
This compound has an ester and may undergo hydrolysis at high or low pH.

>  <s_lp_Force_Field>  (162) 
OPLS3e

>  <r_lp_Energy>  (162) 
152.395

>  <b_lp_Chiralities_Consistent>  (162) 
1

>  <s_lp_Variant>  (162) 
44:0-4

>  <s_i_glide_gridfile>  (162) 
pfpi4k_grid

>  <i_i_glide_lignum>  (162) 
24

>  <i_i_glide_rotatable_bonds>  (162) 
1

>  <r_i_docking_score>  (162) 
-3.24565

>  <r_i_glide_ligand_efficiency>  (162) 
-0.0983531

>  <r_i_glide_ligand_efficiency_sa>  (162) 
-0.315471

>  <r_i_glide_ligand_efficiency_ln>  (162) 
-0.721816

>  <r_i_glide_gscore>  (162) 
-3.24565

>  <r_i_glide_lipo>  (162) 
-1.16962

>  <r_i_glide_hbond>  (162) 
-0.0641961

>  <r_i_glide_metal>  (162) 
-0

>  <r_i_glide_rewards>  (162) 
-0.56383

>  <r_i_glide_evdw>  (162) 
-32.1129

>  <r_i_glide_ecoul>  (162) 
1.05092

>  <r_i_glide_erotb>  (162) 
0

>  <r_i_glide_esite>  (162) 
0

>  <r_i_glide_emodel>  (162) 
-37.4031

>  <r_i_glide_energy>  (162) 
-31.062

>  <r_i_glide_einternal>  (162) 
0.214901

>  <r_i_glide_intrahb_reward>  (162) 
-0

>  <i_i_glide_confnum>  (162) 
2

>  <i_i_glide_posenum>  (162) 
40

>  <r_i_glide_eff_state_penalty>  (162) 
0

>  <ligand_id>  (162) 
44

>  <original_smiles>  (162) 
C=C1CC2C3C=C4C56OC(=CC(C)(C)O5)C5C(CC46C4C2(C1)OC(=O)C4(O)C3(C)C)C5(C)C

>  <smiles>  (162) 
[H]OC12C(=O)OC34C([H])([H])C(=C([H])[H])C([H])([H])C3([H])C([H])(C([H])=C3C56OC(=C([H])C(C([H])([H])[H])(C([H])([H])[H])O5)C5([H])C([H])(C([H])([H])C36C14[H])C5(C([H])([H])[H])C([H])([H])[H])C2(C([H])([H])[H])C([H])([H])[H]

$$$$
44:3:1
     RDKit          3D

 67 74  0  0  1  0  0  0  0  0999 V2000
    0.8254   -5.5488    5.9659 C   0  0  0  0  0  0  0  0  0  0  0  0
    1.4871   -4.5627    5.3505 C   0  0  0  0  0  0  0  0  0  0  0  0
    2.2327   -3.4316    6.0668 C   0  0  0  0  0  0  0  0  0  0  0  0
    2.9359   -2.7786    4.8783 C   0  0  2  0  0  0  0  0  0  0  0  0
    3.7228   -1.4453    4.8957 C   0  0  1  0  0  0  0  0  0  0  0  0
    4.9585   -1.7478    4.0618 C   0  0  0  0  0  0  0  0  0  0  0  0
    4.8367   -1.9624    2.7469 C   0  0  0  0  0  0  0  0  0  0  0  0
    4.8327   -3.1347    1.8408 C   0  0  1  0  0  0  0  0  0  0  0  0
    5.8356   -3.0532    0.8569 O   0  0  0  0  0  0  0  0  0  0  0  0
    5.3564   -3.6084   -0.2864 C   0  0  0  0  0  0  0  0  0  0  0  0
    4.7831   -4.8203   -0.1905 C   0  0  0  0  0  0  0  0  0  0  0  0
    4.6797   -5.4566    1.1977 C   0  0  0  0  0  0  0  0  0  0  0  0
    3.4903   -6.4331    1.2286 C   0  0  0  0  0  0  0  0  0  0  0  0
    5.9996   -6.1824    1.5231 C   0  0  0  0  0  0  0  0  0  0  0  0
    4.4660   -4.4602    2.2444 O   0  0  0  0  0  0  0  0  0  0  0  0
    5.1271   -2.5040   -1.2283 C   0  0  2  0  0  0  0  0  0  0  0  0
    3.7166   -2.1170   -0.7417 C   0  0  1  0  0  0  0  0  0  0  0  0
    3.7288   -1.1948    0.4742 C   0  0  0  0  0  0  0  0  0  0  0  0
    3.6980   -2.0281    1.7851 C   0  0  2  0  0  0  0  0  0  0  0  0
    2.2920   -2.0013    2.4787 C   0  0  1  0  0  0  0  0  0  0  0  0
    1.9226   -2.8711    3.7437 C   0  0  1  0  0  0  0  0  0  0  0  0
    1.5626   -4.3607    3.8273 C   0  0  0  0  0  0  0  0  0  0  0  0
    0.6926   -2.2420    4.1154 O   0  0  0  0  0  0  0  0  0  0  0  0
    0.5955   -1.0064    3.7144 C   0  0  0  0  0  0  0  0  0  0  0  0
   -0.3915   -0.2781    3.8046 O   0  0  0  0  0  0  0  0  0  0  0  0
    1.9446   -0.6162    3.1410 C   0  0  2  0  0  0  0  0  0  0  0  0
    1.7471    0.4520    2.2314 O   0  0  0  0  0  0  0  0  0  0  0  0
    2.9292   -0.1983    4.3383 C   0  0  0  0  0  0  0  0  0  0  0  0
    2.2072    0.4526    5.5545 C   0  0  0  0  0  0  0  0  0  0  0  0
    3.9178    0.9036    3.8784 C   0  0  0  0  0  0  0  0  0  0  0  0
    4.0611   -1.9669   -2.1813 C   0  0  0  0  0  0  0  0  0  0  0  0
    4.1946   -0.5756   -2.7442 C   0  0  0  0  0  0  0  0  0  0  0  0
    3.4884   -2.8946   -3.2268 C   0  0  0  0  0  0  0  0  0  0  0  0
    0.3060   -6.3052    5.3971 H   0  0  0  0  0  0  0  0  0  0  0  0
    0.7959   -5.6044    7.0445 H   0  0  0  0  0  0  0  0  0  0  0  0
    1.5229   -2.7588    6.5528 H   0  0  0  0  0  0  0  0  0  0  0  0
    2.9309   -3.8085    6.8156 H   0  0  0  0  0  0  0  0  0  0  0  0
    3.6860   -3.5497    4.6907 H   0  0  0  0  0  0  0  0  0  0  0  0
    4.0973   -1.2345    5.8969 H   0  0  0  0  0  0  0  0  0  0  0  0
    5.7707   -2.2269    4.5944 H   0  0  0  0  0  0  0  0  0  0  0  0
    4.2158   -5.2366   -1.0095 H   0  0  0  0  0  0  0  0  0  0  0  0
    3.5980   -7.2249    0.4861 H   0  0  0  0  0  0  0  0  0  0  0  0
    2.5567   -5.9119    1.0128 H   0  0  0  0  0  0  0  0  0  0  0  0
    3.3895   -6.9079    2.2030 H   0  0  0  0  0  0  0  0  0  0  0  0
    6.2294   -6.9637    0.8005 H   0  0  0  0  0  0  0  0  0  0  0  0
    5.9731   -6.6381    2.5120 H   0  0  0  0  0  0  0  0  0  0  0  0
    6.8320   -5.4769    1.5075 H   0  0  0  0  0  0  0  0  0  0  0  0
    5.9484   -1.7950   -1.1324 H   0  0  0  0  0  0  0  0  0  0  0  0
    2.9452   -2.8808   -0.6248 H   0  0  0  0  0  0  0  0  0  0  0  0
    4.6230   -0.5658    0.4696 H   0  0  0  0  0  0  0  0  0  0  0  0
    2.8667   -0.5460    0.3896 H   0  0  0  0  0  0  0  0  0  0  0  0
    1.5671   -2.2279    1.6959 H   0  0  0  0  0  0  0  0  0  0  0  0
    2.3649   -4.9907    3.4456 H   0  0  0  0  0  0  0  0  0  0  0  0
    0.6378   -4.6303    3.3201 H   0  0  0  0  0  0  0  0  0  0  0  0
    1.2321    0.1490    1.4954 H   0  0  0  0  0  0  0  0  0  0  0  0
    1.5710    1.2848    5.2486 H   0  0  0  0  0  0  0  0  0  0  0  0
    2.9283    0.8525    6.2702 H   0  0  0  0  0  0  0  0  0  0  0  0
    1.5952   -0.2588    6.1110 H   0  0  0  0  0  0  0  0  0  0  0  0
    3.4157    1.8593    3.7203 H   0  0  0  0  0  0  0  0  0  0  0  0
    4.3996    0.6507    2.9345 H   0  0  0  0  0  0  0  0  0  0  0  0
    4.7061    1.0779    4.6150 H   0  0  0  0  0  0  0  0  0  0  0  0
    3.2164   -0.1761   -3.0249 H   0  0  0  0  0  0  0  0  0  0  0  0
    4.8383   -0.5995   -3.6211 H   0  0  0  0  0  0  0  0  0  0  0  0
    4.6263    0.0878   -1.9931 H   0  0  0  0  0  0  0  0  0  0  0  0
    2.4948   -2.5744   -3.5451 H   0  0  0  0  0  0  0  0  0  0  0  0
    3.4034   -3.8816   -2.7982 H   0  0  0  0  0  0  0  0  0  0  0  0
    4.1501   -2.9544   -4.0912 H   0  0  0  0  0  0  0  0  0  0  0  0
  1  2  2  0
  1 34  1  0
  1 35  1  0
  2 22  1  0
  2  3  1  0
  3  4  1  0
  3 36  1  0
  3 37  1  0
  4 21  1  0
  4  5  1  0
  4 38  1  6
  5 28  1  0
  5  6  1  0
  5 39  1  1
  6  7  2  0
  6 40  1  0
  7 19  1  0
  7  8  1  0
  8 15  1  1
  8 19  1  0
  8  9  1  0
  9 10  1  0
 10 11  2  0
 10 16  1  0
 11 12  1  0
 11 41  1  0
 12 13  1  0
 12 14  1  0
 12 15  1  0
 13 42  1  0
 13 43  1  0
 13 44  1  0
 14 45  1  0
 14 46  1  0
 14 47  1  0
 16 31  1  0
 16 17  1  0
 16 48  1  1
 17 18  1  0
 17 31  1  0
 17 49  1  6
 19 18  1  6
 18 50  1  0
 18 51  1  0
 19 20  1  0
 20 26  1  0
 20 21  1  0
 20 52  1  6
 21 22  1  0
 21 23  1  1
 22 53  1  0
 22 54  1  0
 23 24  1  0
 24 25  2  0
 24 26  1  0
 26 27  1  6
 26 28  1  0
 27 55  1  0
 28 29  1  0
 28 30  1  0
 29 56  1  0
 29 57  1  0
 29 58  1  0
 30 59  1  0
 30 60  1  0
 30 61  1  0
 31 32  1  0
 31 33  1  0
 32 62  1  0
 32 63  1  0
 32 64  1  0
 33 65  1  0
 33 66  1  0
 33 67  1  0
M  END
>  <i_m_ct_stereo_status>  (163) 
1

>  <s_m_source_file>  (163) 
/var/tmp/pbs.5076255.sched01/tmpb5cfx69f/43pm4c6kpw.sdf

>  <i_m_source_file_index>  (163) 
24

>  <i_lp_mmshare_version>  (163) 
48012

>  <i_f3d_flags>  (163) 
1

>  <s_epik_input>  (163) 
TzFDKD1PKVtDQEBdKFtPSF0pKEMyKFtDSDNdKVtDSDNdKVtDQEBIXTNbQ0BAXTEoW0NIMl1DKD1bQ0gyXSlbQ0gyXTQpW0NASF00W0NASF0yW0NIXT1DNUMzKEM1NjcpW0NIMl1bQ0BASF04W0NASF0oQzgoW0NIM10pW0NIM10pQyhPNik9W0NIXUMoTzcpKFtDSDNdKVtDSDNd

>  <s_epik_cmdline>  (163) 
J2VwaWtfcHl0aG9uJywgJy1waHQnLCAnMi4wJywgJy1waCcsICc3LjAnLCAnLXRuJywgJzgnLCAnLW1hJywgJzIwMCcsICctaW1hZScsICc8aW5maWxlLm1hZT4nLCAnLW9tYWUnLCAnPG91dGZpbGUubWFlPic=

>  <r_lp_tautomer_probability>  (163) 
1

>  <r_epik_Ionization_Penalty>  (163) 
2.87672e-07

>  <r_epik_Ionization_Penalty_Charging>  (163) 
0

>  <r_epik_Ionization_Penalty_Neutral>  (163) 
2.87672e-07

>  <r_epik_State_Penalty>  (163) 
-0

>  <r_epik_Charging_Adjusted_Penalty>  (163) 
0

>  <i_epik_Tot_Q>  (163) 
0

>  <i_epik_Tot_abs_Q>  (163) 
0

>  <s_epik_Chemistry_Notes>  (163) 
This compound has an ester and may undergo hydrolysis at high or low pH.

>  <s_lp_Force_Field>  (163) 
OPLS3e

>  <r_lp_Energy>  (163) 
152.395

>  <b_lp_Chiralities_Consistent>  (163) 
1

>  <s_lp_Variant>  (163) 
44:0-4

>  <s_i_glide_gridfile>  (163) 
pfpi4k_grid

>  <i_i_glide_lignum>  (163) 
24

>  <i_i_glide_rotatable_bonds>  (163) 
1

>  <r_i_docking_score>  (163) 
-2.77127

>  <r_i_glide_ligand_efficiency>  (163) 
-0.0839778

>  <r_i_glide_ligand_efficiency_sa>  (163) 
-0.269362

>  <r_i_glide_ligand_efficiency_ln>  (163) 
-0.616316

>  <r_i_glide_gscore>  (163) 
-2.77127

>  <r_i_glide_lipo>  (163) 
-0.601549

>  <r_i_glide_hbond>  (163) 
0

>  <r_i_glide_metal>  (163) 
-0

>  <r_i_glide_rewards>  (163) 
-0.381871

>  <r_i_glide_evdw>  (163) 
-30.9678

>  <r_i_glide_ecoul>  (163) 
-1.5342

>  <r_i_glide_erotb>  (163) 
0

>  <r_i_glide_esite>  (163) 
-0.00932913

>  <r_i_glide_emodel>  (163) 
-37.0559

>  <r_i_glide_energy>  (163) 
-32.502

>  <r_i_glide_einternal>  (163) 
1.81691

>  <r_i_glide_intrahb_reward>  (163) 
-0

>  <i_i_glide_confnum>  (163) 
1

>  <i_i_glide_posenum>  (163) 
23

>  <r_i_glide_eff_state_penalty>  (163) 
0

>  <ligand_id>  (163) 
44

>  <original_smiles>  (163) 
C=C1CC2C3C=C4C56OC(=CC(C)(C)O5)C5C(CC46C4C2(C1)OC(=O)C4(O)C3(C)C)C5(C)C

>  <smiles>  (163) 
[H]OC12C(=O)OC34C([H])([H])C(=C([H])[H])C([H])([H])C3([H])C([H])(C([H])=C3C56OC(=C([H])C(C([H])([H])[H])(C([H])([H])[H])O5)C5([H])C([H])(C([H])([H])C36C14[H])C5(C([H])([H])[H])C([H])([H])[H])C2(C([H])([H])[H])C([H])([H])[H]

$$$$
44:3:2
     RDKit          3D

 67 74  0  0  1  0  0  0  0  0999 V2000
    1.0011   -5.6623    6.0513 C   0  0  0  0  0  0  0  0  0  0  0  0
    1.6094   -4.6533    5.4178 C   0  0  0  0  0  0  0  0  0  0  0  0
    2.3256   -3.4905    6.1137 C   0  0  0  0  0  0  0  0  0  0  0  0
    2.9755   -2.8137    4.9071 C   0  0  2  0  0  0  0  0  0  0  0  0
    3.7095   -1.4496    4.9027 C   0  0  1  0  0  0  0  0  0  0  0  0
    4.9362   -1.7067    4.0421 C   0  0  0  0  0  0  0  0  0  0  0  0
    4.7915   -1.9313    2.7314 C   0  0  0  0  0  0  0  0  0  0  0  0
    4.8130   -3.1064    1.8285 C   0  0  1  0  0  0  0  0  0  0  0  0
    5.7899   -2.9890    0.8224 O   0  0  0  0  0  0  0  0  0  0  0  0
    5.3076   -3.5670   -0.3088 C   0  0  0  0  0  0  0  0  0  0  0  0
    4.7855   -4.8003   -0.1964 C   0  0  0  0  0  0  0  0  0  0  0  0
    4.7385   -5.4356    1.1962 C   0  0  0  0  0  0  0  0  0  0  0  0
    3.5899   -6.4594    1.2558 C   0  0  0  0  0  0  0  0  0  0  0  0
    6.0940   -6.1064    1.4927 C   0  0  0  0  0  0  0  0  0  0  0  0
    4.5100   -4.4440    2.2446 O   0  0  0  0  0  0  0  0  0  0  0  0
    5.0143   -2.4757   -1.2480 C   0  0  2  0  0  0  0  0  0  0  0  0
    3.5995   -2.1424   -0.7338 C   0  0  1  0  0  0  0  0  0  0  0  0
    3.6001   -1.2169    0.4813 C   0  0  0  0  0  0  0  0  0  0  0  0
    3.6334   -2.0443    1.7959 C   0  0  2  0  0  0  0  0  0  0  0  0
    2.2433   -2.0693    2.5230 C   0  0  1  0  0  0  0  0  0  0  0  0
    1.9410   -2.9524    3.7963 C   0  0  1  0  0  0  0  0  0  0  0  0
    1.6420   -4.4541    3.8921 C   0  0  0  0  0  0  0  0  0  0  0  0
    0.6966   -2.3768    4.1999 O   0  0  0  0  0  0  0  0  0  0  0  0
    0.5394   -1.1464    3.8155 C   0  0  0  0  0  0  0  0  0  0  0  0
   -0.4700   -0.4565    3.9570 O   0  0  0  0  0  0  0  0  0  0  0  0
    1.8558   -0.6999    3.2006 C   0  0  2  0  0  0  0  0  0  0  0  0
    1.5716    0.3551    2.3061 O   0  0  0  0  0  0  0  0  0  0  0  0
    2.8565   -0.2353    4.3611 C   0  0  0  0  0  0  0  0  0  0  0  0
    2.1368    0.3903    5.5921 C   0  0  0  0  0  0  0  0  0  0  0  0
    3.7915    0.9043    3.8679 C   0  0  0  0  0  0  0  0  0  0  0  0
    3.9114   -1.9857   -2.1828 C   0  0  0  0  0  0  0  0  0  0  0  0
    3.9825   -0.5928   -2.7565 C   0  0  0  0  0  0  0  0  0  0  0  0
    3.3493   -2.9374   -3.2105 C   0  0  0  0  0  0  0  0  0  0  0  0
    0.4990   -6.4407    5.4967 H   0  0  0  0  0  0  0  0  0  0  0  0
    0.9982   -5.7151    7.1305 H   0  0  0  0  0  0  0  0  0  0  0  0
    1.6004   -2.8452    6.6143 H   0  0  0  0  0  0  0  0  0  0  0  0
    3.0543   -3.8368    6.8476 H   0  0  0  0  0  0  0  0  0  0  0  0
    3.7505   -3.5557    4.7052 H   0  0  0  0  0  0  0  0  0  0  0  0
    4.0968   -1.2218    5.8949 H   0  0  0  0  0  0  0  0  0  0  0  0
    5.7772   -2.1528    4.5578 H   0  0  0  0  0  0  0  0  0  0  0  0
    4.2168   -5.2425   -1.0003 H   0  0  0  0  0  0  0  0  0  0  0  0
    3.7126   -7.2491    0.5134 H   0  0  0  0  0  0  0  0  0  0  0  0
    2.6318   -5.9762    1.0604 H   0  0  0  0  0  0  0  0  0  0  0  0
    3.5307   -6.9340    2.2332 H   0  0  0  0  0  0  0  0  0  0  0  0
    6.3381   -6.8783    0.7653 H   0  0  0  0  0  0  0  0  0  0  0  0
    6.1081   -6.5601    2.4827 H   0  0  0  0  0  0  0  0  0  0  0  0
    6.8968   -5.3679    1.4573 H   0  0  0  0  0  0  0  0  0  0  0  0
    5.8087   -1.7343   -1.1722 H   0  0  0  0  0  0  0  0  0  0  0  0
    2.8633   -2.9369   -0.5956 H   0  0  0  0  0  0  0  0  0  0  0  0
    4.4687   -0.5533    0.4538 H   0  0  0  0  0  0  0  0  0  0  0  0
    2.7069   -0.6071    0.4206 H   0  0  0  0  0  0  0  0  0  0  0  0
    1.5089   -2.3173    1.7567 H   0  0  0  0  0  0  0  0  0  0  0  0
    2.4595   -5.0540    3.4944 H   0  0  0  0  0  0  0  0  0  0  0  0
    0.7170   -4.7628    3.4077 H   0  0  0  0  0  0  0  0  0  0  0  0
    2.3642    0.6080    1.8611 H   0  0  0  0  0  0  0  0  0  0  0  0
    1.4584    1.1929    5.2987 H   0  0  0  0  0  0  0  0  0  0  0  0
    2.8557    0.8199    6.2908 H   0  0  0  0  0  0  0  0  0  0  0  0
    1.5664   -0.3443    6.1625 H   0  0  0  0  0  0  0  0  0  0  0  0
    3.2482    1.8397    3.7267 H   0  0  0  0  0  0  0  0  0  0  0  0
    4.2637    0.6727    2.9140 H   0  0  0  0  0  0  0  0  0  0  0  0
    4.5864    1.1107    4.5882 H   0  0  0  0  0  0  0  0  0  0  0  0
    2.9789   -0.2347   -3.0057 H   0  0  0  0  0  0  0  0  0  0  0  0
    4.6119   -0.5719   -3.6479 H   0  0  0  0  0  0  0  0  0  0  0  0
    4.4100    0.0865   -2.0167 H   0  0  0  0  0  0  0  0  0  0  0  0
    2.3341   -2.6615   -3.5021 H   0  0  0  0  0  0  0  0  0  0  0  0
    3.3201   -3.9237   -2.7767 H   0  0  0  0  0  0  0  0  0  0  0  0
    3.9901   -2.9735   -4.0912 H   0  0  0  0  0  0  0  0  0  0  0  0
  1  2  2  0
  1 34  1  0
  1 35  1  0
  2 22  1  0
  2  3  1  0
  3  4  1  0
  3 36  1  0
  3 37  1  0
  4 21  1  0
  4  5  1  0
  4 38  1  6
  5 28  1  0
  5  6  1  0
  5 39  1  1
  6  7  2  0
  6 40  1  0
  7 19  1  0
  7  8  1  0
  8 15  1  1
  8 19  1  0
  8  9  1  0
  9 10  1  0
 10 11  2  0
 10 16  1  0
 11 12  1  0
 11 41  1  0
 12 13  1  0
 12 14  1  0
 12 15  1  0
 13 42  1  0
 13 43  1  0
 13 44  1  0
 14 45  1  0
 14 46  1  0
 14 47  1  0
 16 31  1  0
 16 17  1  0
 16 48  1  1
 17 18  1  0
 17 31  1  0
 17 49  1  6
 19 18  1  6
 18 50  1  0
 18 51  1  0
 19 20  1  0
 20 26  1  0
 20 21  1  0
 20 52  1  6
 21 22  1  0
 21 23  1  1
 22 53  1  0
 22 54  1  0
 23 24  1  0
 24 25  2  0
 24 26  1  0
 26 27  1  6
 26 28  1  0
 27 55  1  0
 28 29  1  0
 28 30  1  0
 29 56  1  0
 29 57  1  0
 29 58  1  0
 30 59  1  0
 30 60  1  0
 30 61  1  0
 31 32  1  0
 31 33  1  0
 32 62  1  0
 32 63  1  0
 32 64  1  0
 33 65  1  0
 33 66  1  0
 33 67  1  0
M  END
>  <i_m_ct_stereo_status>  (164) 
1

>  <s_m_source_file>  (164) 
/var/tmp/pbs.5076255.sched01/tmpb5cfx69f/43pm4c6kpw.sdf

>  <i_m_source_file_index>  (164) 
24

>  <i_lp_mmshare_version>  (164) 
48012

>  <i_f3d_flags>  (164) 
1

>  <s_epik_input>  (164) 
TzFDKD1PKVtDQEBdKFtPSF0pKEMyKFtDSDNdKVtDSDNdKVtDQEBIXTNbQ0BAXTEoW0NIMl1DKD1bQ0gyXSlbQ0gyXTQpW0NASF00W0NASF0yW0NIXT1DNUMzKEM1NjcpW0NIMl1bQ0BASF04W0NASF0oQzgoW0NIM10pW0NIM10pQyhPNik9W0NIXUMoTzcpKFtDSDNdKVtDSDNd

>  <s_epik_cmdline>  (164) 
J2VwaWtfcHl0aG9uJywgJy1waHQnLCAnMi4wJywgJy1waCcsICc3LjAnLCAnLXRuJywgJzgnLCAnLW1hJywgJzIwMCcsICctaW1hZScsICc8aW5maWxlLm1hZT4nLCAnLW9tYWUnLCAnPG91dGZpbGUubWFlPic=

>  <r_lp_tautomer_probability>  (164) 
1

>  <r_epik_Ionization_Penalty>  (164) 
2.87672e-07

>  <r_epik_Ionization_Penalty_Charging>  (164) 
0

>  <r_epik_Ionization_Penalty_Neutral>  (164) 
2.87672e-07

>  <r_epik_State_Penalty>  (164) 
-0

>  <r_epik_Charging_Adjusted_Penalty>  (164) 
0

>  <i_epik_Tot_Q>  (164) 
0

>  <i_epik_Tot_abs_Q>  (164) 
0

>  <s_epik_Chemistry_Notes>  (164) 
This compound has an ester and may undergo hydrolysis at high or low pH.

>  <s_lp_Force_Field>  (164) 
OPLS3e

>  <r_lp_Energy>  (164) 
152.395

>  <b_lp_Chiralities_Consistent>  (164) 
1

>  <s_lp_Variant>  (164) 
44:0-4

>  <s_i_glide_gridfile>  (164) 
pfpi4k_grid

>  <i_i_glide_lignum>  (164) 
24

>  <i_i_glide_rotatable_bonds>  (164) 
1

>  <r_i_docking_score>  (164) 
-2.52697

>  <r_i_glide_ligand_efficiency>  (164) 
-0.0765748

>  <r_i_glide_ligand_efficiency_sa>  (164) 
-0.245616

>  <r_i_glide_ligand_efficiency_ln>  (164) 
-0.561985

>  <r_i_glide_gscore>  (164) 
-2.52697

>  <r_i_glide_lipo>  (164) 
-0.574974

>  <r_i_glide_hbond>  (164) 
0

>  <r_i_glide_metal>  (164) 
-0

>  <r_i_glide_rewards>  (164) 
-0.380859

>  <r_i_glide_evdw>  (164) 
-30.5279

>  <r_i_glide_ecoul>  (164) 
-0.241655

>  <r_i_glide_erotb>  (164) 
0

>  <r_i_glide_esite>  (164) 
-0.00849304

>  <r_i_glide_emodel>  (164) 
-35.6964

>  <r_i_glide_energy>  (164) 
-30.7695

>  <r_i_glide_einternal>  (164) 
0.0401743

>  <r_i_glide_intrahb_reward>  (164) 
-0

>  <i_i_glide_confnum>  (164) 
1

>  <i_i_glide_posenum>  (164) 
29

>  <r_i_glide_eff_state_penalty>  (164) 
0

>  <ligand_id>  (164) 
44

>  <original_smiles>  (164) 
C=C1CC2C3C=C4C56OC(=CC(C)(C)O5)C5C(CC46C4C2(C1)OC(=O)C4(O)C3(C)C)C5(C)C

>  <smiles>  (164) 
[H]OC12C(=O)OC34C([H])([H])C(=C([H])[H])C([H])([H])C3([H])C([H])(C([H])=C3C56OC(=C([H])C(C([H])([H])[H])(C([H])([H])[H])O5)C5([H])C([H])(C([H])([H])C36C14[H])C5(C([H])([H])[H])C([H])([H])[H])C2(C([H])([H])[H])C([H])([H])[H]

$$$$
45:0:0
     RDKit          3D

 65 69  0  0  1  0  0  0  0  0999 V2000
    1.0056   -0.0388    2.5464 C   0  0  0  0  0  0  0  0  0  0  0  0
    2.1540   -0.8915    2.0542 C   0  0  0  0  0  0  0  0  0  0  0  0
    2.2355   -2.1542    2.0555 N   0  0  0  0  0  0  0  0  0  0  0  0
    3.4983   -2.4936    1.4124 C   0  0  2  0  0  0  0  0  0  0  0  0
    3.1714   -3.1356    0.0461 C   0  0  0  0  0  0  0  0  0  0  0  0
    2.8139   -4.5701    0.4242 C   0  0  0  0  0  0  0  0  0  0  0  0
    3.8765   -4.9488    1.4628 C   0  0  2  0  0  0  0  0  0  0  0  0
    3.5466   -6.1600    2.3788 C   0  0  2  0  0  0  0  0  0  0  0  0
    3.0746   -7.3937    1.5913 C   0  0  0  0  0  0  0  0  0  0  0  0
    2.7874   -8.5941    2.5077 C   0  0  0  0  0  0  0  0  0  0  0  0
    1.7939   -8.2894    3.6602 C   0  0  2  0  0  0  0  0  0  0  0  0
    0.2615   -8.4325    3.2824 C   0  0  0  0  0  0  0  0  0  0  0  0
   -0.1942   -7.5475    2.0956 C   0  0  0  0  0  0  0  0  0  0  0  0
   -0.0519   -9.8978    2.8815 C   0  0  0  0  0  0  0  0  0  0  0  0
   -0.6357   -8.0705    4.4986 C   0  0  1  0  0  0  0  0  0  0  0  0
   -0.5854   -9.0438    5.5293 O   0  0  0  0  0  0  0  0  0  0  0  0
   -0.2683   -6.6963    5.0771 C   0  0  0  0  0  0  0  0  0  0  0  0
    1.1834   -6.6750    5.5605 C   0  0  0  0  0  0  0  0  0  0  0  0
    2.2570   -7.0226    4.4848 C   0  0  1  0  0  0  0  0  0  0  0  0
    3.5266   -7.4031    5.2999 C   0  0  0  0  0  0  0  0  0  0  0  0
    2.5891   -5.7983    3.5455 C   0  0  1  0  0  0  0  0  0  0  0  0
    3.1647   -4.5878    4.2726 C   0  0  0  0  0  0  0  0  0  0  0  0
    3.9135   -3.6405    3.6745 C   0  0  0  0  0  0  0  0  0  0  0  0
    4.2828   -3.6234    2.1928 C   0  0  2  0  0  0  0  0  0  0  0  0
    5.8172   -3.4787    2.0788 C   0  0  0  0  0  0  0  0  0  0  0  0
    4.2141   -1.0981    1.3160 C   0  0  1  0  0  0  0  0  0  0  0  0
    4.8594   -0.8535    0.0793 O   0  0  0  0  0  0  0  0  0  0  0  0
    3.2070   -0.1861    1.5616 O   0  0  0  0  0  0  0  0  0  0  0  0
    0.2114   -0.6678    2.9485 H   0  0  0  0  0  0  0  0  0  0  0  0
    0.5941    0.5598    1.7312 H   0  0  0  0  0  0  0  0  0  0  0  0
    1.3436    0.6374    3.3323 H   0  0  0  0  0  0  0  0  0  0  0  0
    2.3739   -2.6402   -0.5052 H   0  0  0  0  0  0  0  0  0  0  0  0
    4.0518   -3.1528   -0.5965 H   0  0  0  0  0  0  0  0  0  0  0  0
    1.8203   -4.6049    0.8683 H   0  0  0  0  0  0  0  0  0  0  0  0
    2.8212   -5.2370   -0.4356 H   0  0  0  0  0  0  0  0  0  0  0  0
    4.7283   -5.2656    0.8596 H   0  0  0  0  0  0  0  0  0  0  0  0
    4.5018   -6.4431    2.8210 H   0  0  0  0  0  0  0  0  0  0  0  0
    2.1970   -7.1461    1.0036 H   0  0  0  0  0  0  0  0  0  0  0  0
    3.8373   -7.6836    0.8669 H   0  0  0  0  0  0  0  0  0  0  0  0
    2.4552   -9.4400    1.9105 H   0  0  0  0  0  0  0  0  0  0  0  0
    3.7336   -8.9248    2.9363 H   0  0  0  0  0  0  0  0  0  0  0  0
    1.9316   -9.1226    4.3508 H   0  0  0  0  0  0  0  0  0  0  0  0
   -1.2794   -7.5691    1.9913 H   0  0  0  0  0  0  0  0  0  0  0  0
    0.2055   -7.8866    1.1430 H   0  0  0  0  0  0  0  0  0  0  0  0
    0.0891   -6.5076    2.2159 H   0  0  0  0  0  0  0  0  0  0  0  0
   -1.1255  -10.0690    2.7939 H   0  0  0  0  0  0  0  0  0  0  0  0
    0.3293  -10.6114    3.6129 H   0  0  0  0  0  0  0  0  0  0  0  0
    0.3923  -10.1703    1.9267 H   0  0  0  0  0  0  0  0  0  0  0  0
   -1.6809   -8.0435    4.1869 H   0  0  0  0  0  0  0  0  0  0  0  0
   -1.1374   -9.7961    5.2774 H   0  0  0  0  0  0  0  0  0  0  0  0
   -0.4346   -5.9079    4.3463 H   0  0  0  0  0  0  0  0  0  0  0  0
   -0.9274   -6.4579    5.9100 H   0  0  0  0  0  0  0  0  0  0  0  0
    1.3757   -5.7067    6.0141 H   0  0  0  0  0  0  0  0  0  0  0  0
    1.2621   -7.3835    6.3873 H   0  0  0  0  0  0  0  0  0  0  0  0
    3.8464   -6.5990    5.9637 H   0  0  0  0  0  0  0  0  0  0  0  0
    4.3799   -7.6594    4.6754 H   0  0  0  0  0  0  0  0  0  0  0  0
    3.3411   -8.2680    5.9371 H   0  0  0  0  0  0  0  0  0  0  0  0
    1.6578   -5.4362    3.1182 H   0  0  0  0  0  0  0  0  0  0  0  0
    2.9554   -4.4840    5.3231 H   0  0  0  0  0  0  0  0  0  0  0  0
    4.2799   -2.8084    4.2552 H   0  0  0  0  0  0  0  0  0  0  0  0
    6.1437   -3.3385    1.0487 H   0  0  0  0  0  0  0  0  0  0  0  0
    6.3175   -4.3662    2.4645 H   0  0  0  0  0  0  0  0  0  0  0  0
    6.1932   -2.6378    2.6597 H   0  0  0  0  0  0  0  0  0  0  0  0
    4.9485   -0.9468    2.1044 H   0  0  0  0  0  0  0  0  0  0  0  0
    5.0546    0.0707    0.0372 H   0  0  0  0  0  0  0  0  0  0  0  0
  1  2  1  0
  1 29  1  0
  1 30  1  0
  1 31  1  0
  2 28  1  0
  2  3  2  0
  3  4  1  0
  4 24  1  0
  4  5  1  6
  4 26  1  0
  5  6  1  0
  5 32  1  0
  5 33  1  0
  6  7  1  0
  6 34  1  0
  6 35  1  0
  7 24  1  0
  7  8  1  0
  7 36  1  6
  8 21  1  0
  8  9  1  0
  8 37  1  1
  9 10  1  0
  9 38  1  0
  9 39  1  0
 10 11  1  0
 10 40  1  0
 10 41  1  0
 11 19  1  0
 11 12  1  0
 11 42  1  1
 12 13  1  0
 12 14  1  0
 12 15  1  0
 13 43  1  0
 13 44  1  0
 13 45  1  0
 14 46  1  0
 14 47  1  0
 14 48  1  0
 15 16  1  0
 15 17  1  0
 15 49  1  6
 16 50  1  0
 17 18  1  0
 17 51  1  0
 17 52  1  0
 18 19  1  0
 18 53  1  0
 18 54  1  0
 19 20  1  1
 19 21  1  0
 20 55  1  0
 20 56  1  0
 20 57  1  0
 21 22  1  0
 21 58  1  6
 22 23  2  0
 22 59  1  0
 23 24  1  0
 23 60  1  0
 24 25  1  1
 25 61  1  0
 25 62  1  0
 25 63  1  0
 26 27  1  0
 26 28  1  0
 26 64  1  1
 27 65  1  0
M  END
>  <i_m_ct_stereo_status>  (165) 
1

>  <s_m_source_file>  (165) 
/var/tmp/pbs.5076255.sched01/tmpb5cfx69f/43pm4c6kpw.sdf

>  <i_m_source_file_index>  (165) 
25

>  <i_lp_mmshare_version>  (165) 
48012

>  <i_f3d_flags>  (165) 
0

>  <s_epik_input>  (165) 
W09IXVtDQEhdMU9DKFtDSDNdKT1OW0NAXTEyW0NAXTMoW0NIM10pW0NASF0oW0NIMl1bQ0gyXTIpW0NASF00W0NASF0oW0NIXT1bQ0hdMylbQ0BdNShbQ0gzXSlbQ0BIXShbQ0gyXVtDSDJdNClDKFtDSDNdKShbQ0gzXSlbQ0BASF0oW09IXSlbQ0gyXVtDSDJdNQ==

>  <s_epik_cmdline>  (165) 
J2VwaWtfcHl0aG9uJywgJy1waHQnLCAnMi4wJywgJy1waCcsICc3LjAnLCAnLXRuJywgJzgnLCAnLW1hJywgJzIwMCcsICctaW1hZScsICc8aW5maWxlLm1hZT4nLCAnLW9tYWUnLCAnPG91dGZpbGUubWFlPic=

>  <r_lp_tautomer_probability>  (165) 
0.994621

>  <r_epik_Ionization_Penalty>  (165) 
0.00381929

>  <r_epik_Ionization_Penalty_Charging>  (165) 
0

>  <r_epik_Ionization_Penalty_Neutral>  (165) 
0.00381929

>  <r_epik_State_Penalty>  (165) 
0.0027187

>  <r_epik_Charging_Adjusted_Penalty>  (165) 
0.0027187

>  <i_epik_Tot_Q>  (165) 
0

>  <i_epik_Tot_abs_Q>  (165) 
0

>  <s_epik_Chemistry_Notes>  (165) 
This compound has an imine and may undergo hydrolysis. This compound contains an acetal/aminal-like group ( X-CH(R)-Y where X, Y are N, S, or O) that may be acid/base labile, releasing an aldehyde.

>  <s_lp_Force_Field>  (165) 
OPLS3e

>  <r_lp_Energy>  (165) 
52.067

>  <b_lp_Chiralities_Consistent>  (165) 
1

>  <s_lp_Variant>  (165) 
45:0-1

>  <s_i_glide_gridfile>  (165) 
pfpi4k_grid

>  <i_i_glide_lignum>  (165) 
25

>  <i_i_glide_rotatable_bonds>  (165) 
2

>  <r_i_docking_score>  (165) 
-2.83349

>  <r_i_glide_ligand_efficiency>  (165) 
-0.101196

>  <r_i_glide_ligand_efficiency_sa>  (165) 
-0.30729

>  <r_i_glide_ligand_efficiency_ln>  (165) 
-0.654052

>  <r_i_glide_gscore>  (165) 
-2.83349

>  <r_i_glide_lipo>  (165) 
-0.108723

>  <r_i_glide_hbond>  (165) 
-0.16

>  <r_i_glide_metal>  (165) 
-0

>  <r_i_glide_rewards>  (165) 
-0.793272

>  <r_i_glide_evdw>  (165) 
-21.0358

>  <r_i_glide_ecoul>  (165) 
-4.4779

>  <r_i_glide_erotb>  (165) 
0

>  <r_i_glide_esite>  (165) 
-0.0480164

>  <r_i_glide_emodel>  (165) 
-29.8806

>  <r_i_glide_energy>  (165) 
-25.5137

>  <r_i_glide_einternal>  (165) 
1.22328

>  <r_i_glide_intrahb_reward>  (165) 
-0

>  <i_i_glide_confnum>  (165) 
2

>  <i_i_glide_posenum>  (165) 
18

>  <r_i_glide_eff_state_penalty>  (165) 
0

>  <ligand_id>  (165) 
45

>  <original_smiles>  (165) 
CC1=NC2(CCC3C4CCC5C(C)(C)C(O)CCC5(C)C4C=CC32C)C(O)O1

>  <smiles>  (165) 
[H]OC1([H])OC(C([H])([H])[H])=NC12C([H])([H])C([H])([H])C1([H])C3([H])C([H])([H])C([H])([H])C4([H])C(C([H])([H])[H])(C([H])([H])[H])C([H])(O[H])C([H])([H])C([H])([H])C4(C([H])([H])[H])C3([H])C([H])=C([H])C12C([H])([H])[H]

$$$$
45:0:1
     RDKit          3D

 65 69  0  0  1  0  0  0  0  0999 V2000
    1.1827   -0.0927    2.4839 C   0  0  0  0  0  0  0  0  0  0  0  0
    2.2913   -0.9808    1.9664 C   0  0  0  0  0  0  0  0  0  0  0  0
    2.3311   -2.2457    1.9623 N   0  0  0  0  0  0  0  0  0  0  0  0
    3.5687   -2.6266    1.2950 C   0  0  2  0  0  0  0  0  0  0  0  0
    3.1893   -3.2528   -0.0628 C   0  0  0  0  0  0  0  0  0  0  0  0
    2.7978   -4.6722    0.3308 C   0  0  0  0  0  0  0  0  0  0  0  0
    3.8791   -5.0836    1.3401 C   0  0  2  0  0  0  0  0  0  0  0  0
    3.5411   -6.2832    2.2682 C   0  0  2  0  0  0  0  0  0  0  0  0
    3.0144   -7.5047    1.4975 C   0  0  0  0  0  0  0  0  0  0  0  0
    2.7157   -8.6941    2.4236 C   0  0  0  0  0  0  0  0  0  0  0  0
    1.7623   -8.3597    3.6023 C   0  0  2  0  0  0  0  0  0  0  0  0
    0.2165   -8.4576    3.2686 C   0  0  0  0  0  0  0  0  0  0  0  0
   -0.2445   -7.5634    2.0928 C   0  0  0  0  0  0  0  0  0  0  0  0
   -0.1500   -9.9136    2.8812 C   0  0  0  0  0  0  0  0  0  0  0  0
   -0.6358   -8.0684    4.5044 C   0  0  1  0  0  0  0  0  0  0  0  0
   -0.5842   -9.0446    5.5291 O   0  0  0  0  0  0  0  0  0  0  0  0
   -0.2140   -6.7066    5.0704 C   0  0  0  0  0  0  0  0  0  0  0  0
    1.2526   -6.7258    5.5137 C   0  0  0  0  0  0  0  0  0  0  0  0
    2.2838   -7.1061    4.4100 C   0  0  1  0  0  0  0  0  0  0  0  0
    3.5650   -7.5193    5.1917 C   0  0  0  0  0  0  0  0  0  0  0  0
    2.6256   -5.8930    3.4595 C   0  0  1  0  0  0  0  0  0  0  0  0
    3.2578   -4.6954    4.1663 C   0  0  0  0  0  0  0  0  0  0  0  0
    4.0146   -3.7743    3.5456 C   0  0  0  0  0  0  0  0  0  0  0  0
    4.3446   -3.7731    2.0552 C   0  0  2  0  0  0  0  0  0  0  0  0
    5.8767   -3.6735    1.8999 C   0  0  0  0  0  0  0  0  0  0  0  0
    4.3225   -1.2531    1.1733 C   0  0  1  0  0  0  0  0  0  0  0  0
    4.9284   -1.0433   -0.0849 O   0  0  0  0  0  0  0  0  0  0  0  0
    3.3570   -0.3058    1.4560 O   0  0  0  0  0  0  0  0  0  0  0  0
    0.3805   -0.6963    2.9089 H   0  0  0  0  0  0  0  0  0  0  0  0
    0.7676    0.5192    1.6781 H   0  0  0  0  0  0  0  0  0  0  0  0
    1.5654    0.5747    3.2585 H   0  0  0  0  0  0  0  0  0  0  0  0
    2.3964   -2.7229   -0.5916 H   0  0  0  0  0  0  0  0  0  0  0  0
    4.0506   -3.3064   -0.7286 H   0  0  0  0  0  0  0  0  0  0  0  0
    1.8177   -4.6771    0.8033 H   0  0  0  0  0  0  0  0  0  0  0  0
    2.7620   -5.3432   -0.5252 H   0  0  0  0  0  0  0  0  0  0  0  0
    4.7049   -5.4267    0.7152 H   0  0  0  0  0  0  0  0  0  0  0  0
    4.4998   -6.5944    2.6830 H   0  0  0  0  0  0  0  0  0  0  0  0
    2.1285   -7.2345    0.9317 H   0  0  0  0  0  0  0  0  0  0  0  0
    3.7539   -7.8185    0.7594 H   0  0  0  0  0  0  0  0  0  0  0  0
    2.3411   -9.5307    1.8382 H   0  0  0  0  0  0  0  0  0  0  0  0
    3.6628   -9.0531    2.8279 H   0  0  0  0  0  0  0  0  0  0  0  0
    1.8951   -9.1937    4.2896 H   0  0  0  0  0  0  0  0  0  0  0  0
   -1.3343   -7.5545    2.0181 H   0  0  0  0  0  0  0  0  0  0  0  0
    0.1198   -7.9158    1.1289 H   0  0  0  0  0  0  0  0  0  0  0  0
    0.0720   -6.5315    2.2015 H   0  0  0  0  0  0  0  0  0  0  0  0
   -1.2306  -10.0513    2.8220 H   0  0  0  0  0  0  0  0  0  0  0  0
    0.2292  -10.6361    3.6044 H   0  0  0  0  0  0  0  0  0  0  0  0
    0.2619  -10.2031    1.9168 H   0  0  0  0  0  0  0  0  0  0  0  0
   -1.6859   -8.0091    4.2205 H   0  0  0  0  0  0  0  0  0  0  0  0
   -1.1378   -9.7914    5.2807 H   0  0  0  0  0  0  0  0  0  0  0  0
   -0.3755   -5.9121    4.3439 H   0  0  0  0  0  0  0  0  0  0  0  0
   -0.8409   -6.4472    5.9242 H   0  0  0  0  0  0  0  0  0  0  0  0
    1.4831   -5.7605    5.9578 H   0  0  0  0  0  0  0  0  0  0  0  0
    1.3338   -7.4345    6.3417 H   0  0  0  0  0  0  0  0  0  0  0  0
    3.9258   -6.7239    5.8444 H   0  0  0  0  0  0  0  0  0  0  0  0
    4.3930   -7.8029    4.5440 H   0  0  0  0  0  0  0  0  0  0  0  0
    3.3703   -8.3778    5.8357 H   0  0  0  0  0  0  0  0  0  0  0  0
    1.6947   -5.5050    3.0554 H   0  0  0  0  0  0  0  0  0  0  0  0
    3.0768   -4.5878    5.2245 H   0  0  0  0  0  0  0  0  0  0  0  0
    4.4227   -2.9509    4.1120 H   0  0  0  0  0  0  0  0  0  0  0  0
    6.1829   -3.5430    0.8603 H   0  0  0  0  0  0  0  0  0  0  0  0
    6.3684   -4.5700    2.2743 H   0  0  0  0  0  0  0  0  0  0  0  0
    6.2786   -2.8403    2.4689 H   0  0  0  0  0  0  0  0  0  0  0  0
    5.0959   -1.1207    1.9295 H   0  0  0  0  0  0  0  0  0  0  0  0
    4.2491   -1.1171   -0.7405 H   0  0  0  0  0  0  0  0  0  0  0  0
  1  2  1  0
  1 29  1  0
  1 30  1  0
  1 31  1  0
  2 28  1  0
  2  3  2  0
  3  4  1  0
  4 24  1  0
  4  5  1  6
  4 26  1  0
  5  6  1  0
  5 32  1  0
  5 33  1  0
  6  7  1  0
  6 34  1  0
  6 35  1  0
  7 24  1  0
  7  8  1  0
  7 36  1  6
  8 21  1  0
  8  9  1  0
  8 37  1  1
  9 10  1  0
  9 38  1  0
  9 39  1  0
 10 11  1  0
 10 40  1  0
 10 41  1  0
 11 19  1  0
 11 12  1  0
 11 42  1  1
 12 13  1  0
 12 14  1  0
 12 15  1  0
 13 43  1  0
 13 44  1  0
 13 45  1  0
 14 46  1  0
 14 47  1  0
 14 48  1  0
 15 16  1  0
 15 17  1  0
 15 49  1  6
 16 50  1  0
 17 18  1  0
 17 51  1  0
 17 52  1  0
 18 19  1  0
 18 53  1  0
 18 54  1  0
 19 20  1  1
 19 21  1  0
 20 55  1  0
 20 56  1  0
 20 57  1  0
 21 22  1  0
 21 58  1  6
 22 23  2  0
 22 59  1  0
 23 24  1  0
 23 60  1  0
 24 25  1  1
 25 61  1  0
 25 62  1  0
 25 63  1  0
 26 27  1  0
 26 28  1  0
 26 64  1  1
 27 65  1  0
M  END
>  <i_m_ct_stereo_status>  (166) 
1

>  <s_m_source_file>  (166) 
/var/tmp/pbs.5076255.sched01/tmpb5cfx69f/43pm4c6kpw.sdf

>  <i_m_source_file_index>  (166) 
25

>  <i_lp_mmshare_version>  (166) 
48012

>  <i_f3d_flags>  (166) 
0

>  <s_epik_input>  (166) 
W09IXVtDQEhdMU9DKFtDSDNdKT1OW0NAXTEyW0NAXTMoW0NIM10pW0NASF0oW0NIMl1bQ0gyXTIpW0NASF00W0NASF0oW0NIXT1bQ0hdMylbQ0BdNShbQ0gzXSlbQ0BIXShbQ0gyXVtDSDJdNClDKFtDSDNdKShbQ0gzXSlbQ0BASF0oW09IXSlbQ0gyXVtDSDJdNQ==

>  <s_epik_cmdline>  (166) 
J2VwaWtfcHl0aG9uJywgJy1waHQnLCAnMi4wJywgJy1waCcsICc3LjAnLCAnLXRuJywgJzgnLCAnLW1hJywgJzIwMCcsICctaW1hZScsICc8aW5maWxlLm1hZT4nLCAnLW9tYWUnLCAnPG91dGZpbGUubWFlPic=

>  <r_lp_tautomer_probability>  (166) 
0.994621

>  <r_epik_Ionization_Penalty>  (166) 
0.00381929

>  <r_epik_Ionization_Penalty_Charging>  (166) 
0

>  <r_epik_Ionization_Penalty_Neutral>  (166) 
0.00381929

>  <r_epik_State_Penalty>  (166) 
0.0027187

>  <r_epik_Charging_Adjusted_Penalty>  (166) 
0.0027187

>  <i_epik_Tot_Q>  (166) 
0

>  <i_epik_Tot_abs_Q>  (166) 
0

>  <s_epik_Chemistry_Notes>  (166) 
This compound has an imine and may undergo hydrolysis. This compound contains an acetal/aminal-like group ( X-CH(R)-Y where X, Y are N, S, or O) that may be acid/base labile, releasing an aldehyde.

>  <s_lp_Force_Field>  (166) 
OPLS3e

>  <r_lp_Energy>  (166) 
52.067

>  <b_lp_Chiralities_Consistent>  (166) 
1

>  <s_lp_Variant>  (166) 
45:0-1

>  <s_i_glide_gridfile>  (166) 
pfpi4k_grid

>  <i_i_glide_lignum>  (166) 
25

>  <i_i_glide_rotatable_bonds>  (166) 
2

>  <r_i_docking_score>  (166) 
-2.73022

>  <r_i_glide_ligand_efficiency>  (166) 
-0.0975077

>  <r_i_glide_ligand_efficiency_sa>  (166) 
-0.296091

>  <r_i_glide_ligand_efficiency_ln>  (166) 
-0.630214

>  <r_i_glide_gscore>  (166) 
-2.73022

>  <r_i_glide_lipo>  (166) 
-0.116953

>  <r_i_glide_hbond>  (166) 
-0.16

>  <r_i_glide_metal>  (166) 
-0

>  <r_i_glide_rewards>  (166) 
-0.772104

>  <r_i_glide_evdw>  (166) 
-20.7386

>  <r_i_glide_ecoul>  (166) 
-3.96683

>  <r_i_glide_erotb>  (166) 
0

>  <r_i_glide_esite>  (166) 
-0.0492088

>  <r_i_glide_emodel>  (166) 
-29.2741

>  <r_i_glide_energy>  (166) 
-24.7054

>  <r_i_glide_einternal>  (166) 
0.581771

>  <r_i_glide_intrahb_reward>  (166) 
-0

>  <i_i_glide_confnum>  (166) 
2

>  <i_i_glide_posenum>  (166) 
16

>  <r_i_glide_eff_state_penalty>  (166) 
0

>  <ligand_id>  (166) 
45

>  <original_smiles>  (166) 
CC1=NC2(CCC3C4CCC5C(C)(C)C(O)CCC5(C)C4C=CC32C)C(O)O1

>  <smiles>  (166) 
[H]OC1([H])OC(C([H])([H])[H])=NC12C([H])([H])C([H])([H])C1([H])C3([H])C([H])([H])C([H])([H])C4([H])C(C([H])([H])[H])(C([H])([H])[H])C([H])(O[H])C([H])([H])C([H])([H])C4(C([H])([H])[H])C3([H])C([H])=C([H])C12C([H])([H])[H]

$$$$
45:0:2
     RDKit          3D

 65 69  0  0  1  0  0  0  0  0999 V2000
    1.5270    0.3809    2.2174 C   0  0  0  0  0  0  0  0  0  0  0  0
    2.6121   -0.5276    1.6772 C   0  0  0  0  0  0  0  0  0  0  0  0
    2.6604   -1.7885    1.7206 N   0  0  0  0  0  0  0  0  0  0  0  0
    3.8639   -2.1916    1.0065 C   0  0  2  0  0  0  0  0  0  0  0  0
    3.4252   -2.8611   -0.3127 C   0  0  0  0  0  0  0  0  0  0  0  0
    3.0528   -4.2707    0.1355 C   0  0  0  0  0  0  0  0  0  0  0  0
    4.1734   -4.6499    1.1145 C   0  0  2  0  0  0  0  0  0  0  0  0
    3.8758   -5.8169    2.0962 C   0  0  2  0  0  0  0  0  0  0  0  0
    3.3158   -7.0606    1.3872 C   0  0  0  0  0  0  0  0  0  0  0  0
    3.0607   -8.2199    2.3618 C   0  0  0  0  0  0  0  0  0  0  0  0
    2.1579   -7.8480    3.5677 C   0  0  2  0  0  0  0  0  0  0  0  0
    0.5991   -7.9557    3.3036 C   0  0  0  0  0  0  0  0  0  0  0  0
    0.0866   -7.1023    2.1176 C   0  0  0  0  0  0  0  0  0  0  0  0
    0.2161   -9.4228    2.9785 C   0  0  0  0  0  0  0  0  0  0  0  0
   -0.1950   -7.5219    4.5655 C   0  0  1  0  0  0  0  0  0  0  0  0
   -0.0878   -8.4465    5.6312 O   0  0  0  0  0  0  0  0  0  0  0  0
    0.2432   -6.1447    5.0705 C   0  0  0  0  0  0  0  0  0  0  0  0
    1.7274   -6.1497    5.4504 C   0  0  0  0  0  0  0  0  0  0  0  0
    2.7107   -6.5688    4.3152 C   0  0  1  0  0  0  0  0  0  0  0  0
    4.0241   -6.9590    5.0547 C   0  0  0  0  0  0  0  0  0  0  0  0
    3.0107   -5.3877    3.3128 C   0  0  1  0  0  0  0  0  0  0  0  0
    3.6718   -4.1689    3.9542 C   0  0  0  0  0  0  0  0  0  0  0  0
    4.4045   -3.2728    3.2740 C   0  0  0  0  0  0  0  0  0  0  0  0
    4.6675   -3.3166    1.7679 C   0  0  2  0  0  0  0  0  0  0  0  0
    6.1904   -3.2208    1.5469 C   0  0  0  0  0  0  0  0  0  0  0  0
    4.6133   -0.8269    0.8134 C   0  0  1  0  0  0  0  0  0  0  0  0
    5.1801   -0.6572   -0.4685 O   0  0  0  0  0  0  0  0  0  0  0  0
    3.6511    0.1244    1.0864 O   0  0  0  0  0  0  0  0  0  0  0  0
    0.7408   -0.2061    2.6933 H   0  0  0  0  0  0  0  0  0  0  0  0
    1.0754    0.9657    1.4137 H   0  0  0  0  0  0  0  0  0  0  0  0
    1.9358    1.0733    2.9555 H   0  0  0  0  0  0  0  0  0  0  0  0
    2.6132   -2.3426   -0.8235 H   0  0  0  0  0  0  0  0  0  0  0  0
    4.2589   -2.9309   -1.0094 H   0  0  0  0  0  0  0  0  0  0  0  0
    2.0947   -4.2563    0.6503 H   0  0  0  0  0  0  0  0  0  0  0  0
    2.9792   -4.9622   -0.7044 H   0  0  0  0  0  0  0  0  0  0  0  0
    4.9729   -5.0117    0.4672 H   0  0  0  0  0  0  0  0  0  0  0  0
    4.8515   -6.1131    2.4813 H   0  0  0  0  0  0  0  0  0  0  0  0
    2.4033   -6.8041    0.8602 H   0  0  0  0  0  0  0  0  0  0  0  0
    4.0154   -7.3959    0.6202 H   0  0  0  0  0  0  0  0  0  0  0  0
    2.6627   -9.0751    1.8212 H   0  0  0  0  0  0  0  0  0  0  0  0
    4.0241   -8.5644    2.7371 H   0  0  0  0  0  0  0  0  0  0  0  0
    2.3250   -8.6615    4.2729 H   0  0  0  0  0  0  0  0  0  0  0  0
   -1.0040   -7.0929    2.0886 H   0  0  0  0  0  0  0  0  0  0  0  0
    0.4067   -7.5009    1.1555 H   0  0  0  0  0  0  0  0  0  0  0  0
    0.4078   -6.0679    2.1782 H   0  0  0  0  0  0  0  0  0  0  0  0
   -0.8653   -9.5683    2.9775 H   0  0  0  0  0  0  0  0  0  0  0  0
    0.6288  -10.1251    3.7031 H   0  0  0  0  0  0  0  0  0  0  0  0
    0.5787   -9.7359    2.0019 H   0  0  0  0  0  0  0  0  0  0  0  0
   -1.2595   -7.4804    4.3305 H   0  0  0  0  0  0  0  0  0  0  0  0
    0.8037   -8.7609    5.6798 H   0  0  0  0  0  0  0  0  0  0  0  0
    0.0453   -5.3743    4.3266 H   0  0  0  0  0  0  0  0  0  0  0  0
   -0.3541   -5.8733    5.9431 H   0  0  0  0  0  0  0  0  0  0  0  0
    1.9765   -5.1712    5.8521 H   0  0  0  0  0  0  0  0  0  0  0  0
    1.8464   -6.8283    6.2987 H   0  0  0  0  0  0  0  0  0  0  0  0
    4.4115   -6.1427    5.6651 H   0  0  0  0  0  0  0  0  0  0  0  0
    4.8242   -7.2622    4.3813 H   0  0  0  0  0  0  0  0  0  0  0  0
    3.8599   -7.7964    5.7339 H   0  0  0  0  0  0  0  0  0  0  0  0
    2.0638   -5.0103    2.9363 H   0  0  0  0  0  0  0  0  0  0  0  0
    3.5362   -4.0238    5.0149 H   0  0  0  0  0  0  0  0  0  0  0  0
    4.8317   -2.4283    3.7965 H   0  0  0  0  0  0  0  0  0  0  0  0
    6.4529   -3.1220    0.4924 H   0  0  0  0  0  0  0  0  0  0  0  0
    6.7001   -4.1036    1.9298 H   0  0  0  0  0  0  0  0  0  0  0  0
    6.6080   -2.3663    2.0737 H   0  0  0  0  0  0  0  0  0  0  0  0
    5.4015   -0.6658    1.5465 H   0  0  0  0  0  0  0  0  0  0  0  0
    5.2907    0.2791   -0.6090 H   0  0  0  0  0  0  0  0  0  0  0  0
  1  2  1  0
  1 29  1  0
  1 30  1  0
  1 31  1  0
  2 28  1  0
  2  3  2  0
  3  4  1  0
  4 24  1  0
  4  5  1  6
  4 26  1  0
  5  6  1  0
  5 32  1  0
  5 33  1  0
  6  7  1  0
  6 34  1  0
  6 35  1  0
  7 24  1  0
  7  8  1  0
  7 36  1  6
  8 21  1  0
  8  9  1  0
  8 37  1  1
  9 10  1  0
  9 38  1  0
  9 39  1  0
 10 11  1  0
 10 40  1  0
 10 41  1  0
 11 19  1  0
 11 12  1  0
 11 42  1  1
 12 13  1  0
 12 14  1  0
 12 15  1  0
 13 43  1  0
 13 44  1  0
 13 45  1  0
 14 46  1  0
 14 47  1  0
 14 48  1  0
 15 16  1  0
 15 17  1  0
 15 49  1  6
 16 50  1  0
 17 18  1  0
 17 51  1  0
 17 52  1  0
 18 19  1  0
 18 53  1  0
 18 54  1  0
 19 20  1  1
 19 21  1  0
 20 55  1  0
 20 56  1  0
 20 57  1  0
 21 22  1  0
 21 58  1  6
 22 23  2  0
 22 59  1  0
 23 24  1  0
 23 60  1  0
 24 25  1  1
 25 61  1  0
 25 62  1  0
 25 63  1  0
 26 27  1  0
 26 28  1  0
 26 64  1  1
 27 65  1  0
M  END
>  <i_m_ct_stereo_status>  (167) 
1

>  <s_m_source_file>  (167) 
/var/tmp/pbs.5076255.sched01/tmpb5cfx69f/43pm4c6kpw.sdf

>  <i_m_source_file_index>  (167) 
25

>  <i_lp_mmshare_version>  (167) 
48012

>  <i_f3d_flags>  (167) 
0

>  <s_epik_input>  (167) 
W09IXVtDQEhdMU9DKFtDSDNdKT1OW0NAXTEyW0NAXTMoW0NIM10pW0NASF0oW0NIMl1bQ0gyXTIpW0NASF00W0NASF0oW0NIXT1bQ0hdMylbQ0BdNShbQ0gzXSlbQ0BIXShbQ0gyXVtDSDJdNClDKFtDSDNdKShbQ0gzXSlbQ0BASF0oW09IXSlbQ0gyXVtDSDJdNQ==

>  <s_epik_cmdline>  (167) 
J2VwaWtfcHl0aG9uJywgJy1waHQnLCAnMi4wJywgJy1waCcsICc3LjAnLCAnLXRuJywgJzgnLCAnLW1hJywgJzIwMCcsICctaW1hZScsICc8aW5maWxlLm1hZT4nLCAnLW9tYWUnLCAnPG91dGZpbGUubWFlPic=

>  <r_lp_tautomer_probability>  (167) 
0.994621

>  <r_epik_Ionization_Penalty>  (167) 
0.00381929

>  <r_epik_Ionization_Penalty_Charging>  (167) 
0

>  <r_epik_Ionization_Penalty_Neutral>  (167) 
0.00381929

>  <r_epik_State_Penalty>  (167) 
0.0027187

>  <r_epik_Charging_Adjusted_Penalty>  (167) 
0.0027187

>  <i_epik_Tot_Q>  (167) 
0

>  <i_epik_Tot_abs_Q>  (167) 
0

>  <s_epik_Chemistry_Notes>  (167) 
This compound has an imine and may undergo hydrolysis. This compound contains an acetal/aminal-like group ( X-CH(R)-Y where X, Y are N, S, or O) that may be acid/base labile, releasing an aldehyde.

>  <s_lp_Force_Field>  (167) 
OPLS3e

>  <r_lp_Energy>  (167) 
52.067

>  <b_lp_Chiralities_Consistent>  (167) 
1

>  <s_lp_Variant>  (167) 
45:0-1

>  <s_i_glide_gridfile>  (167) 
pfpi4k_grid

>  <i_i_glide_lignum>  (167) 
25

>  <i_i_glide_rotatable_bonds>  (167) 
2

>  <r_i_docking_score>  (167) 
-2.66572

>  <r_i_glide_ligand_efficiency>  (167) 
-0.0952043

>  <r_i_glide_ligand_efficiency_sa>  (167) 
-0.289096

>  <r_i_glide_ligand_efficiency_ln>  (167) 
-0.615326

>  <r_i_glide_gscore>  (167) 
-2.66572

>  <r_i_glide_lipo>  (167) 
-0.223044

>  <r_i_glide_hbond>  (167) 
0

>  <r_i_glide_metal>  (167) 
-0

>  <r_i_glide_rewards>  (167) 
-0.88571

>  <r_i_glide_evdw>  (167) 
-22.2973

>  <r_i_glide_ecoul>  (167) 
-2.58993

>  <r_i_glide_erotb>  (167) 
0

>  <r_i_glide_esite>  (167) 
-0.053613

>  <r_i_glide_emodel>  (167) 
-28.9048

>  <r_i_glide_energy>  (167) 
-24.8872

>  <r_i_glide_einternal>  (167) 
1.19968

>  <r_i_glide_intrahb_reward>  (167) 
-0

>  <i_i_glide_confnum>  (167) 
2

>  <i_i_glide_posenum>  (167) 
38

>  <r_i_glide_eff_state_penalty>  (167) 
0

>  <ligand_id>  (167) 
45

>  <original_smiles>  (167) 
CC1=NC2(CCC3C4CCC5C(C)(C)C(O)CCC5(C)C4C=CC32C)C(O)O1

>  <smiles>  (167) 
[H]OC1([H])OC(C([H])([H])[H])=NC12C([H])([H])C([H])([H])C1([H])C3([H])C([H])([H])C([H])([H])C4([H])C(C([H])([H])[H])(C([H])([H])[H])C([H])(O[H])C([H])([H])C([H])([H])C4(C([H])([H])[H])C3([H])C([H])=C([H])C12C([H])([H])[H]

$$$$
46:0:0
     RDKit          3D

 30 32  0  0  1  0  0  0  0  0999 V2000
    2.6477    7.2518    6.6823 O   0  0  0  0  0  0  0  0  0  0  0  0
    2.8624    5.9851    6.0962 C   0  0  0  0  0  0  0  0  0  0  0  0
    1.5617    5.4203    5.5028 C   0  0  2  0  0  0  0  0  0  0  0  0
    1.8235    4.1245    4.9602 O   0  0  0  0  0  0  0  0  0  0  0  0
    1.1489    3.9502    3.7396 C   0  0  1  0  0  0  0  0  0  0  0  0
    0.3432    2.6852    3.7583 N   0  0  0  0  0  0  0  0  0  0  0  0
    0.0026    1.9295    2.6898 C   0  0  0  0  0  0  0  0  0  0  0  0
   -0.8163    0.8964    2.9063 N   0  0  0  0  0  0  0  0  0  0  0  0
   -1.0160    0.9841    4.2717 C   0  0  0  0  0  0  0  0  0  0  0  0
   -1.7845    0.2174    5.1765 C   0  0  0  0  0  0  0  0  0  0  0  0
   -1.7990    0.5653    6.4842 N   0  0  0  0  0  0  0  0  0  0  0  0
   -1.1011    1.6433    6.8667 C   0  0  0  0  0  0  0  0  0  0  0  0
   -0.3375    2.4579    6.1376 N   0  0  0  0  0  0  0  0  0  0  0  0
   -0.3069    2.0842    4.8256 C   0  0  0  0  0  0  0  0  0  0  0  0
    0.2447    5.1697    3.5428 C   0  0  1  0  0  0  0  0  0  0  0  0
   -1.0683    4.9467    4.0403 O   0  0  0  0  0  0  0  0  0  0  0  0
    1.0344    6.2135    4.3038 C   0  0  1  0  0  0  0  0  0  0  0  0
    0.2830    7.3695    4.6261 O   0  0  0  0  0  0  0  0  0  0  0  0
    2.2502    7.8121    6.0295 H   0  0  0  0  0  0  0  0  0  0  0  0
    3.6263    6.0773    5.3232 H   0  0  0  0  0  0  0  0  0  0  0  0
    3.2555    5.3116    6.8574 H   0  0  0  0  0  0  0  0  0  0  0  0
    0.7866    5.3181    6.2620 H   0  0  0  0  0  0  0  0  0  0  0  0
    1.8822    3.8149    2.9544 H   0  0  0  0  0  0  0  0  0  0  0  0
    0.3329    2.1706    1.6850 H   0  0  0  0  0  0  0  0  0  0  0  0
   -2.3755   -0.6311    4.8517 H   0  0  0  0  0  0  0  0  0  0  0  0
   -1.1541    1.8921    7.9135 H   0  0  0  0  0  0  0  0  0  0  0  0
    0.1801    5.4351    2.4947 H   0  0  0  0  0  0  0  0  0  0  0  0
   -1.3567    4.1050    3.7030 H   0  0  0  0  0  0  0  0  0  0  0  0
    1.8744    6.5289    3.6918 H   0  0  0  0  0  0  0  0  0  0  0  0
    0.2064    7.8851    3.8183 H   0  0  0  0  0  0  0  0  0  0  0  0
  1  2  1  0
  1 19  1  0
  2  3  1  0
  2 20  1  0
  2 21  1  0
  3 17  1  0
  3  4  1  0
  3 22  1  1
  4  5  1  0
  5  6  1  0
  5 15  1  0
  5 23  1  6
  6 14  1  0
  6  7  1  0
  7  8  2  0
  7 24  1  0
  8  9  1  0
  9 14  2  0
  9 10  1  0
 10 11  2  0
 10 25  1  0
 11 12  1  0
 12 13  2  0
 12 26  1  0
 13 14  1  0
 15 16  1  0
 15 17  1  0
 15 27  1  6
 16 28  1  0
 17 18  1  0
 17 29  1  6
 18 30  1  0
M  END
>  <i_m_ct_stereo_status>  (168) 
1

>  <s_m_source_file>  (168) 
/var/tmp/pbs.5076255.sched01/tmpb5cfx69f/43pm4c6kpw.sdf

>  <i_m_source_file_index>  (168) 
26

>  <i_lp_mmshare_version>  (168) 
48012

>  <i_f3d_flags>  (168) 
0

>  <s_epik_input>  (168) 
W09IXVtDSDJdW0NAQEhdMU9bQ0BIXShbQ0BASF0oW09IXSlbQ0BIXTFbT0hdKW4oW2NIXW4yKWMoYzIzKW5bY0hdbltjSF0z

>  <s_epik_cmdline>  (168) 
J2VwaWtfcHl0aG9uJywgJy1waHQnLCAnMi4wJywgJy1waCcsICc3LjAnLCAnLXRuJywgJzgnLCAnLW1hJywgJzIwMCcsICctaW1hZScsICc8aW5maWxlLm1hZT4nLCAnLW9tYWUnLCAnPG91dGZpbGUubWFlPic=

>  <r_lp_tautomer_probability>  (168) 
1

>  <r_epik_Ionization_Penalty>  (168) 
3.0332e-05

>  <r_epik_Ionization_Penalty_Charging>  (168) 
0

>  <r_epik_Ionization_Penalty_Neutral>  (168) 
3.0332e-05

>  <r_epik_State_Penalty>  (168) 
-0

>  <r_epik_Charging_Adjusted_Penalty>  (168) 
0

>  <i_epik_Tot_Q>  (168) 
0

>  <i_epik_Tot_abs_Q>  (168) 
0

>  <s_epik_Chemistry_Notes>  (168) 
This compound contains an acetal/aminal-like group ( X-CH(R)-Y where X, Y are N, S, or O) that may be acid/base labile, releasing an aldehyde.

>  <s_lp_Force_Field>  (168) 
OPLS3e

>  <r_lp_Energy>  (168) 
17.7488

>  <b_lp_Chiralities_Consistent>  (168) 
1

>  <s_lp_Variant>  (168) 
46:0-1

>  <s_i_glide_gridfile>  (168) 
pfpi4k_grid

>  <i_i_glide_lignum>  (168) 
26

>  <i_i_glide_rotatable_bonds>  (168) 
5

>  <r_i_docking_score>  (168) 
-4.45895

>  <r_i_glide_ligand_efficiency>  (168) 
-0.247719

>  <r_i_glide_ligand_efficiency_sa>  (168) 
-0.649208

>  <r_i_glide_ligand_efficiency_ln>  (168) 
-1.14615

>  <r_i_glide_gscore>  (168) 
-4.45895

>  <r_i_glide_lipo>  (168) 
0

>  <r_i_glide_hbond>  (168) 
-0.16

>  <r_i_glide_metal>  (168) 
-0

>  <r_i_glide_rewards>  (168) 
-1.68936

>  <r_i_glide_evdw>  (168) 
-12.1822

>  <r_i_glide_ecoul>  (168) 
-14.3872

>  <r_i_glide_erotb>  (168) 
0.386083

>  <r_i_glide_esite>  (168) 
-0.228474

>  <r_i_glide_emodel>  (168) 
-36.2641

>  <r_i_glide_energy>  (168) 
-26.5694

>  <r_i_glide_einternal>  (168) 
1.30475

>  <r_i_glide_intrahb_reward>  (168) 
-0

>  <i_i_glide_confnum>  (168) 
1

>  <i_i_glide_posenum>  (168) 
10

>  <r_i_glide_eff_state_penalty>  (168) 
0

>  <ligand_id>  (168) 
46

>  <original_smiles>  (168) 
OCC1OC(n2cnc3cncnc32)C(O)C1O

>  <smiles>  (168) 
[H]OC([H])([H])C1([H])OC([H])(n2c([H])nc3c([H])nc([H])nc32)C([H])(O[H])C1([H])O[H]

$$$$
46:0:1
     RDKit          3D

 30 32  0  0  1  0  0  0  0  0999 V2000
    0.2147    7.2354    4.8845 O   0  0  0  0  0  0  0  0  0  0  0  0
    0.7876    5.9768    5.2106 C   0  0  0  0  0  0  0  0  0  0  0  0
   -0.1564    4.7977    4.9057 C   0  0  2  0  0  0  0  0  0  0  0  0
    0.4291    3.5728    5.3490 O   0  0  0  0  0  0  0  0  0  0  0  0
    0.2303    2.5553    4.4028 C   0  0  1  0  0  0  0  0  0  0  0  0
   -0.3358    1.3572    5.0904 N   0  0  0  0  0  0  0  0  0  0  0  0
   -1.2612    1.3326    6.0601 C   0  0  0  0  0  0  0  0  0  0  0  0
   -1.6799    0.1431    6.4747 N   0  0  0  0  0  0  0  0  0  0  0  0
   -0.8938   -0.7041    5.7194 C   0  0  0  0  0  0  0  0  0  0  0  0
   -0.7709   -2.1119    5.6738 C   0  0  0  0  0  0  0  0  0  0  0  0
    0.1102   -2.6553    4.8029 N   0  0  0  0  0  0  0  0  0  0  0  0
    0.8218   -1.8564    4.0001 C   0  0  0  0  0  0  0  0  0  0  0  0
    0.8189   -0.5191    3.9357 N   0  0  0  0  0  0  0  0  0  0  0  0
   -0.0556    0.0271    4.8322 C   0  0  0  0  0  0  0  0  0  0  0  0
   -0.7249    3.0973    3.3330 C   0  0  1  0  0  0  0  0  0  0  0  0
   -2.1106    2.8682    3.5995 O   0  0  0  0  0  0  0  0  0  0  0  0
   -0.3711    4.5671    3.4178 C   0  0  1  0  0  0  0  0  0  0  0  0
   -1.3878    5.3791    2.8761 O   0  0  0  0  0  0  0  0  0  0  0  0
    0.2589    7.3901    3.9456 H   0  0  0  0  0  0  0  0  0  0  0  0
    1.7310    5.8664    4.6734 H   0  0  0  0  0  0  0  0  0  0  0  0
    1.0242    5.9762    6.2735 H   0  0  0  0  0  0  0  0  0  0  0  0
   -1.1192    4.9077    5.4119 H   0  0  0  0  0  0  0  0  0  0  0  0
    1.2014    2.2529    4.0143 H   0  0  0  0  0  0  0  0  0  0  0  0
   -1.6795    2.2497    6.4468 H   0  0  0  0  0  0  0  0  0  0  0  0
   -1.3345   -2.7733    6.3128 H   0  0  0  0  0  0  0  0  0  0  0  0
    1.4858   -2.3687    3.3243 H   0  0  0  0  0  0  0  0  0  0  0  0
   -0.4836    2.6578    2.3696 H   0  0  0  0  0  0  0  0  0  0  0  0
   -2.3387    1.9800    3.3642 H   0  0  0  0  0  0  0  0  0  0  0  0
    0.5639    4.7497    2.8874 H   0  0  0  0  0  0  0  0  0  0  0  0
   -1.2160    5.3458    1.9414 H   0  0  0  0  0  0  0  0  0  0  0  0
  1  2  1  0
  1 19  1  0
  2  3  1  0
  2 20  1  0
  2 21  1  0
  3 17  1  0
  3  4  1  0
  3 22  1  1
  4  5  1  0
  5  6  1  0
  5 15  1  0
  5 23  1  6
  6 14  1  0
  6  7  1  0
  7  8  2  0
  7 24  1  0
  8  9  1  0
  9 14  2  0
  9 10  1  0
 10 11  2  0
 10 25  1  0
 11 12  1  0
 12 13  2  0
 12 26  1  0
 13 14  1  0
 15 16  1  0
 15 17  1  0
 15 27  1  6
 16 28  1  0
 17 18  1  0
 17 29  1  6
 18 30  1  0
M  END
>  <i_m_ct_stereo_status>  (169) 
1

>  <s_m_source_file>  (169) 
/var/tmp/pbs.5076255.sched01/tmpb5cfx69f/43pm4c6kpw.sdf

>  <i_m_source_file_index>  (169) 
26

>  <i_lp_mmshare_version>  (169) 
48012

>  <i_f3d_flags>  (169) 
0

>  <s_epik_input>  (169) 
W09IXVtDSDJdW0NAQEhdMU9bQ0BIXShbQ0BASF0oW09IXSlbQ0BIXTFbT0hdKW4oW2NIXW4yKWMoYzIzKW5bY0hdbltjSF0z

>  <s_epik_cmdline>  (169) 
J2VwaWtfcHl0aG9uJywgJy1waHQnLCAnMi4wJywgJy1waCcsICc3LjAnLCAnLXRuJywgJzgnLCAnLW1hJywgJzIwMCcsICctaW1hZScsICc8aW5maWxlLm1hZT4nLCAnLW9tYWUnLCAnPG91dGZpbGUubWFlPic=

>  <r_lp_tautomer_probability>  (169) 
1

>  <r_epik_Ionization_Penalty>  (169) 
3.0332e-05

>  <r_epik_Ionization_Penalty_Charging>  (169) 
0

>  <r_epik_Ionization_Penalty_Neutral>  (169) 
3.0332e-05

>  <r_epik_State_Penalty>  (169) 
-0

>  <r_epik_Charging_Adjusted_Penalty>  (169) 
0

>  <i_epik_Tot_Q>  (169) 
0

>  <i_epik_Tot_abs_Q>  (169) 
0

>  <s_epik_Chemistry_Notes>  (169) 
This compound contains an acetal/aminal-like group ( X-CH(R)-Y where X, Y are N, S, or O) that may be acid/base labile, releasing an aldehyde.

>  <s_lp_Force_Field>  (169) 
OPLS3e

>  <r_lp_Energy>  (169) 
17.7488

>  <b_lp_Chiralities_Consistent>  (169) 
1

>  <s_lp_Variant>  (169) 
46:0-1

>  <s_i_glide_gridfile>  (169) 
pfpi4k_grid

>  <i_i_glide_lignum>  (169) 
26

>  <i_i_glide_rotatable_bonds>  (169) 
5

>  <r_i_docking_score>  (169) 
-4.31539

>  <r_i_glide_ligand_efficiency>  (169) 
-0.239744

>  <r_i_glide_ligand_efficiency_sa>  (169) 
-0.628307

>  <r_i_glide_ligand_efficiency_ln>  (169) 
-1.10925

>  <r_i_glide_gscore>  (169) 
-4.31539

>  <r_i_glide_lipo>  (169) 
0

>  <r_i_glide_hbond>  (169) 
-0.154511

>  <r_i_glide_metal>  (169) 
-0

>  <r_i_glide_rewards>  (169) 
-1.70228

>  <r_i_glide_evdw>  (169) 
-12.4746

>  <r_i_glide_ecoul>  (169) 
-15.4288

>  <r_i_glide_erotb>  (169) 
0.551547

>  <r_i_glide_esite>  (169) 
-0.0721049

>  <r_i_glide_emodel>  (169) 
-36.8334

>  <r_i_glide_energy>  (169) 
-27.9033

>  <r_i_glide_einternal>  (169) 
2.06697

>  <r_i_glide_intrahb_reward>  (169) 
-0

>  <i_i_glide_confnum>  (169) 
1

>  <i_i_glide_posenum>  (169) 
34

>  <r_i_glide_eff_state_penalty>  (169) 
0

>  <ligand_id>  (169) 
46

>  <original_smiles>  (169) 
OCC1OC(n2cnc3cncnc32)C(O)C1O

>  <smiles>  (169) 
[H]OC([H])([H])C1([H])OC([H])(n2c([H])nc3c([H])nc([H])nc32)C([H])(O[H])C1([H])O[H]

$$$$
46:0:2
     RDKit          3D

 30 32  0  0  1  0  0  0  0  0999 V2000
    3.6970   -0.7391   -4.7459 O   0  0  0  0  0  0  0  0  0  0  0  0
    3.9423   -0.3855   -3.3976 C   0  0  0  0  0  0  0  0  0  0  0  0
    3.4536   -1.4320   -2.3958 C   0  0  2  0  0  0  0  0  0  0  0  0
    3.9570   -1.0710   -1.1024 O   0  0  0  0  0  0  0  0  0  0  0  0
    4.3636   -2.2111   -0.3981 C   0  0  1  0  0  0  0  0  0  0  0  0
    3.7112   -2.2488    0.9528 N   0  0  0  0  0  0  0  0  0  0  0  0
    2.6796   -1.5187    1.4190 C   0  0  0  0  0  0  0  0  0  0  0  0
    2.2371   -1.7777    2.6526 N   0  0  0  0  0  0  0  0  0  0  0  0
    3.1025   -2.7807    3.0341 C   0  0  0  0  0  0  0  0  0  0  0  0
    3.2278   -3.5216    4.2321 C   0  0  0  0  0  0  0  0  0  0  0  0
    4.1869   -4.4676    4.3121 N   0  0  0  0  0  0  0  0  0  0  0  0
    4.9784   -4.6809    3.2514 C   0  0  0  0  0  0  0  0  0  0  0  0
    4.9879   -4.0598    2.0640 N   0  0  0  0  0  0  0  0  0  0  0  0
    4.0217   -3.1017    1.9955 C   0  0  0  0  0  0  0  0  0  0  0  0
    3.9559   -3.4208   -1.2500 C   0  0  1  0  0  0  0  0  0  0  0  0
    2.6423   -3.8772   -0.9583 O   0  0  0  0  0  0  0  0  0  0  0  0
    4.0326   -2.8202   -2.6377 C   0  0  1  0  0  0  0  0  0  0  0  0
    3.3024   -3.5399   -3.6116 O   0  0  0  0  0  0  0  0  0  0  0  0
    2.7716   -0.9423   -4.8383 H   0  0  0  0  0  0  0  0  0  0  0  0
    5.0038   -0.2617   -3.2378 H   0  0  0  0  0  0  0  0  0  0  0  0
    3.4559    0.5698   -3.2114 H   0  0  0  0  0  0  0  0  0  0  0  0
    2.3624   -1.4819   -2.3680 H   0  0  0  0  0  0  0  0  0  0  0  0
    5.4371   -2.1477   -0.2030 H   0  0  0  0  0  0  0  0  0  0  0  0
    2.2158   -0.7640    0.8005 H   0  0  0  0  0  0  0  0  0  0  0  0
    2.5931   -3.3500    5.0934 H   0  0  0  0  0  0  0  0  0  0  0  0
    5.7209   -5.4535    3.3956 H   0  0  0  0  0  0  0  0  0  0  0  0
    4.6729   -4.2254   -1.1023 H   0  0  0  0  0  0  0  0  0  0  0  0
    2.4418   -4.5978   -1.5443 H   0  0  0  0  0  0  0  0  0  0  0  0
    5.0774   -2.7472   -2.9389 H   0  0  0  0  0  0  0  0  0  0  0  0
    3.1724   -4.4281   -3.2946 H   0  0  0  0  0  0  0  0  0  0  0  0
  1  2  1  0
  1 19  1  0
  2  3  1  0
  2 20  1  0
  2 21  1  0
  3 17  1  0
  3  4  1  0
  3 22  1  1
  4  5  1  0
  5  6  1  0
  5 15  1  0
  5 23  1  1
  6 14  1  0
  6  7  1  0
  7  8  2  0
  7 24  1  0
  8  9  1  0
  9 14  2  0
  9 10  1  0
 10 11  2  0
 10 25  1  0
 11 12  1  0
 12 13  2  0
 12 26  1  0
 13 14  1  0
 15 16  1  0
 15 17  1  0
 15 27  1  6
 16 28  1  0
 17 18  1  0
 17 29  1  6
 18 30  1  0
M  END
>  <i_m_ct_stereo_status>  (170) 
1

>  <s_m_source_file>  (170) 
/var/tmp/pbs.5076255.sched01/tmpb5cfx69f/43pm4c6kpw.sdf

>  <i_m_source_file_index>  (170) 
26

>  <i_lp_mmshare_version>  (170) 
48012

>  <i_f3d_flags>  (170) 
0

>  <s_epik_input>  (170) 
W09IXVtDSDJdW0NAQEhdMU9bQ0BIXShbQ0BASF0oW09IXSlbQ0BIXTFbT0hdKW4oW2NIXW4yKWMoYzIzKW5bY0hdbltjSF0z

>  <s_epik_cmdline>  (170) 
J2VwaWtfcHl0aG9uJywgJy1waHQnLCAnMi4wJywgJy1waCcsICc3LjAnLCAnLXRuJywgJzgnLCAnLW1hJywgJzIwMCcsICctaW1hZScsICc8aW5maWxlLm1hZT4nLCAnLW9tYWUnLCAnPG91dGZpbGUubWFlPic=

>  <r_lp_tautomer_probability>  (170) 
1

>  <r_epik_Ionization_Penalty>  (170) 
3.0332e-05

>  <r_epik_Ionization_Penalty_Charging>  (170) 
0

>  <r_epik_Ionization_Penalty_Neutral>  (170) 
3.0332e-05

>  <r_epik_State_Penalty>  (170) 
-0

>  <r_epik_Charging_Adjusted_Penalty>  (170) 
0

>  <i_epik_Tot_Q>  (170) 
0

>  <i_epik_Tot_abs_Q>  (170) 
0

>  <s_epik_Chemistry_Notes>  (170) 
This compound contains an acetal/aminal-like group ( X-CH(R)-Y where X, Y are N, S, or O) that may be acid/base labile, releasing an aldehyde.

>  <s_lp_Force_Field>  (170) 
OPLS3e

>  <r_lp_Energy>  (170) 
17.7488

>  <b_lp_Chiralities_Consistent>  (170) 
1

>  <s_lp_Variant>  (170) 
46:0-1

>  <s_i_glide_gridfile>  (170) 
pfpi4k_grid

>  <i_i_glide_lignum>  (170) 
26

>  <i_i_glide_rotatable_bonds>  (170) 
5

>  <r_i_docking_score>  (170) 
-3.90266

>  <r_i_glide_ligand_efficiency>  (170) 
-0.216814

>  <r_i_glide_ligand_efficiency_sa>  (170) 
-0.568214

>  <r_i_glide_ligand_efficiency_ln>  (170) 
-1.00316

>  <r_i_glide_gscore>  (170) 
-3.90266

>  <r_i_glide_lipo>  (170) 
-0.235895

>  <r_i_glide_hbond>  (170) 
0

>  <r_i_glide_metal>  (170) 
-0

>  <r_i_glide_rewards>  (170) 
-1.70481

>  <r_i_glide_evdw>  (170) 
-17.4633

>  <r_i_glide_ecoul>  (170) 
-10.3227

>  <r_i_glide_erotb>  (170) 
0.551547

>  <r_i_glide_esite>  (170) 
-0.0919327

>  <r_i_glide_emodel>  (170) 
-35.6785

>  <r_i_glide_energy>  (170) 
-27.786

>  <r_i_glide_einternal>  (170) 
2.21313

>  <r_i_glide_intrahb_reward>  (170) 
-0

>  <i_i_glide_confnum>  (170) 
1

>  <i_i_glide_posenum>  (170) 
2

>  <r_i_glide_eff_state_penalty>  (170) 
0

>  <ligand_id>  (170) 
46

>  <original_smiles>  (170) 
OCC1OC(n2cnc3cncnc32)C(O)C1O

>  <smiles>  (170) 
[H]OC([H])([H])C1([H])OC([H])(n2c([H])nc3c([H])nc([H])nc32)C([H])(O[H])C1([H])O[H]

$$$$
47:0:0
     RDKit          3D

 90 97  0  0  1  0  0  0  0  0999 V2000
   -0.6777   -1.6933    5.2863 C   0  0  0  0  0  0  0  0  0  0  0  0
    0.1833   -1.1891    4.1148 C   0  0  2  0  0  0  0  0  0  0  0  0
    1.2466   -2.2384    3.7120 C   0  0  0  0  0  0  0  0  0  0  0  0
    2.1884   -1.7788    2.7333 O   0  0  0  0  0  0  0  0  0  0  0  0
    2.8561   -0.5574    2.9509 C   0  0  2  0  0  0  0  0  0  0  0  0
    3.5447   -0.2409    1.7822 O   0  0  0  0  0  0  0  0  0  0  0  0
    4.9025   -0.6647    1.8610 C   0  0  2  0  0  0  0  0  0  0  0  0
    5.3690   -1.4377    0.6161 C   0  0  0  0  0  0  0  0  0  0  0  0
    5.2072   -2.9432    0.7245 C   0  0  0  0  0  0  0  0  0  0  0  0
    4.6647   -3.6674   -0.2686 C   0  0  0  0  0  0  0  0  0  0  0  0
    4.5637   -5.1741   -0.2817 C   0  0  0  0  0  0  0  0  0  0  0  0
    4.7911   -5.8459    1.0868 C   0  0  2  0  0  0  0  0  0  0  0  0
    3.4711   -6.3188    1.7754 C   0  0  2  0  0  0  0  0  0  0  0  0
    2.3346   -5.2873    1.8911 C   0  0  0  0  0  0  0  0  0  0  0  0
    1.0601   -5.9390    2.4396 C   0  0  0  0  0  0  0  0  0  0  0  0
    1.2423   -6.6199    3.8145 C   0  0  1  0  0  0  0  0  0  0  0  0
    1.5211   -5.5755    4.7267 O   0  0  0  0  0  0  0  0  0  0  0  0
   -0.0874   -7.2454    4.3212 C   0  0  0  0  0  0  0  0  0  0  0  0
   -0.5136   -8.5382    3.5941 C   0  0  1  0  0  0  0  0  0  0  0  0
   -1.0766   -8.2373    2.3314 O   0  0  0  0  0  0  0  0  0  0  0  0
    0.6474   -9.5392    3.4376 C   0  0  0  0  0  0  0  0  0  0  0  0
    1.9524   -8.8813    2.9382 C   0  0  0  0  0  0  0  0  0  0  0  0
    2.4246   -7.6518    3.7819 C   0  0  2  0  0  0  0  0  0  0  0  0
    2.7679   -8.1731    5.2064 C   0  0  0  0  0  0  0  0  0  0  0  0
    3.7286   -7.0395    3.1248 C   0  0  2  0  0  0  0  0  0  0  0  0
    4.6057   -6.1229    4.0164 C   0  0  0  0  0  0  0  0  0  0  0  0
    5.9593   -5.8114    3.3508 C   0  0  0  0  0  0  0  0  0  0  0  0
    5.8852   -5.1328    1.9540 C   0  0  1  0  0  0  0  0  0  0  0  0
    7.2569   -5.4429    1.2828 C   0  0  0  0  0  0  0  0  0  0  0  0
    5.7679   -3.5531    1.9997 C   0  0  2  0  0  0  0  0  0  0  0  0
    5.0605   -2.9031    3.2086 C   0  0  0  0  0  0  0  0  0  0  0  0
    5.0907   -1.3562    3.2193 C   0  0  2  0  0  0  0  0  0  0  0  0
    3.9538   -0.7514    4.0460 C   0  0  1  0  0  0  0  0  0  0  0  0
    4.3844    0.5653    4.7317 C   0  0  0  0  0  0  0  0  0  0  0  0
    1.7211    0.4740    3.1477 C   0  0  2  0  0  0  0  0  0  0  0  0
    2.0799    1.8221    3.3708 O   0  0  0  0  0  0  0  0  0  0  0  0
    1.1213    2.4427    4.0833 C   0  0  0  0  0  0  0  0  0  0  0  0
    1.0643    3.6358    4.3757 O   0  0  0  0  0  0  0  0  0  0  0  0
    0.0911    1.4113    4.5345 C   0  0  0  0  0  0  0  0  0  0  0  0
    0.9027    0.1304    4.3882 C   0  0  1  0  0  0  0  0  0  0  0  0
   -0.0765   -1.8852    6.1742 H   0  0  0  0  0  0  0  0  0  0  0  0
   -1.1639   -2.6315    5.0185 H   0  0  0  0  0  0  0  0  0  0  0  0
   -1.4587   -0.9790    5.5454 H   0  0  0  0  0  0  0  0  0  0  0  0
   -0.4856   -1.0196    3.2783 H   0  0  0  0  0  0  0  0  0  0  0  0
    1.7727   -2.6074    4.5898 H   0  0  0  0  0  0  0  0  0  0  0  0
    0.7362   -3.0968    3.2846 H   0  0  0  0  0  0  0  0  0  0  0  0
    5.4785    0.2577    1.8828 H   0  0  0  0  0  0  0  0  0  0  0  0
    4.8664   -1.0560   -0.2728 H   0  0  0  0  0  0  0  0  0  0  0  0
    6.4336   -1.2534    0.4762 H   0  0  0  0  0  0  0  0  0  0  0  0
    4.3087   -3.1724   -1.1603 H   0  0  0  0  0  0  0  0  0  0  0  0
    3.5924   -5.4457   -0.6851 H   0  0  0  0  0  0  0  0  0  0  0  0
    5.3003   -5.5315   -0.9999 H   0  0  0  0  0  0  0  0  0  0  0  0
    5.2319   -6.8096    0.8257 H   0  0  0  0  0  0  0  0  0  0  0  0
    3.0828   -7.0693    1.0889 H   0  0  0  0  0  0  0  0  0  0  0  0
    2.6066   -4.4651    2.5326 H   0  0  0  0  0  0  0  0  0  0  0  0
    2.1146   -4.8460    0.9199 H   0  0  0  0  0  0  0  0  0  0  0  0
    0.2730   -5.1977    2.5184 H   0  0  0  0  0  0  0  0  0  0  0  0
    0.7199   -6.6547    1.6951 H   0  0  0  0  0  0  0  0  0  0  0  0
    2.3498   -5.1986    4.4802 H   0  0  0  0  0  0  0  0  0  0  0  0
    0.0204   -7.4809    5.3803 H   0  0  0  0  0  0  0  0  0  0  0  0
   -0.8934   -6.5104    4.2797 H   0  0  0  0  0  0  0  0  0  0  0  0
   -1.3031   -9.0250    4.1695 H   0  0  0  0  0  0  0  0  0  0  0  0
   -1.1347   -9.0440    1.8385 H   0  0  0  0  0  0  0  0  0  0  0  0
    0.8233  -10.0335    4.3942 H   0  0  0  0  0  0  0  0  0  0  0  0
    0.3554  -10.3437    2.7600 H   0  0  0  0  0  0  0  0  0  0  0  0
    2.7393   -9.6368    2.9003 H   0  0  0  0  0  0  0  0  0  0  0  0
    1.7812   -8.5978    1.9011 H   0  0  0  0  0  0  0  0  0  0  0  0
    3.6085   -8.8683    5.1721 H   0  0  0  0  0  0  0  0  0  0  0  0
    1.9415   -8.6988    5.6793 H   0  0  0  0  0  0  0  0  0  0  0  0
    3.0291   -7.3709    5.8959 H   0  0  0  0  0  0  0  0  0  0  0  0
    4.3684   -7.8947    2.9023 H   0  0  0  0  0  0  0  0  0  0  0  0
    4.0888   -5.2049    4.2776 H   0  0  0  0  0  0  0  0  0  0  0  0
    4.8397   -6.6058    4.9632 H   0  0  0  0  0  0  0  0  0  0  0  0
    6.5773   -5.2186    4.0242 H   0  0  0  0  0  0  0  0  0  0  0  0
    6.4829   -6.7657    3.2601 H   0  0  0  0  0  0  0  0  0  0  0  0
    8.0913   -5.0587    1.8718 H   0  0  0  0  0  0  0  0  0  0  0  0
    7.3345   -5.0035    0.2872 H   0  0  0  0  0  0  0  0  0  0  0  0
    7.4304   -6.5163    1.1690 H   0  0  0  0  0  0  0  0  0  0  0  0
    6.7876   -3.1765    2.0472 H   0  0  0  0  0  0  0  0  0  0  0  0
    4.0372   -3.2270    3.2440 H   0  0  0  0  0  0  0  0  0  0  0  0
    5.5084   -3.2471    4.1359 H   0  0  0  0  0  0  0  0  0  0  0  0
    6.0554   -1.0519    3.6183 H   0  0  0  0  0  0  0  0  0  0  0  0
    3.6183   -1.4347    4.8222 H   0  0  0  0  0  0  0  0  0  0  0  0
    4.6633    1.3325    4.0076 H   0  0  0  0  0  0  0  0  0  0  0  0
    5.2418    0.4001    5.3887 H   0  0  0  0  0  0  0  0  0  0  0  0
    3.5912    0.9722    5.3587 H   0  0  0  0  0  0  0  0  0  0  0  0
    1.0875    0.4461    2.2571 H   0  0  0  0  0  0  0  0  0  0  0  0
   -0.2487    1.5931    5.5526 H   0  0  0  0  0  0  0  0  0  0  0  0
   -0.7562    1.4327    3.8467 H   0  0  0  0  0  0  0  0  0  0  0  0
    1.5392    0.0113    5.2657 H   0  0  0  0  0  0  0  0  0  0  0  0
  1  2  1  0
  1 41  1  0
  1 42  1  0
  1 43  1  0
  2 40  1  0
  2  3  1  0
  2 44  1  6
  3  4  1  0
  3 45  1  0
  3 46  1  0
  5  4  1  6
  5 33  1  0
  5  6  1  0
  5 35  1  0
  6  7  1  0
  7 32  1  0
  7  8  1  0
  7 47  1  1
  8  9  1  0
  8 48  1  0
  8 49  1  0
  9 30  1  0
  9 10  2  0
 10 11  1  0
 10 50  1  0
 11 12  1  0
 11 51  1  0
 11 52  1  0
 12 28  1  0
 12 13  1  0
 12 53  1  6
 13 25  1  0
 13 14  1  0
 13 54  1  6
 14 15  1  0
 14 55  1  0
 14 56  1  0
 15 16  1  0
 15 57  1  0
 15 58  1  0
 16 23  1  0
 16 17  1  1
 16 18  1  0
 17 59  1  0
 18 19  1  0
 18 60  1  0
 18 61  1  0
 19 20  1  0
 19 21  1  0
 19 62  1  1
 20 63  1  0
 21 22  1  0
 21 64  1  0
 21 65  1  0
 22 23  1  0
 22 66  1  0
 22 67  1  0
 23 24  1  1
 23 25  1  0
 24 68  1  0
 24 69  1  0
 24 70  1  0
 25 26  1  0
 25 71  1  6
 26 27  1  0
 26 72  1  0
 26 73  1  0
 27 28  1  0
 27 74  1  0
 27 75  1  0
 28 29  1  6
 28 30  1  0
 29 76  1  0
 29 77  1  0
 29 78  1  0
 30 31  1  0
 30 79  1  1
 31 32  1  0
 31 80  1  0
 31 81  1  0
 32 33  1  0
 32 82  1  1
 33 34  1  0
 33 83  1  1
 34 84  1  0
 34 85  1  0
 34 86  1  0
 35 40  1  0
 35 36  1  0
 35 87  1  6
 36 37  1  0
 37 38  2  0
 37 39  1  0
 39 40  1  0
 39 88  1  0
 39 89  1  0
 40 90  1  1
M  END
>  <i_m_ct_stereo_status>  (171) 
1

>  <s_m_source_file>  (171) 
/var/tmp/pbs.5076255.sched01/tmpb5cfx69f/43pm4c6kpw.sdf

>  <i_m_source_file_index>  (171) 
27

>  <i_lp_mmshare_version>  (171) 
48012

>  <i_f3d_flags>  (171) 
0

>  <s_epik_input>  (171) 
TzFbQ0gyXVtDQEBIXShbQ0gzXSlbQ0BIXShbQ0gyXUMoTzIpPU8pW0NAQEhdMltDQF0xM09bQ0BIXTRbQ0BASF0oW0NASF0zW0NIM10pW0NIMl1bQ0BASF01QyhbQ0gyXTQpPVtDSF1bQ0gyXVtDQEBIXTZbQ0BIXTdbQ0BASF0oW0NIMl1bQ0gyXVtDQF01NltDSDNdKVtDQEBdOChbQ0gzXSlbQ0BAXShbT0hdKShbQ0gyXVtDSDJdNylbQ0gyXVtDQEBIXShbT0hdKVtDSDJdW0NIMl04

>  <s_epik_cmdline>  (171) 
J2VwaWtfcHl0aG9uJywgJy1waHQnLCAnMi4wJywgJy1waCcsICc3LjAnLCAnLXRuJywgJzgnLCAnLW1hJywgJzIwMCcsICctaW1hZScsICc8aW5maWxlLm1hZT4nLCAnLW9tYWUnLCAnPG91dGZpbGUubWFlPic=

>  <r_lp_tautomer_probability>  (171) 
1

>  <r_epik_Ionization_Penalty>  (171) 
4.91443e-06

>  <r_epik_Ionization_Penalty_Charging>  (171) 
0

>  <r_epik_Ionization_Penalty_Neutral>  (171) 
4.91443e-06

>  <r_epik_State_Penalty>  (171) 
-0

>  <r_epik_Charging_Adjusted_Penalty>  (171) 
0

>  <i_epik_Tot_Q>  (171) 
0

>  <i_epik_Tot_abs_Q>  (171) 
0

>  <s_epik_Chemistry_Notes>  (171) 
This compound has an ester and may undergo hydrolysis at high or low pH.

>  <s_lp_Force_Field>  (171) 
OPLS3e

>  <r_lp_Energy>  (171) 
71.8671

>  <b_lp_Chiralities_Consistent>  (171) 
1

>  <s_lp_Variant>  (171) 
47:0-1

>  <s_i_glide_gridfile>  (171) 
pfpi4k_grid

>  <i_i_glide_lignum>  (171) 
27

>  <i_i_glide_rotatable_bonds>  (171) 
2

>  <r_i_docking_score>  (171) 
-2.87877

>  <r_i_glide_ligand_efficiency>  (171) 
-0.0719692

>  <r_i_glide_ligand_efficiency_sa>  (171) 
-0.246131

>  <r_i_glide_ligand_efficiency_ln>  (171) 
-0.613957

>  <r_i_glide_gscore>  (171) 
-2.87877

>  <r_i_glide_lipo>  (171) 
-0.789286

>  <r_i_glide_hbond>  (171) 
0

>  <r_i_glide_metal>  (171) 
-0

>  <r_i_glide_rewards>  (171) 
0

>  <r_i_glide_evdw>  (171) 
-36.5048

>  <r_i_glide_ecoul>  (171) 
-1.57678

>  <r_i_glide_erotb>  (171) 
0

>  <r_i_glide_esite>  (171) 
-0.0277236

>  <r_i_glide_emodel>  (171) 
-44.4197

>  <r_i_glide_energy>  (171) 
-38.0816

>  <r_i_glide_einternal>  (171) 
0.602533

>  <r_i_glide_intrahb_reward>  (171) 
-0

>  <i_i_glide_confnum>  (171) 
1

>  <i_i_glide_posenum>  (171) 
2

>  <r_i_glide_eff_state_penalty>  (171) 
0

>  <ligand_id>  (171) 
47

>  <original_smiles>  (171) 
CC1COC2(OC3CC4=CCC5C6CCC7(O)CC(O)CCC7(C)C6CCC5(C)C4CC3C2C)C2OC(=O)CC12

>  <smiles>  (171) 
[H]OC1([H])C([H])([H])C([H])([H])C2(C([H])([H])[H])C3([H])C([H])([H])C([H])([H])C4(C([H])([H])[H])C5([H])C(=C([H])C([H])([H])C4([H])C3([H])C([H])([H])C([H])([H])C2(O[H])C1([H])[H])C([H])([H])C1([H])OC2(OC([H])([H])C([H])(C([H])([H])[H])C3([H])C([H])([H])C(=O)OC23[H])C([H])(C([H])([H])[H])C1([H])C5([H])[H]

$$$$
47:0:1
     RDKit          3D

 90 97  0  0  1  0  0  0  0  0999 V2000
    3.8212    0.1212    1.6628 C   0  0  0  0  0  0  0  0  0  0  0  0
    3.2129   -1.1925    1.1469 C   0  0  2  0  0  0  0  0  0  0  0  0
    2.9793   -2.1896    2.3029 C   0  0  0  0  0  0  0  0  0  0  0  0
    2.5683   -3.4973    1.8857 O   0  0  0  0  0  0  0  0  0  0  0  0
    3.3200   -4.1675    0.9035 C   0  0  2  0  0  0  0  0  0  0  0  0
    2.5923   -5.2987    0.5379 O   0  0  0  0  0  0  0  0  0  0  0  0
    3.0588   -6.4493    1.2413 C   0  0  2  0  0  0  0  0  0  0  0  0
    1.9094   -7.2758    1.8501 C   0  0  0  0  0  0  0  0  0  0  0  0
    1.5560   -6.8917    3.2765 C   0  0  0  0  0  0  0  0  0  0  0  0
    0.2794   -6.7072    3.6643 C   0  0  0  0  0  0  0  0  0  0  0  0
   -0.1668   -6.4260    5.0818 C   0  0  0  0  0  0  0  0  0  0  0  0
    0.9715   -5.9957    6.0291 C   0  0  2  0  0  0  0  0  0  0  0  0
    0.9875   -4.4619    6.3220 C   0  0  2  0  0  0  0  0  0  0  0  0
    0.9471   -3.5178    5.1052 C   0  0  0  0  0  0  0  0  0  0  0  0
    0.8054   -2.0564    5.5441 C   0  0  0  0  0  0  0  0  0  0  0  0
    1.9321   -1.5872    6.5016 C   0  0  1  0  0  0  0  0  0  0  0  0
    3.1351   -1.6024    5.7535 O   0  0  0  0  0  0  0  0  0  0  0  0
    1.7405   -0.0994    6.9095 C   0  0  0  0  0  0  0  0  0  0  0  0
    0.6025    0.1609    7.9197 C   0  0  1  0  0  0  0  0  0  0  0  0
   -0.6563    0.1449    7.2728 O   0  0  0  0  0  0  0  0  0  0  0  0
    0.6213   -0.8255    9.1027 C   0  0  0  0  0  0  0  0  0  0  0  0
    0.8176   -2.2936    8.6629 C   0  0  0  0  0  0  0  0  0  0  0  0
    2.0608   -2.5371    7.7466 C   0  0  2  0  0  0  0  0  0  0  0  0
    3.3242   -2.2085    8.5934 C   0  0  0  0  0  0  0  0  0  0  0  0
    2.1027   -4.0616    7.3248 C   0  0  2  0  0  0  0  0  0  0  0  0
    3.4557   -4.6130    6.8095 C   0  0  0  0  0  0  0  0  0  0  0  0
    3.4314   -6.1483    6.6806 C   0  0  0  0  0  0  0  0  0  0  0  0
    2.3301   -6.7309    5.7508 C   0  0  1  0  0  0  0  0  0  0  0  0
    2.1446   -8.2050    6.2216 C   0  0  0  0  0  0  0  0  0  0  0  0
    2.7442   -6.8132    4.2241 C   0  0  2  0  0  0  0  0  0  0  0  0
    3.7423   -5.7709    3.6776 C   0  0  0  0  0  0  0  0  0  0  0  0
    4.1664   -5.9912    2.2059 C   0  0  2  0  0  0  0  0  0  0  0  0
    4.6480   -4.7016    1.5340 C   0  0  1  0  0  0  0  0  0  0  0  0
    5.7559   -4.9812    0.4937 C   0  0  0  0  0  0  0  0  0  0  0  0
    3.3558   -3.1872   -0.2946 C   0  0  2  0  0  0  0  0  0  0  0  0
    4.0442   -3.5901   -1.4590 O   0  0  0  0  0  0  0  0  0  0  0  0
    4.4800   -2.5172   -2.1350 C   0  0  0  0  0  0  0  0  0  0  0  0
    5.0084   -2.5046   -3.2449 O   0  0  0  0  0  0  0  0  0  0  0  0
    4.2459   -1.2709   -1.2882 C   0  0  0  0  0  0  0  0  0  0  0  0
    4.0702   -1.8973    0.0903 C   0  0  1  0  0  0  0  0  0  0  0  0
    4.7861   -0.0407    2.1447 H   0  0  0  0  0  0  0  0  0  0  0  0
    3.1621    0.5866    2.3969 H   0  0  0  0  0  0  0  0  0  0  0  0
    3.9668    0.8422    0.8586 H   0  0  0  0  0  0  0  0  0  0  0  0
    2.2445   -0.9491    0.7127 H   0  0  0  0  0  0  0  0  0  0  0  0
    3.8616   -2.2643    2.9348 H   0  0  0  0  0  0  0  0  0  0  0  0
    2.1842   -1.7992    2.9303 H   0  0  0  0  0  0  0  0  0  0  0  0
    3.5271   -7.0623    0.4716 H   0  0  0  0  0  0  0  0  0  0  0  0
    1.0304   -7.2332    1.2069 H   0  0  0  0  0  0  0  0  0  0  0  0
    2.2134   -8.3220    1.8812 H   0  0  0  0  0  0  0  0  0  0  0  0
   -0.5137   -6.8315    2.9438 H   0  0  0  0  0  0  0  0  0  0  0  0
   -0.9676   -5.6897    5.0759 H   0  0  0  0  0  0  0  0  0  0  0  0
   -0.6129   -7.3501    5.4477 H   0  0  0  0  0  0  0  0  0  0  0  0
    0.6509   -6.3794    6.9989 H   0  0  0  0  0  0  0  0  0  0  0  0
    0.0388   -4.2931    6.8275 H   0  0  0  0  0  0  0  0  0  0  0  0
    1.8407   -3.6091    4.5085 H   0  0  0  0  0  0  0  0  0  0  0  0
    0.1142   -3.7660    4.4487 H   0  0  0  0  0  0  0  0  0  0  0  0
    0.7598   -1.4112    4.6685 H   0  0  0  0  0  0  0  0  0  0  0  0
   -0.1674   -1.9611    6.0207 H   0  0  0  0  0  0  0  0  0  0  0  0
    3.0160   -1.0622    4.9892 H   0  0  0  0  0  0  0  0  0  0  0  0
    2.6657    0.2571    7.3615 H   0  0  0  0  0  0  0  0  0  0  0  0
    1.6066    0.5268    6.0250 H   0  0  0  0  0  0  0  0  0  0  0  0
    0.7196    1.1705    8.3204 H   0  0  0  0  0  0  0  0  0  0  0  0
   -0.6314    0.7934    6.5847 H   0  0  0  0  0  0  0  0  0  0  0  0
    1.4153   -0.5407    9.7940 H   0  0  0  0  0  0  0  0  0  0  0  0
   -0.2976   -0.7260    9.6835 H   0  0  0  0  0  0  0  0  0  0  0  0
    0.8775   -2.9263    9.5502 H   0  0  0  0  0  0  0  0  0  0  0  0
   -0.0951   -2.5964    8.1548 H   0  0  0  0  0  0  0  0  0  0  0  0
    3.4172   -2.8965    9.4346 H   0  0  0  0  0  0  0  0  0  0  0  0
    3.3143   -1.2023    9.0051 H   0  0  0  0  0  0  0  0  0  0  0  0
    4.2441   -2.2709    8.0131 H   0  0  0  0  0  0  0  0  0  0  0  0
    1.9157   -4.6218    8.2412 H   0  0  0  0  0  0  0  0  0  0  0  0
    3.7367   -4.1470    5.8692 H   0  0  0  0  0  0  0  0  0  0  0  0
    4.2639   -4.3822    7.5008 H   0  0  0  0  0  0  0  0  0  0  0  0
    4.4110   -6.5130    6.3746 H   0  0  0  0  0  0  0  0  0  0  0  0
    3.2938   -6.5405    7.6909 H   0  0  0  0  0  0  0  0  0  0  0  0
    3.0728   -8.7743    6.1474 H   0  0  0  0  0  0  0  0  0  0  0  0
    1.3962   -8.7360    5.6305 H   0  0  0  0  0  0  0  0  0  0  0  0
    1.8277   -8.2724    7.2655 H   0  0  0  0  0  0  0  0  0  0  0  0
    3.2602   -7.7664    4.1004 H   0  0  0  0  0  0  0  0  0  0  0  0
    3.3195   -4.7868    3.7707 H   0  0  0  0  0  0  0  0  0  0  0  0
    4.6437   -5.7591    4.2825 H   0  0  0  0  0  0  0  0  0  0  0  0
    4.9562   -6.7429    2.2136 H   0  0  0  0  0  0  0  0  0  0  0  0
    5.0445   -3.9966    2.2601 H   0  0  0  0  0  0  0  0  0  0  0  0
    5.4045   -5.6272   -0.3136 H   0  0  0  0  0  0  0  0  0  0  0  0
    6.6134   -5.4700    0.9629 H   0  0  0  0  0  0  0  0  0  0  0  0
    6.1344   -4.0611    0.0488 H   0  0  0  0  0  0  0  0  0  0  0  0
    2.3238   -2.9688   -0.5807 H   0  0  0  0  0  0  0  0  0  0  0  0
    5.0785   -0.5708   -1.3454 H   0  0  0  0  0  0  0  0  0  0  0  0
    3.3276   -0.7874   -1.6247 H   0  0  0  0  0  0  0  0  0  0  0  0
    5.0565   -2.1046    0.5104 H   0  0  0  0  0  0  0  0  0  0  0  0
  1  2  1  0
  1 41  1  0
  1 42  1  0
  1 43  1  0
  2 40  1  0
  2  3  1  0
  2 44  1  6
  3  4  1  0
  3 45  1  0
  3 46  1  0
  5  4  1  1
  5 33  1  0
  5  6  1  0
  5 35  1  0
  6  7  1  0
  7 32  1  0
  7  8  1  0
  7 47  1  6
  8  9  1  0
  8 48  1  0
  8 49  1  0
  9 30  1  0
  9 10  2  0
 10 11  1  0
 10 50  1  0
 11 12  1  0
 11 51  1  0
 11 52  1  0
 12 28  1  0
 12 13  1  0
 12 53  1  1
 13 25  1  0
 13 14  1  0
 13 54  1  1
 14 15  1  0
 14 55  1  0
 14 56  1  0
 15 16  1  0
 15 57  1  0
 15 58  1  0
 16 23  1  0
 16 17  1  6
 16 18  1  0
 17 59  1  0
 18 19  1  0
 18 60  1  0
 18 61  1  0
 19 20  1  0
 19 21  1  0
 19 62  1  1
 20 63  1  0
 21 22  1  0
 21 64  1  0
 21 65  1  0
 22 23  1  0
 22 66  1  0
 22 67  1  0
 23 24  1  1
 23 25  1  0
 24 68  1  0
 24 69  1  0
 24 70  1  0
 25 26  1  0
 25 71  1  1
 26 27  1  0
 26 72  1  0
 26 73  1  0
 27 28  1  0
 27 74  1  0
 27 75  1  0
 28 29  1  1
 28 30  1  0
 29 76  1  0
 29 77  1  0
 29 78  1  0
 30 31  1  0
 30 79  1  1
 31 32  1  0
 31 80  1  0
 31 81  1  0
 32 33  1  0
 32 82  1  1
 33 34  1  0
 33 83  1  1
 34 84  1  0
 34 85  1  0
 34 86  1  0
 35 40  1  0
 35 36  1  0
 35 87  1  6
 36 37  1  0
 37 38  2  0
 37 39  1  0
 39 40  1  0
 39 88  1  0
 39 89  1  0
 40 90  1  1
M  END
>  <i_m_ct_stereo_status>  (172) 
1

>  <s_m_source_file>  (172) 
/var/tmp/pbs.5076255.sched01/tmpb5cfx69f/43pm4c6kpw.sdf

>  <i_m_source_file_index>  (172) 
27

>  <i_lp_mmshare_version>  (172) 
48012

>  <i_f3d_flags>  (172) 
0

>  <s_epik_input>  (172) 
TzFbQ0gyXVtDQEBIXShbQ0gzXSlbQ0BIXShbQ0gyXUMoTzIpPU8pW0NAQEhdMltDQF0xM09bQ0BIXTRbQ0BASF0oW0NASF0zW0NIM10pW0NIMl1bQ0BASF01QyhbQ0gyXTQpPVtDSF1bQ0gyXVtDQEBIXTZbQ0BIXTdbQ0BASF0oW0NIMl1bQ0gyXVtDQF01NltDSDNdKVtDQEBdOChbQ0gzXSlbQ0BAXShbT0hdKShbQ0gyXVtDSDJdNylbQ0gyXVtDQEBIXShbT0hdKVtDSDJdW0NIMl04

>  <s_epik_cmdline>  (172) 
J2VwaWtfcHl0aG9uJywgJy1waHQnLCAnMi4wJywgJy1waCcsICc3LjAnLCAnLXRuJywgJzgnLCAnLW1hJywgJzIwMCcsICctaW1hZScsICc8aW5maWxlLm1hZT4nLCAnLW9tYWUnLCAnPG91dGZpbGUubWFlPic=

>  <r_lp_tautomer_probability>  (172) 
1

>  <r_epik_Ionization_Penalty>  (172) 
4.91443e-06

>  <r_epik_Ionization_Penalty_Charging>  (172) 
0

>  <r_epik_Ionization_Penalty_Neutral>  (172) 
4.91443e-06

>  <r_epik_State_Penalty>  (172) 
-0

>  <r_epik_Charging_Adjusted_Penalty>  (172) 
0

>  <i_epik_Tot_Q>  (172) 
0

>  <i_epik_Tot_abs_Q>  (172) 
0

>  <s_epik_Chemistry_Notes>  (172) 
This compound has an ester and may undergo hydrolysis at high or low pH.

>  <s_lp_Force_Field>  (172) 
OPLS3e

>  <r_lp_Energy>  (172) 
71.8671

>  <b_lp_Chiralities_Consistent>  (172) 
1

>  <s_lp_Variant>  (172) 
47:0-1

>  <s_i_glide_gridfile>  (172) 
pfpi4k_grid

>  <i_i_glide_lignum>  (172) 
27

>  <i_i_glide_rotatable_bonds>  (172) 
2

>  <r_i_docking_score>  (172) 
-2.36112

>  <r_i_glide_ligand_efficiency>  (172) 
-0.059028

>  <r_i_glide_ligand_efficiency_sa>  (172) 
-0.201873

>  <r_i_glide_ligand_efficiency_ln>  (172) 
-0.503558

>  <r_i_glide_gscore>  (172) 
-2.36112

>  <r_i_glide_lipo>  (172) 
-0.209921

>  <r_i_glide_hbond>  (172) 
-0.0674489

>  <r_i_glide_metal>  (172) 
-0

>  <r_i_glide_rewards>  (172) 
-0.0375499

>  <r_i_glide_evdw>  (172) 
-31.7612

>  <r_i_glide_ecoul>  (172) 
-3.03221

>  <r_i_glide_erotb>  (172) 
0

>  <r_i_glide_esite>  (172) 
-0.00330741

>  <r_i_glide_emodel>  (172) 
-40.0939

>  <r_i_glide_energy>  (172) 
-34.7935

>  <r_i_glide_einternal>  (172) 
0.336992

>  <r_i_glide_intrahb_reward>  (172) 
-0

>  <i_i_glide_confnum>  (172) 
1

>  <i_i_glide_posenum>  (172) 
10

>  <r_i_glide_eff_state_penalty>  (172) 
0

>  <ligand_id>  (172) 
47

>  <original_smiles>  (172) 
CC1COC2(OC3CC4=CCC5C6CCC7(O)CC(O)CCC7(C)C6CCC5(C)C4CC3C2C)C2OC(=O)CC12

>  <smiles>  (172) 
[H]OC1([H])C([H])([H])C([H])([H])C2(C([H])([H])[H])C3([H])C([H])([H])C([H])([H])C4(C([H])([H])[H])C5([H])C(=C([H])C([H])([H])C4([H])C3([H])C([H])([H])C([H])([H])C2(O[H])C1([H])[H])C([H])([H])C1([H])OC2(OC([H])([H])C([H])(C([H])([H])[H])C3([H])C([H])([H])C(=O)OC23[H])C([H])(C([H])([H])[H])C1([H])C5([H])[H]

$$$$
47:0:2
     RDKit          3D

 90 97  0  0  1  0  0  0  0  0999 V2000
    0.9324    1.4533    1.6741 C   0  0  0  0  0  0  0  0  0  0  0  0
    1.0531    1.2496    3.1609 C   0  0  2  0  0  0  0  0  0  0  0  0
    1.5457   -0.1838    3.4211 C   0  0  0  0  0  0  0  0  0  0  0  0
    1.5160   -0.5547    4.8009 O   0  0  0  0  0  0  0  0  0  0  0  0
    0.3268   -0.3646    5.5232 C   0  0  2  0  0  0  0  0  0  0  0  0
    0.6097   -0.5958    6.8680 O   0  0  0  0  0  0  0  0  0  0  0  0
    0.2991   -1.9393    7.2200 C   0  0  2  0  0  0  0  0  0  0  0  0
    1.4351   -2.6421    7.9829 C   0  0  0  0  0  0  0  0  0  0  0  0
    2.3831   -3.4321    7.1015 C   0  0  0  0  0  0  0  0  0  0  0  0
    3.7199   -3.3326    7.2364 C   0  0  0  0  0  0  0  0  0  0  0  0
    4.7327   -4.1524    6.4702 C   0  0  0  0  0  0  0  0  0  0  0  0
    4.1542   -4.8743    5.2363 C   0  0  2  0  0  0  0  0  0  0  0  0
    4.5235   -4.1824    3.8876 C   0  0  2  0  0  0  0  0  0  0  0  0
    4.2434   -2.6714    3.7773 C   0  0  0  0  0  0  0  0  0  0  0  0
    4.7954   -2.0966    2.4695 C   0  0  0  0  0  0  0  0  0  0  0  0
    4.2391   -2.7996    1.2040 C   0  0  1  0  0  0  0  0  0  0  0  0
    2.8498   -2.5223    1.1342 O   0  0  0  0  0  0  0  0  0  0  0  0
    4.8352   -2.1735   -0.0893 C   0  0  0  0  0  0  0  0  0  0  0  0
    6.3050   -2.5388   -0.3790 C   0  0  1  0  0  0  0  0  0  0  0  0
    7.1977   -1.7698    0.3946 O   0  0  0  0  0  0  0  0  0  0  0  0
    6.5841   -4.0345   -0.1884 C   0  0  0  0  0  0  0  0  0  0  0  0
    5.9804   -4.6361    1.0955 C   0  0  0  0  0  0  0  0  0  0  0  0
    4.4552   -4.3544    1.2777 C   0  0  2  0  0  0  0  0  0  0  0  0
    3.7144   -5.0878    0.1251 C   0  0  0  0  0  0  0  0  0  0  0  0
    3.9853   -4.9589    2.6589 C   0  0  2  0  0  0  0  0  0  0  0  0
    2.4665   -5.1959    2.8423 C   0  0  0  0  0  0  0  0  0  0  0  0
    2.1715   -6.0137    4.1136 C   0  0  0  0  0  0  0  0  0  0  0  0
    2.6915   -5.4031    5.4443 C   0  0  1  0  0  0  0  0  0  0  0  0
    2.7868   -6.6081    6.4268 C   0  0  0  0  0  0  0  0  0  0  0  0
    1.7000   -4.3736    6.1217 C   0  0  2  0  0  0  0  0  0  0  0  0
    0.7681   -3.5471    5.2117 C   0  0  0  0  0  0  0  0  0  0  0  0
   -0.2389   -2.6489    5.9658 C   0  0  2  0  0  0  0  0  0  0  0  0
   -0.7072   -1.4630    5.1181 C   0  0  1  0  0  0  0  0  0  0  0  0
   -2.1581   -1.0506    5.4440 C   0  0  0  0  0  0  0  0  0  0  0  0
   -0.0082    1.1369    5.3458 C   0  0  2  0  0  0  0  0  0  0  0  0
   -1.1590    1.6371    5.9958 O   0  0  0  0  0  0  0  0  0  0  0  0
   -1.6465    2.6919    5.3193 C   0  0  0  0  0  0  0  0  0  0  0  0
   -2.5762    3.4266    5.6544 O   0  0  0  0  0  0  0  0  0  0  0  0
   -0.8741    2.8476    4.0154 C   0  0  0  0  0  0  0  0  0  0  0  0
   -0.2725    1.4531    3.8848 C   0  0  1  0  0  0  0  0  0  0  0  0
    0.2249    0.7798    1.1979 H   0  0  0  0  0  0  0  0  0  0  0  0
    1.8895    1.3055    1.1852 H   0  0  0  0  0  0  0  0  0  0  0  0
    0.6168    2.4790    1.4609 H   0  0  0  0  0  0  0  0  0  0  0  0
    1.7830    1.9624    3.5422 H   0  0  0  0  0  0  0  0  0  0  0  0
    0.9798   -0.8951    2.8264 H   0  0  0  0  0  0  0  0  0  0  0  0
    2.5730   -0.2572    3.0835 H   0  0  0  0  0  0  0  0  0  0  0  0
   -0.5262   -1.8267    7.9188 H   0  0  0  0  0  0  0  0  0  0  0  0
    1.9839   -1.9253    8.5945 H   0  0  0  0  0  0  0  0  0  0  0  0
    0.9919   -3.3601    8.6716 H   0  0  0  0  0  0  0  0  0  0  0  0
    4.1338   -2.6657    7.9789 H   0  0  0  0  0  0  0  0  0  0  0  0
    5.5736   -3.5172    6.1951 H   0  0  0  0  0  0  0  0  0  0  0  0
    5.1299   -4.8878    7.1705 H   0  0  0  0  0  0  0  0  0  0  0  0
    4.7606   -5.7787    5.1690 H   0  0  0  0  0  0  0  0  0  0  0  0
    5.6084   -4.2603    3.8584 H   0  0  0  0  0  0  0  0  0  0  0  0
    3.1858   -2.4659    3.8120 H   0  0  0  0  0  0  0  0  0  0  0  0
    4.6927   -2.1321    4.6111 H   0  0  0  0  0  0  0  0  0  0  0  0
    4.5970   -1.0276    2.4247 H   0  0  0  0  0  0  0  0  0  0  0  0
    5.8771   -2.1905    2.5237 H   0  0  0  0  0  0  0  0  0  0  0  0
    2.7194   -1.6839    0.7150 H   0  0  0  0  0  0  0  0  0  0  0  0
    4.2462   -2.5150   -0.9394 H   0  0  0  0  0  0  0  0  0  0  0  0
    4.7165   -1.0879   -0.0876 H   0  0  0  0  0  0  0  0  0  0  0  0
    6.5332   -2.2879   -1.4158 H   0  0  0  0  0  0  0  0  0  0  0  0
    7.0293   -1.9628    1.3047 H   0  0  0  0  0  0  0  0  0  0  0  0
    6.1644   -4.5553   -1.0450 H   0  0  0  0  0  0  0  0  0  0  0  0
    7.6589   -4.2274   -0.2252 H   0  0  0  0  0  0  0  0  0  0  0  0
    6.1668   -5.7132    1.1062 H   0  0  0  0  0  0  0  0  0  0  0  0
    6.5548   -4.2374    1.9288 H   0  0  0  0  0  0  0  0  0  0  0  0
    3.8463   -6.1682    0.1987 H   0  0  0  0  0  0  0  0  0  0  0  0
    4.0641   -4.7916   -0.8602 H   0  0  0  0  0  0  0  0  0  0  0  0
    2.6442   -4.8865    0.1158 H   0  0  0  0  0  0  0  0  0  0  0  0
    4.4202   -5.9577    2.7015 H   0  0  0  0  0  0  0  0  0  0  0  0
    1.9239   -4.2548    2.8511 H   0  0  0  0  0  0  0  0  0  0  0  0
    2.0539   -5.7668    2.0128 H   0  0  0  0  0  0  0  0  0  0  0  0
    1.1035   -6.2095    4.1869 H   0  0  0  0  0  0  0  0  0  0  0  0
    2.6259   -6.9966    3.9653 H   0  0  0  0  0  0  0  0  0  0  0  0
    1.8215   -7.0994    6.5617 H   0  0  0  0  0  0  0  0  0  0  0  0
    3.1357   -6.3055    7.4156 H   0  0  0  0  0  0  0  0  0  0  0  0
    3.4754   -7.3792    6.0711 H   0  0  0  0  0  0  0  0  0  0  0  0
    1.0205   -4.9654    6.7361 H   0  0  0  0  0  0  0  0  0  0  0  0
    1.3536   -2.9328    4.5508 H   0  0  0  0  0  0  0  0  0  0  0  0
    0.1999   -4.2070    4.5662 H   0  0  0  0  0  0  0  0  0  0  0  0
   -1.0775   -3.2823    6.2527 H   0  0  0  0  0  0  0  0  0  0  0  0
   -0.6485   -1.6866    4.0570 H   0  0  0  0  0  0  0  0  0  0  0  0
   -2.2332   -0.6810    6.4642 H   0  0  0  0  0  0  0  0  0  0  0  0
   -2.8465   -1.8849    5.3422 H   0  0  0  0  0  0  0  0  0  0  0  0
   -2.5230   -0.2645    4.7846 H   0  0  0  0  0  0  0  0  0  0  0  0
    0.8479    1.7183    5.7004 H   0  0  0  0  0  0  0  0  0  0  0  0
   -1.5211    3.1242    3.1821 H   0  0  0  0  0  0  0  0  0  0  0  0
   -0.0992    3.6052    4.1444 H   0  0  0  0  0  0  0  0  0  0  0  0
   -1.0267    0.7899    3.4573 H   0  0  0  0  0  0  0  0  0  0  0  0
  1  2  1  0
  1 41  1  0
  1 42  1  0
  1 43  1  0
  2 40  1  0
  2  3  1  0
  2 44  1  1
  3  4  1  0
  3 45  1  0
  3 46  1  0
  5  4  1  6
  5 33  1  0
  5  6  1  0
  5 35  1  0
  6  7  1  0
  7 32  1  0
  7  8  1  0
  7 47  1  1
  8  9  1  0
  8 48  1  0
  8 49  1  0
  9 30  1  0
  9 10  2  0
 10 11  1  0
 10 50  1  0
 11 12  1  0
 11 51  1  0
 11 52  1  0
 12 28  1  0
 12 13  1  0
 12 53  1  6
 13 25  1  0
 13 14  1  0
 13 54  1  6
 14 15  1  0
 14 55  1  0
 14 56  1  0
 15 16  1  0
 15 57  1  0
 15 58  1  0
 16 23  1  0
 16 17  1  6
 16 18  1  0
 17 59  1  0
 18 19  1  0
 18 60  1  0
 18 61  1  0
 19 20  1  0
 19 21  1  0
 19 62  1  6
 20 63  1  0
 21 22  1  0
 21 64  1  0
 21 65  1  0
 22 23  1  0
 22 66  1  0
 22 67  1  0
 23 24  1  6
 23 25  1  0
 24 68  1  0
 24 69  1  0
 24 70  1  0
 25 26  1  0
 25 71  1  1
 26 27  1  0
 26 72  1  0
 26 73  1  0
 27 28  1  0
 27 74  1  0
 27 75  1  0
 28 29  1  1
 28 30  1  0
 29 76  1  0
 29 77  1  0
 29 78  1  0
 30 31  1  0
 30 79  1  1
 31 32  1  0
 31 80  1  0
 31 81  1  0
 32 33  1  0
 32 82  1  1
 33 34  1  0
 33 83  1  6
 34 84  1  0
 34 85  1  0
 34 86  1  0
 35 40  1  0
 35 36  1  0
 35 87  1  1
 36 37  1  0
 37 38  2  0
 37 39  1  0
 39 40  1  0
 39 88  1  0
 39 89  1  0
 40 90  1  6
M  END
>  <i_m_ct_stereo_status>  (173) 
1

>  <s_m_source_file>  (173) 
/var/tmp/pbs.5076255.sched01/tmpb5cfx69f/43pm4c6kpw.sdf

>  <i_m_source_file_index>  (173) 
27

>  <i_lp_mmshare_version>  (173) 
48012

>  <i_f3d_flags>  (173) 
0

>  <s_epik_input>  (173) 
TzFbQ0gyXVtDQEBIXShbQ0gzXSlbQ0BIXShbQ0gyXUMoTzIpPU8pW0NAQEhdMltDQF0xM09bQ0BIXTRbQ0BASF0oW0NASF0zW0NIM10pW0NIMl1bQ0BASF01QyhbQ0gyXTQpPVtDSF1bQ0gyXVtDQEBIXTZbQ0BIXTdbQ0BASF0oW0NIMl1bQ0gyXVtDQF01NltDSDNdKVtDQEBdOChbQ0gzXSlbQ0BAXShbT0hdKShbQ0gyXVtDSDJdNylbQ0gyXVtDQEBIXShbT0hdKVtDSDJdW0NIMl04

>  <s_epik_cmdline>  (173) 
J2VwaWtfcHl0aG9uJywgJy1waHQnLCAnMi4wJywgJy1waCcsICc3LjAnLCAnLXRuJywgJzgnLCAnLW1hJywgJzIwMCcsICctaW1hZScsICc8aW5maWxlLm1hZT4nLCAnLW9tYWUnLCAnPG91dGZpbGUubWFlPic=

>  <r_lp_tautomer_probability>  (173) 
1

>  <r_epik_Ionization_Penalty>  (173) 
4.91443e-06

>  <r_epik_Ionization_Penalty_Charging>  (173) 
0

>  <r_epik_Ionization_Penalty_Neutral>  (173) 
4.91443e-06

>  <r_epik_State_Penalty>  (173) 
-0

>  <r_epik_Charging_Adjusted_Penalty>  (173) 
0

>  <i_epik_Tot_Q>  (173) 
0

>  <i_epik_Tot_abs_Q>  (173) 
0

>  <s_epik_Chemistry_Notes>  (173) 
This compound has an ester and may undergo hydrolysis at high or low pH.

>  <s_lp_Force_Field>  (173) 
OPLS3e

>  <r_lp_Energy>  (173) 
71.8671

>  <b_lp_Chiralities_Consistent>  (173) 
1

>  <s_lp_Variant>  (173) 
47:0-1

>  <s_i_glide_gridfile>  (173) 
pfpi4k_grid

>  <i_i_glide_lignum>  (173) 
27

>  <i_i_glide_rotatable_bonds>  (173) 
2

>  <r_i_docking_score>  (173) 
-2.21459

>  <r_i_glide_ligand_efficiency>  (173) 
-0.0553648

>  <r_i_glide_ligand_efficiency_sa>  (173) 
-0.189345

>  <r_i_glide_ligand_efficiency_ln>  (173) 
-0.472307

>  <r_i_glide_gscore>  (173) 
-2.21459

>  <r_i_glide_lipo>  (173) 
-0.249606

>  <r_i_glide_hbond>  (173) 
0

>  <r_i_glide_metal>  (173) 
-0

>  <r_i_glide_rewards>  (173) 
-0.0389896

>  <r_i_glide_evdw>  (173) 
-30.9109

>  <r_i_glide_ecoul>  (173) 
-2.46529

>  <r_i_glide_erotb>  (173) 
0

>  <r_i_glide_esite>  (173) 
-0.0106579

>  <r_i_glide_emodel>  (173) 
-37.958

>  <r_i_glide_energy>  (173) 
-33.3762

>  <r_i_glide_einternal>  (173) 
0.629032

>  <r_i_glide_intrahb_reward>  (173) 
-0

>  <i_i_glide_confnum>  (173) 
1

>  <i_i_glide_posenum>  (173) 
4

>  <r_i_glide_eff_state_penalty>  (173) 
0

>  <ligand_id>  (173) 
47

>  <original_smiles>  (173) 
CC1COC2(OC3CC4=CCC5C6CCC7(O)CC(O)CCC7(C)C6CCC5(C)C4CC3C2C)C2OC(=O)CC12

>  <smiles>  (173) 
[H]OC1([H])C([H])([H])C([H])([H])C2(C([H])([H])[H])C3([H])C([H])([H])C([H])([H])C4(C([H])([H])[H])C5([H])C(=C([H])C([H])([H])C4([H])C3([H])C([H])([H])C([H])([H])C2(O[H])C1([H])[H])C([H])([H])C1([H])OC2(OC([H])([H])C([H])(C([H])([H])[H])C3([H])C([H])([H])C(=O)OC23[H])C([H])(C([H])([H])[H])C1([H])C5([H])[H]

$$$$
48:0:0
     RDKit          3D

 31 33  0  0  1  0  0  0  0  0999 V2000
    6.5242   -2.9306   -0.2809 O   0  0  0  0  0  0  0  0  0  0  0  0
    5.3472   -3.1564   -0.5671 C   0  0  0  0  0  0  0  0  0  0  0  0
    4.6957   -2.4168   -1.6965 C   0  0  0  0  0  0  0  0  0  0  0  0
    3.9999   -2.9722   -2.7508 C   0  0  0  0  0  0  0  0  0  0  0  0
    3.4176   -1.7691   -3.8738 S   0  0  0  0  0  0  0  0  0  0  0  0
    4.1956   -0.5478   -2.8900 C   0  0  0  0  0  0  0  0  0  0  0  0
    4.8331   -1.0278   -1.8209 N   0  0  0  0  0  0  0  0  0  0  0  0
    4.6046   -4.0378    0.1445 N   0  0  0  0  0  0  0  0  0  0  0  0
    5.1458   -4.7907    1.2817 C   0  0  0  0  0  0  0  0  0  0  0  0
    3.9517   -5.4813    1.9538 C   0  0  1  0  0  0  0  0  0  0  0  0
    3.4769   -4.6812    2.9095 F   0  0  0  0  0  0  0  0  0  0  0  0
    2.9245   -5.6006    0.8308 C   0  0  1  0  0  0  0  0  0  0  0  0
    1.5613   -5.6472    1.2651 O   0  0  0  0  0  0  0  0  0  0  0  0
    1.0568   -6.7804    1.8146 C   0  0  0  0  0  0  0  0  0  0  0  0
   -0.2301   -6.6834    2.1555 N   0  0  0  0  0  0  0  0  0  0  0  0
   -0.7973   -7.7898    2.6931 C   0  0  0  0  0  0  0  0  0  0  0  0
   -0.0736   -8.9775    2.8808 C   0  0  0  0  0  0  0  0  0  0  0  0
    1.2723   -8.9629    2.4790 C   0  0  0  0  0  0  0  0  0  0  0  0
    1.8362   -7.8545    1.9446 N   0  0  0  0  0  0  0  0  0  0  0  0
    3.1827   -4.3575   -0.0268 C   0  0  0  0  0  0  0  0  0  0  0  0
    3.7860   -4.0138   -2.9321 H   0  0  0  0  0  0  0  0  0  0  0  0
    4.1988    0.5107   -3.1149 H   0  0  0  0  0  0  0  0  0  0  0  0
    5.8518   -5.5290    0.8994 H   0  0  0  0  0  0  0  0  0  0  0  0
    5.6806   -4.1479    1.9842 H   0  0  0  0  0  0  0  0  0  0  0  0
    4.2084   -6.4417    2.4061 H   0  0  0  0  0  0  0  0  0  0  0  0
    3.1609   -6.4678    0.2118 H   0  0  0  0  0  0  0  0  0  0  0  0
   -1.8412   -7.7189    2.9745 H   0  0  0  0  0  0  0  0  0  0  0  0
   -0.5310   -9.8599    3.3137 H   0  0  0  0  0  0  0  0  0  0  0  0
    1.8994   -9.8402    2.5739 H   0  0  0  0  0  0  0  0  0  0  0  0
    2.5765   -3.5030    0.2856 H   0  0  0  0  0  0  0  0  0  0  0  0
    2.9137   -4.6120   -1.0452 H   0  0  0  0  0  0  0  0  0  0  0  0
  1  2  2  0
  2  3  1  0
  2  8  1  0
  3  7  1  0
  3  4  2  0
  4  5  1  0
  4 21  1  0
  5  6  1  0
  6  7  2  0
  6 22  1  0
  8 20  1  0
  8  9  1  0
  9 10  1  0
  9 23  1  0
  9 24  1  0
 10 11  1  0
 10 12  1  0
 10 25  1  1
 12 13  1  0
 12 20  1  0
 12 26  1  6
 13 14  1  0
 14 19  1  0
 14 15  2  0
 15 16  1  0
 16 17  2  0
 16 27  1  0
 17 18  1  0
 17 28  1  0
 18 19  2  0
 18 29  1  0
 20 30  1  0
 20 31  1  0
M  END
>  <i_m_ct_stereo_status>  (174) 
1

>  <s_m_source_file>  (174) 
/var/tmp/pbs.5076255.sched01/tmpb5cfx69f/43pm4c6kpw.sdf

>  <i_m_source_file_index>  (174) 
28

>  <i_lp_mmshare_version>  (174) 
48012

>  <i_f3d_flags>  (174) 
0

>  <s_epik_input>  (174) 
bjFbY0hdc1tjSF1jMUMoPU8pTjJbQ0gyXVtDQEBIXShGKVtDQEhdKFtDSDJdMilPYzNuW2NIXVtjSF1bY0hdbjM=

>  <s_epik_cmdline>  (174) 
J2VwaWtfcHl0aG9uJywgJy1waHQnLCAnMi4wJywgJy1waCcsICc3LjAnLCAnLXRuJywgJzgnLCAnLW1hJywgJzIwMCcsICctaW1hZScsICc8aW5maWxlLm1hZT4nLCAnLW9tYWUnLCAnPG91dGZpbGUubWFlPic=

>  <r_lp_tautomer_probability>  (174) 
1

>  <r_epik_Ionization_Penalty>  (174) 
1.16503e-07

>  <r_epik_Ionization_Penalty_Charging>  (174) 
0

>  <r_epik_Ionization_Penalty_Neutral>  (174) 
1.16503e-07

>  <r_epik_State_Penalty>  (174) 
-0

>  <r_epik_Charging_Adjusted_Penalty>  (174) 
0

>  <i_epik_Tot_Q>  (174) 
0

>  <i_epik_Tot_abs_Q>  (174) 
0

>  <s_lp_Force_Field>  (174) 
OPLS3e

>  <r_lp_Energy>  (174) 
27.7685

>  <b_lp_Chiralities_Consistent>  (174) 
1

>  <s_lp_Variant>  (174) 
48:0-1

>  <s_i_glide_gridfile>  (174) 
pfpi4k_grid

>  <i_i_glide_lignum>  (174) 
28

>  <i_i_glide_rotatable_bonds>  (174) 
4

>  <r_i_docking_score>  (174) 
-3.91723

>  <r_i_glide_ligand_efficiency>  (174) 
-0.195862

>  <r_i_glide_ligand_efficiency_sa>  (174) 
-0.53165

>  <r_i_glide_ligand_efficiency_ln>  (174) 
-0.980354

>  <r_i_glide_gscore>  (174) 
-3.91723

>  <r_i_glide_lipo>  (174) 
-0.346269

>  <r_i_glide_hbond>  (174) 
-0.282215

>  <r_i_glide_metal>  (174) 
-0

>  <r_i_glide_rewards>  (174) 
-1.49386

>  <r_i_glide_evdw>  (174) 
-30.0845

>  <r_i_glide_ecoul>  (174) 
-7.16853

>  <r_i_glide_erotb>  (174) 
0.844489

>  <r_i_glide_esite>  (174) 
-0.0598739

>  <r_i_glide_emodel>  (174) 
-46.973

>  <r_i_glide_energy>  (174) 
-37.2531

>  <r_i_glide_einternal>  (174) 
0.872269

>  <r_i_glide_intrahb_reward>  (174) 
-0

>  <i_i_glide_confnum>  (174) 
5

>  <i_i_glide_posenum>  (174) 
38

>  <r_i_glide_eff_state_penalty>  (174) 
0

>  <ligand_id>  (174) 
48

>  <original_smiles>  (174) 
O=C(c1cscn1)N1CC(F)C(Oc2ncccn2)C1

>  <smiles>  (174) 
[H]c1nc(C(=O)N2C([H])([H])C([H])(F)C([H])(Oc3nc([H])c([H])c([H])n3)C2([H])[H])c([H])s1

$$$$
48:0:1
     RDKit          3D

 31 33  0  0  1  0  0  0  0  0999 V2000
    7.2804   -2.2800   -1.2717 O   0  0  0  0  0  0  0  0  0  0  0  0
    6.1709   -2.8160   -1.2020 C   0  0  0  0  0  0  0  0  0  0  0  0
    5.0456   -2.3155   -2.0648 C   0  0  0  0  0  0  0  0  0  0  0  0
    4.1561   -3.0799   -2.7964 C   0  0  0  0  0  0  0  0  0  0  0  0
    3.0127   -2.1065   -3.6813 S   0  0  0  0  0  0  0  0  0  0  0  0
    3.8397   -0.6781   -3.0997 C   0  0  0  0  0  0  0  0  0  0  0  0
    4.8621   -0.9404   -2.2815 N   0  0  0  0  0  0  0  0  0  0  0  0
    5.9210   -3.7993   -0.3060 N   0  0  0  0  0  0  0  0  0  0  0  0
    6.9165   -4.2561    0.6732 C   0  0  0  0  0  0  0  0  0  0  0  0
    6.1780   -5.2106    1.6245 C   0  0  1  0  0  0  0  0  0  0  0  0
    5.7034   -4.5050    2.6540 F   0  0  0  0  0  0  0  0  0  0  0  0
    5.0152   -5.7220    0.7786 C   0  0  1  0  0  0  0  0  0  0  0  0
    3.8631   -6.1234    1.5249 O   0  0  0  0  0  0  0  0  0  0  0  0
    3.7241   -7.4091    1.9358 C   0  0  0  0  0  0  0  0  0  0  0  0
    2.5844   -7.6551    2.5774 N   0  0  0  0  0  0  0  0  0  0  0  0
    2.3687   -8.9218    2.9955 C   0  0  0  0  0  0  0  0  0  0  0  0
    3.3074   -9.9390    2.7612 C   0  0  0  0  0  0  0  0  0  0  0  0
    4.4731   -9.5708    2.0691 C   0  0  0  0  0  0  0  0  0  0  0  0
    4.6829   -8.2982    1.6621 N   0  0  0  0  0  0  0  0  0  0  0  0
    4.6732   -4.5512   -0.1362 C   0  0  0  0  0  0  0  0  0  0  0  0
    4.0807   -4.1531   -2.8626 H   0  0  0  0  0  0  0  0  0  0  0  0
    3.5767    0.3338   -3.3830 H   0  0  0  0  0  0  0  0  0  0  0  0
    7.7144   -4.7786    0.1422 H   0  0  0  0  0  0  0  0  0  0  0  0
    7.3697   -3.4236    1.2177 H   0  0  0  0  0  0  0  0  0  0  0  0
    6.8082   -6.0135    2.0171 H   0  0  0  0  0  0  0  0  0  0  0  0
    5.3725   -6.5102    0.1159 H   0  0  0  0  0  0  0  0  0  0  0  0
    1.4419   -9.1224    3.5192 H   0  0  0  0  0  0  0  0  0  0  0  0
    3.1391  -10.9588    3.0832 H   0  0  0  0  0  0  0  0  0  0  0  0
    5.2406  -10.2990    1.8371 H   0  0  0  0  0  0  0  0  0  0  0  0
    3.9094   -3.8968    0.2934 H   0  0  0  0  0  0  0  0  0  0  0  0
    4.3107   -4.9917   -1.0541 H   0  0  0  0  0  0  0  0  0  0  0  0
  1  2  2  0
  2  3  1  0
  2  8  1  0
  3  7  1  0
  3  4  2  0
  4  5  1  0
  4 21  1  0
  5  6  1  0
  6  7  2  0
  6 22  1  0
  8 20  1  0
  8  9  1  0
  9 10  1  0
  9 23  1  0
  9 24  1  0
 10 11  1  0
 10 12  1  0
 10 25  1  1
 12 13  1  0
 12 20  1  0
 12 26  1  6
 13 14  1  0
 14 19  1  0
 14 15  2  0
 15 16  1  0
 16 17  2  0
 16 27  1  0
 17 18  1  0
 17 28  1  0
 18 19  2  0
 18 29  1  0
 20 30  1  0
 20 31  1  0
M  END
>  <i_m_ct_stereo_status>  (175) 
1

>  <s_m_source_file>  (175) 
/var/tmp/pbs.5076255.sched01/tmpb5cfx69f/43pm4c6kpw.sdf

>  <i_m_source_file_index>  (175) 
28

>  <i_lp_mmshare_version>  (175) 
48012

>  <i_f3d_flags>  (175) 
0

>  <s_epik_input>  (175) 
bjFbY0hdc1tjSF1jMUMoPU8pTjJbQ0gyXVtDQEBIXShGKVtDQEhdKFtDSDJdMilPYzNuW2NIXVtjSF1bY0hdbjM=

>  <s_epik_cmdline>  (175) 
J2VwaWtfcHl0aG9uJywgJy1waHQnLCAnMi4wJywgJy1waCcsICc3LjAnLCAnLXRuJywgJzgnLCAnLW1hJywgJzIwMCcsICctaW1hZScsICc8aW5maWxlLm1hZT4nLCAnLW9tYWUnLCAnPG91dGZpbGUubWFlPic=

>  <r_lp_tautomer_probability>  (175) 
1

>  <r_epik_Ionization_Penalty>  (175) 
1.16503e-07

>  <r_epik_Ionization_Penalty_Charging>  (175) 
0

>  <r_epik_Ionization_Penalty_Neutral>  (175) 
1.16503e-07

>  <r_epik_State_Penalty>  (175) 
-0

>  <r_epik_Charging_Adjusted_Penalty>  (175) 
0

>  <i_epik_Tot_Q>  (175) 
0

>  <i_epik_Tot_abs_Q>  (175) 
0

>  <s_lp_Force_Field>  (175) 
OPLS3e

>  <r_lp_Energy>  (175) 
27.7685

>  <b_lp_Chiralities_Consistent>  (175) 
1

>  <s_lp_Variant>  (175) 
48:0-1

>  <s_i_glide_gridfile>  (175) 
pfpi4k_grid

>  <i_i_glide_lignum>  (175) 
28

>  <i_i_glide_rotatable_bonds>  (175) 
4

>  <r_i_docking_score>  (175) 
-3.87474

>  <r_i_glide_ligand_efficiency>  (175) 
-0.193737

>  <r_i_glide_ligand_efficiency_sa>  (175) 
-0.525883

>  <r_i_glide_ligand_efficiency_ln>  (175) 
-0.969719

>  <r_i_glide_gscore>  (175) 
-3.87474

>  <r_i_glide_lipo>  (175) 
-0.681667

>  <r_i_glide_hbond>  (175) 
-0.16

>  <r_i_glide_metal>  (175) 
-0

>  <r_i_glide_rewards>  (175) 
-1.55305

>  <r_i_glide_evdw>  (175) 
-29.189

>  <r_i_glide_ecoul>  (175) 
-5.7584

>  <r_i_glide_erotb>  (175) 
0.844489

>  <r_i_glide_esite>  (175) 
-0.00129886

>  <r_i_glide_emodel>  (175) 
-44.0328

>  <r_i_glide_energy>  (175) 
-34.9474

>  <r_i_glide_einternal>  (175) 
1.50112

>  <r_i_glide_intrahb_reward>  (175) 
-0

>  <i_i_glide_confnum>  (175) 
5

>  <i_i_glide_posenum>  (175) 
37

>  <r_i_glide_eff_state_penalty>  (175) 
0

>  <ligand_id>  (175) 
48

>  <original_smiles>  (175) 
O=C(c1cscn1)N1CC(F)C(Oc2ncccn2)C1

>  <smiles>  (175) 
[H]c1nc(C(=O)N2C([H])([H])C([H])(F)C([H])(Oc3nc([H])c([H])c([H])n3)C2([H])[H])c([H])s1

$$$$
48:0:2
     RDKit          3D

 31 33  0  0  1  0  0  0  0  0999 V2000
    6.2228   -1.4493   -0.4273 O   0  0  0  0  0  0  0  0  0  0  0  0
    5.1615   -2.0638   -0.5373 C   0  0  0  0  0  0  0  0  0  0  0  0
    4.3982   -2.0091   -1.8286 C   0  0  0  0  0  0  0  0  0  0  0  0
    3.7788   -3.0644   -2.4702 C   0  0  0  0  0  0  0  0  0  0  0  0
    2.9790   -2.5702   -3.9162 S   0  0  0  0  0  0  0  0  0  0  0  0
    3.6050   -0.9596   -3.6894 C   0  0  0  0  0  0  0  0  0  0  0  0
    4.3122   -0.8196   -2.5689 N   0  0  0  0  0  0  0  0  0  0  0  0
    4.6305   -2.7391    0.5076 N   0  0  0  0  0  0  0  0  0  0  0  0
    5.1532   -2.6264    1.8756 C   0  0  0  0  0  0  0  0  0  0  0  0
    4.1562   -3.3727    2.7759 C   0  0  1  0  0  0  0  0  0  0  0  0
    3.2326   -2.5103    3.2098 F   0  0  0  0  0  0  0  0  0  0  0  0
    3.5205   -4.3860    1.8331 C   0  0  1  0  0  0  0  0  0  0  0  0
    2.1919   -4.7776    2.2178 O   0  0  0  0  0  0  0  0  0  0  0  0
    1.7980   -6.0769    2.1485 C   0  0  0  0  0  0  0  0  0  0  0  0
    0.4763   -6.2632    2.2749 N   0  0  0  0  0  0  0  0  0  0  0  0
    0.0327   -7.5381    2.2743 C   0  0  0  0  0  0  0  0  0  0  0  0
    0.9124   -8.6224    2.1313 C   0  0  0  0  0  0  0  0  0  0  0  0
    2.2756   -8.3150    1.9855 C   0  0  0  0  0  0  0  0  0  0  0  0
    2.7159   -7.0405    1.9932 N   0  0  0  0  0  0  0  0  0  0  0  0
    3.5055   -3.6787    0.4841 C   0  0  0  0  0  0  0  0  0  0  0  0
    3.7153   -4.1089   -2.1918 H   0  0  0  0  0  0  0  0  0  0  0  0
    3.4599   -0.1393   -4.3792 H   0  0  0  0  0  0  0  0  0  0  0  0
    6.1390   -3.0939    1.9140 H   0  0  0  0  0  0  0  0  0  0  0  0
    5.2669   -1.5850    2.1870 H   0  0  0  0  0  0  0  0  0  0  0  0
    4.6233   -3.8450    3.6431 H   0  0  0  0  0  0  0  0  0  0  0  0
    4.2337   -5.2029    1.7501 H   0  0  0  0  0  0  0  0  0  0  0  0
   -1.0350   -7.6850    2.3774 H   0  0  0  0  0  0  0  0  0  0  0  0
    0.5495   -9.6413    2.0996 H   0  0  0  0  0  0  0  0  0  0  0  0
    3.0078   -9.0979    1.8486 H   0  0  0  0  0  0  0  0  0  0  0  0
    2.5761   -3.1269    0.3073 H   0  0  0  0  0  0  0  0  0  0  0  0
    3.6299   -4.4627   -0.2466 H   0  0  0  0  0  0  0  0  0  0  0  0
  1  2  2  0
  2  3  1  0
  2  8  1  0
  3  7  1  0
  3  4  2  0
  4  5  1  0
  4 21  1  0
  5  6  1  0
  6  7  2  0
  6 22  1  0
  8 20  1  0
  8  9  1  0
  9 10  1  0
  9 23  1  0
  9 24  1  0
 10 11  1  0
 10 12  1  0
 10 25  1  1
 12 13  1  0
 12 20  1  0
 12 26  1  6
 13 14  1  0
 14 19  1  0
 14 15  2  0
 15 16  1  0
 16 17  2  0
 16 27  1  0
 17 18  1  0
 17 28  1  0
 18 19  2  0
 18 29  1  0
 20 30  1  0
 20 31  1  0
M  END
>  <i_m_ct_stereo_status>  (176) 
1

>  <s_m_source_file>  (176) 
/var/tmp/pbs.5076255.sched01/tmpb5cfx69f/43pm4c6kpw.sdf

>  <i_m_source_file_index>  (176) 
28

>  <i_lp_mmshare_version>  (176) 
48012

>  <i_f3d_flags>  (176) 
0

>  <s_epik_input>  (176) 
bjFbY0hdc1tjSF1jMUMoPU8pTjJbQ0gyXVtDQEBIXShGKVtDQEhdKFtDSDJdMilPYzNuW2NIXVtjSF1bY0hdbjM=

>  <s_epik_cmdline>  (176) 
J2VwaWtfcHl0aG9uJywgJy1waHQnLCAnMi4wJywgJy1waCcsICc3LjAnLCAnLXRuJywgJzgnLCAnLW1hJywgJzIwMCcsICctaW1hZScsICc8aW5maWxlLm1hZT4nLCAnLW9tYWUnLCAnPG91dGZpbGUubWFlPic=

>  <r_lp_tautomer_probability>  (176) 
1

>  <r_epik_Ionization_Penalty>  (176) 
1.16503e-07

>  <r_epik_Ionization_Penalty_Charging>  (176) 
0

>  <r_epik_Ionization_Penalty_Neutral>  (176) 
1.16503e-07

>  <r_epik_State_Penalty>  (176) 
-0

>  <r_epik_Charging_Adjusted_Penalty>  (176) 
0

>  <i_epik_Tot_Q>  (176) 
0

>  <i_epik_Tot_abs_Q>  (176) 
0

>  <s_lp_Force_Field>  (176) 
OPLS3e

>  <r_lp_Energy>  (176) 
27.7685

>  <b_lp_Chiralities_Consistent>  (176) 
1

>  <s_lp_Variant>  (176) 
48:0-1

>  <s_i_glide_gridfile>  (176) 
pfpi4k_grid

>  <i_i_glide_lignum>  (176) 
28

>  <i_i_glide_rotatable_bonds>  (176) 
4

>  <r_i_docking_score>  (176) 
-3.32161

>  <r_i_glide_ligand_efficiency>  (176) 
-0.16608

>  <r_i_glide_ligand_efficiency_sa>  (176) 
-0.450812

>  <r_i_glide_ligand_efficiency_ln>  (176) 
-0.831289

>  <r_i_glide_gscore>  (176) 
-3.32161

>  <r_i_glide_lipo>  (176) 
-0.404442

>  <r_i_glide_hbond>  (176) 
-0.189127

>  <r_i_glide_metal>  (176) 
-0

>  <r_i_glide_rewards>  (176) 
-1.41682

>  <r_i_glide_evdw>  (176) 
-27.7511

>  <r_i_glide_ecoul>  (176) 
-4.80359

>  <r_i_glide_erotb>  (176) 
0.844489

>  <r_i_glide_esite>  (176) 
-0.0476146

>  <r_i_glide_emodel>  (176) 
-39.0872

>  <r_i_glide_energy>  (176) 
-32.5547

>  <r_i_glide_einternal>  (176) 
3.52312

>  <r_i_glide_intrahb_reward>  (176) 
-0

>  <i_i_glide_confnum>  (176) 
5

>  <i_i_glide_posenum>  (176) 
34

>  <r_i_glide_eff_state_penalty>  (176) 
0

>  <ligand_id>  (176) 
48

>  <original_smiles>  (176) 
O=C(c1cscn1)N1CC(F)C(Oc2ncccn2)C1

>  <smiles>  (176) 
[H]c1nc(C(=O)N2C([H])([H])C([H])(F)C([H])(Oc3nc([H])c([H])c([H])n3)C2([H])[H])c([H])s1

$$$$
49:0:0
     RDKit          3D

 32 34  0  0  1  0  0  0  0  0999 V2000
    1.1860   -7.9969    2.9090 N   0  0  0  0  0  0  0  0  0  0  0  0
    2.1177   -7.0690    2.6768 C   0  0  0  0  0  0  0  0  0  0  0  0
    3.1155   -6.9038    3.5702 N   0  0  0  0  0  0  0  0  0  0  0  0
    4.0336   -5.9538    3.3627 C   0  0  0  0  0  0  0  0  0  0  0  0
    4.1220   -5.0910    2.3379 N   0  0  0  0  0  0  0  0  0  0  0  0
    3.1262   -5.2887    1.4175 C   0  0  0  0  0  0  0  0  0  0  0  0
    2.0864   -6.2467    1.5262 C   0  0  0  0  0  0  0  0  0  0  0  0
    1.2349   -6.1422    0.4310 N   0  0  0  0  0  0  0  0  0  0  0  0
    1.8061   -5.2271   -0.3133 C   0  0  0  0  0  0  0  0  0  0  0  0
    2.9165   -4.6289    0.2248 N   0  0  0  0  0  0  0  0  0  0  0  0
    3.7433   -3.5279   -0.3321 C   0  0  2  0  0  0  0  0  0  0  0  0
    3.0649   -2.9601   -1.4043 O   0  0  0  0  0  0  0  0  0  0  0  0
    3.8944   -2.9274   -2.5740 C   0  0  1  0  0  0  0  0  0  0  0  0
    3.7067   -1.6192   -3.3542 C   0  0  0  0  0  0  0  0  0  0  0  0
    3.0193   -0.6591   -2.7382 N   0  0  0  0  0  0  0  0  0  0  0  0
    4.1907   -1.4591   -4.4714 O   0  0  0  0  0  0  0  0  0  0  0  0
    5.3194   -3.1505   -2.0353 C   0  0  1  0  0  0  0  0  0  0  0  0
    5.8863   -1.9417   -1.5143 O   0  0  0  0  0  0  0  0  0  0  0  0
    5.0517   -4.0977   -0.8794 C   0  0  1  0  0  0  0  0  0  0  0  0
    6.1298   -4.0706    0.0338 O   0  0  0  0  0  0  0  0  0  0  0  0
    1.2653   -8.5951    3.7144 H   0  0  0  0  0  0  0  0  0  0  0  0
    0.4918   -8.1574    2.1982 H   0  0  0  0  0  0  0  0  0  0  0  0
    4.8091   -5.8818    4.1120 H   0  0  0  0  0  0  0  0  0  0  0  0
    1.3771   -4.9161   -1.2616 H   0  0  0  0  0  0  0  0  0  0  0  0
    3.8326   -2.7788    0.4608 H   0  0  0  0  0  0  0  0  0  0  0  0
    3.6050   -3.7657   -3.2160 H   0  0  0  0  0  0  0  0  0  0  0  0
    2.5164   -0.8714   -1.8838 H   0  0  0  0  0  0  0  0  0  0  0  0
    2.8827    0.2522   -3.1680 H   0  0  0  0  0  0  0  0  0  0  0  0
    5.9762   -3.5934   -2.7912 H   0  0  0  0  0  0  0  0  0  0  0  0
    5.2127   -1.4874   -1.0331 H   0  0  0  0  0  0  0  0  0  0  0  0
    4.8650   -5.1046   -1.2565 H   0  0  0  0  0  0  0  0  0  0  0  0
    6.1661   -3.2060    0.4070 H   0  0  0  0  0  0  0  0  0  0  0  0
  1  2  1  0
  1 22  1  0
  1 21  1  0
  2  3  2  0
  2  7  1  0
  3  4  1  0
  4 23  1  0
  4  5  2  0
  5  6  1  0
  6 10  1  0
  6  7  2  0
  7  8  1  0
  8  9  2  0
  9 24  1  0
  9 10  1  0
 10 11  1  0
 11 19  1  0
 11 12  1  0
 11 25  1  1
 12 13  1  0
 13 14  1  0
 13 17  1  0
 13 26  1  6
 14 15  1  0
 14 16  2  0
 15 27  1  0
 15 28  1  0
 17 18  1  0
 17 19  1  0
 17 29  1  6
 18 30  1  0
 19 20  1  0
 19 31  1  6
 20 32  1  0
M  END
>  <i_m_ct_stereo_status>  (177) 
1

>  <s_m_source_file>  (177) 
/var/tmp/pbs.5076255.sched01/tmpb5cfx69f/43pm4c6kpw.sdf

>  <i_m_source_file_index>  (177) 
29

>  <i_lp_mmshare_version>  (177) 
48012

>  <i_f3d_flags>  (177) 
0

>  <s_epik_input>  (177) 
bjFbY0hdW25IXVxjKD1OXFtIXSljKGMxMiluW2NIXW4yW0NAQEhdM09bQ0BASF0oQyg9TylbTkgyXSlbQ0BASF0oW09IXSlbQ0BIXTNbT0hd

>  <s_epik_cmdline>  (177) 
J2VwaWtfcHl0aG9uJywgJy1waHQnLCAnMi4wJywgJy1waCcsICc3LjAnLCAnLXRuJywgJzgnLCAnLW1hJywgJzIwMCcsICctaW1hZScsICc8aW5maWxlLm1hZT4nLCAnLW9tYWUnLCAnPG91dGZpbGUubWFlPic=

>  <r_lp_tautomer_probability>  (177) 
1

>  <r_epik_Ionization_Penalty>  (177) 
0.000541659

>  <r_epik_Ionization_Penalty_Charging>  (177) 
0

>  <r_epik_Ionization_Penalty_Neutral>  (177) 
0.000541659

>  <r_epik_State_Penalty>  (177) 
-0

>  <r_epik_Charging_Adjusted_Penalty>  (177) 
0

>  <i_epik_Tot_Q>  (177) 
0

>  <i_epik_Tot_abs_Q>  (177) 
0

>  <s_epik_Chemistry_Notes>  (177) 
This compound contains an acetal/aminal-like group ( X-CH(R)-Y where X, Y are N, S, or O) that may be acid/base labile, releasing an aldehyde.

>  <s_lp_Force_Field>  (177) 
OPLS3e

>  <r_lp_Energy>  (177) 
17.4049

>  <b_lp_Chiralities_Consistent>  (177) 
1

>  <s_lp_Variant>  (177) 
49:0-1

>  <s_i_glide_gridfile>  (177) 
pfpi4k_grid

>  <i_i_glide_lignum>  (177) 
29

>  <i_i_glide_rotatable_bonds>  (177) 
4

>  <r_i_docking_score>  (177) 
-5.55503

>  <r_i_glide_ligand_efficiency>  (177) 
-0.277751

>  <r_i_glide_ligand_efficiency_sa>  (177) 
-0.753933

>  <r_i_glide_ligand_efficiency_ln>  (177) 
-1.39024

>  <r_i_glide_gscore>  (177) 
-5.55503

>  <r_i_glide_lipo>  (177) 
-0.155532

>  <r_i_glide_hbond>  (177) 
-0.667752

>  <r_i_glide_metal>  (177) 
-0

>  <r_i_glide_rewards>  (177) 
-1.72032

>  <r_i_glide_evdw>  (177) 
-22.1748

>  <r_i_glide_ecoul>  (177) 
-12.9197

>  <r_i_glide_erotb>  (177) 
0.229921

>  <r_i_glide_esite>  (177) 
-0.194648

>  <r_i_glide_emodel>  (177) 
-47.1266

>  <r_i_glide_energy>  (177) 
-35.0945

>  <r_i_glide_einternal>  (177) 
1.29188

>  <r_i_glide_intrahb_reward>  (177) 
-0

>  <i_i_glide_confnum>  (177) 
4

>  <i_i_glide_posenum>  (177) 
21

>  <r_i_glide_eff_state_penalty>  (177) 
0

>  <ligand_id>  (177) 
49

>  <original_smiles>  (177) 
N=c1[nH]cnc2c1ncn2C1OC(C(N)=O)C(O)C1O

>  <smiles>  (177) 
[H]OC1([H])C([H])(C(=O)N([H])[H])OC([H])(n2c([H])nc3c(N([H])[H])nc([H])nc32)C1([H])O[H]

$$$$
49:0:1
     RDKit          3D

 32 34  0  0  1  0  0  0  0  0999 V2000
    1.2622   -7.8516    2.9049 N   0  0  0  0  0  0  0  0  0  0  0  0
    2.1961   -6.9428    2.6320 C   0  0  0  0  0  0  0  0  0  0  0  0
    3.2264   -6.7857    3.4966 N   0  0  0  0  0  0  0  0  0  0  0  0
    4.1522   -5.8521    3.2564 C   0  0  0  0  0  0  0  0  0  0  0  0
    4.2171   -5.0013    2.2280 N   0  0  0  0  0  0  0  0  0  0  0  0
    3.1918   -5.1838    1.3408 C   0  0  0  0  0  0  0  0  0  0  0  0
    2.1420   -6.1283    1.4819 C   0  0  0  0  0  0  0  0  0  0  0  0
    1.2593   -6.0177    0.4201 N   0  0  0  0  0  0  0  0  0  0  0  0
    1.8134   -5.1005   -0.3254 C   0  0  0  0  0  0  0  0  0  0  0  0
    2.9505   -4.5231    0.1575 N   0  0  0  0  0  0  0  0  0  0  0  0
    3.7655   -3.4361   -0.4481 C   0  0  2  0  0  0  0  0  0  0  0  0
    3.0806   -2.9169   -1.5462 O   0  0  0  0  0  0  0  0  0  0  0  0
    3.8992   -2.9153   -2.7249 C   0  0  1  0  0  0  0  0  0  0  0  0
    3.6987   -1.6167   -3.5313 C   0  0  0  0  0  0  0  0  0  0  0  0
    3.0118   -0.6513   -2.9353 N   0  0  0  0  0  0  0  0  0  0  0  0
    4.1869   -1.4551   -4.6478 O   0  0  0  0  0  0  0  0  0  0  0  0
    5.3275   -3.1100   -2.1882 C   0  0  1  0  0  0  0  0  0  0  0  0
    5.8953   -1.8824   -1.7216 O   0  0  0  0  0  0  0  0  0  0  0  0
    5.0669   -4.0156   -0.9916 C   0  0  1  0  0  0  0  0  0  0  0  0
    6.1395   -3.9295   -0.0691 O   0  0  0  0  0  0  0  0  0  0  0  0
    1.3532   -8.4494    3.7128 H   0  0  0  0  0  0  0  0  0  0  0  0
    0.5359   -8.0035    2.2209 H   0  0  0  0  0  0  0  0  0  0  0  0
    4.9575   -5.7829    3.9786 H   0  0  0  0  0  0  0  0  0  0  0  0
    1.3624   -4.7958   -1.2649 H   0  0  0  0  0  0  0  0  0  0  0  0
    3.8626   -2.6593    0.3128 H   0  0  0  0  0  0  0  0  0  0  0  0
    3.6097   -3.7740   -3.3439 H   0  0  0  0  0  0  0  0  0  0  0  0
    2.5581   -0.8398   -2.0431 H   0  0  0  0  0  0  0  0  0  0  0  0
    2.8812    0.2384   -3.3840 H   0  0  0  0  0  0  0  0  0  0  0  0
    5.9788   -3.5803   -2.9280 H   0  0  0  0  0  0  0  0  0  0  0  0
    5.2614   -1.4819   -1.1427 H   0  0  0  0  0  0  0  0  0  0  0  0
    4.8814   -5.0420   -1.3257 H   0  0  0  0  0  0  0  0  0  0  0  0
    6.9195   -4.2756   -0.4697 H   0  0  0  0  0  0  0  0  0  0  0  0
  1  2  1  0
  1 22  1  0
  1 21  1  0
  2  3  2  0
  2  7  1  0
  3  4  1  0
  4 23  1  0
  4  5  2  0
  5  6  1  0
  6 10  1  0
  6  7  2  0
  7  8  1  0
  8  9  2  0
  9 24  1  0
  9 10  1  0
 10 11  1  0
 11 19  1  0
 11 12  1  0
 11 25  1  1
 12 13  1  0
 13 14  1  0
 13 17  1  0
 13 26  1  6
 14 15  1  0
 14 16  2  0
 15 27  1  0
 15 28  1  0
 17 18  1  0
 17 19  1  0
 17 29  1  6
 18 30  1  0
 19 20  1  0
 19 31  1  6
 20 32  1  0
M  END
>  <i_m_ct_stereo_status>  (178) 
1

>  <s_m_source_file>  (178) 
/var/tmp/pbs.5076255.sched01/tmpb5cfx69f/43pm4c6kpw.sdf

>  <i_m_source_file_index>  (178) 
29

>  <i_lp_mmshare_version>  (178) 
48012

>  <i_f3d_flags>  (178) 
0

>  <s_epik_input>  (178) 
bjFbY0hdW25IXVxjKD1OXFtIXSljKGMxMiluW2NIXW4yW0NAQEhdM09bQ0BASF0oQyg9TylbTkgyXSlbQ0BASF0oW09IXSlbQ0BIXTNbT0hd

>  <s_epik_cmdline>  (178) 
J2VwaWtfcHl0aG9uJywgJy1waHQnLCAnMi4wJywgJy1waCcsICc3LjAnLCAnLXRuJywgJzgnLCAnLW1hJywgJzIwMCcsICctaW1hZScsICc8aW5maWxlLm1hZT4nLCAnLW9tYWUnLCAnPG91dGZpbGUubWFlPic=

>  <r_lp_tautomer_probability>  (178) 
1

>  <r_epik_Ionization_Penalty>  (178) 
0.000541659

>  <r_epik_Ionization_Penalty_Charging>  (178) 
0

>  <r_epik_Ionization_Penalty_Neutral>  (178) 
0.000541659

>  <r_epik_State_Penalty>  (178) 
-0

>  <r_epik_Charging_Adjusted_Penalty>  (178) 
0

>  <i_epik_Tot_Q>  (178) 
0

>  <i_epik_Tot_abs_Q>  (178) 
0

>  <s_epik_Chemistry_Notes>  (178) 
This compound contains an acetal/aminal-like group ( X-CH(R)-Y where X, Y are N, S, or O) that may be acid/base labile, releasing an aldehyde.

>  <s_lp_Force_Field>  (178) 
OPLS3e

>  <r_lp_Energy>  (178) 
17.4049

>  <b_lp_Chiralities_Consistent>  (178) 
1

>  <s_lp_Variant>  (178) 
49:0-1

>  <s_i_glide_gridfile>  (178) 
pfpi4k_grid

>  <i_i_glide_lignum>  (178) 
29

>  <i_i_glide_rotatable_bonds>  (178) 
4

>  <r_i_docking_score>  (178) 
-5.48878

>  <r_i_glide_ligand_efficiency>  (178) 
-0.274439

>  <r_i_glide_ligand_efficiency_sa>  (178) 
-0.744942

>  <r_i_glide_ligand_efficiency_ln>  (178) 
-1.37366

>  <r_i_glide_gscore>  (178) 
-5.48878

>  <r_i_glide_lipo>  (178) 
-0.164332

>  <r_i_glide_hbond>  (178) 
-0.585305

>  <r_i_glide_metal>  (178) 
-0

>  <r_i_glide_rewards>  (178) 
-1.8299

>  <r_i_glide_evdw>  (178) 
-21.8743

>  <r_i_glide_ecoul>  (178) 
-12.5118

>  <r_i_glide_erotb>  (178) 
0.229921

>  <r_i_glide_esite>  (178) 
-0.168677

>  <r_i_glide_emodel>  (178) 
-46.0846

>  <r_i_glide_energy>  (178) 
-34.3861

>  <r_i_glide_einternal>  (178) 
1.69083

>  <r_i_glide_intrahb_reward>  (178) 
-0

>  <i_i_glide_confnum>  (178) 
4

>  <i_i_glide_posenum>  (178) 
34

>  <r_i_glide_eff_state_penalty>  (178) 
0

>  <ligand_id>  (178) 
49

>  <original_smiles>  (178) 
N=c1[nH]cnc2c1ncn2C1OC(C(N)=O)C(O)C1O

>  <smiles>  (178) 
[H]OC1([H])C([H])(C(=O)N([H])[H])OC([H])(n2c([H])nc3c(N([H])[H])nc([H])nc32)C1([H])O[H]

$$$$
49:0:2
     RDKit          3D

 32 34  0  0  1  0  0  0  0  0999 V2000
    2.1052   -6.6751    4.1204 N   0  0  0  0  0  0  0  0  0  0  0  0
    2.6404   -6.2581    2.9713 C   0  0  0  0  0  0  0  0  0  0  0  0
    3.2605   -7.1595    2.1740 N   0  0  0  0  0  0  0  0  0  0  0  0
    3.8026   -6.7486    1.0220 C   0  0  0  0  0  0  0  0  0  0  0  0
    3.8142   -5.5173    0.4991 N   0  0  0  0  0  0  0  0  0  0  0  0
    3.1825   -4.6165    1.3037 C   0  0  0  0  0  0  0  0  0  0  0  0
    2.5760   -4.9067    2.5546 C   0  0  0  0  0  0  0  0  0  0  0  0
    2.0308   -3.7553    3.1043 N   0  0  0  0  0  0  0  0  0  0  0  0
    2.2897   -2.8290    2.2144 C   0  0  0  0  0  0  0  0  0  0  0  0
    2.9867   -3.2656    1.1113 N   0  0  0  0  0  0  0  0  0  0  0  0
    3.4350   -2.4574   -0.0479 C   0  0  2  0  0  0  0  0  0  0  0  0
    2.9262   -3.0243   -1.2138 O   0  0  0  0  0  0  0  0  0  0  0  0
    3.9674   -3.1250   -2.1786 C   0  0  1  0  0  0  0  0  0  0  0  0
    3.4625   -2.7375   -3.5732 C   0  0  0  0  0  0  0  0  0  0  0  0
    2.2155   -3.0567   -3.9140 N   0  0  0  0  0  0  0  0  0  0  0  0
    4.1983   -2.1384   -4.3418 O   0  0  0  0  0  0  0  0  0  0  0  0
    5.1352   -2.2695   -1.6423 C   0  0  1  0  0  0  0  0  0  0  0  0
    4.9985   -0.8877   -1.9521 O   0  0  0  0  0  0  0  0  0  0  0  0
    4.9628   -2.4535   -0.1478 C   0  0  1  0  0  0  0  0  0  0  0  0
    5.5766   -1.4079    0.5811 O   0  0  0  0  0  0  0  0  0  0  0  0
    2.1748   -7.6460    4.3833 H   0  0  0  0  0  0  0  0  0  0  0  0
    1.6634   -5.9912    4.7175 H   0  0  0  0  0  0  0  0  0  0  0  0
    4.2690   -7.5202    0.4231 H   0  0  0  0  0  0  0  0  0  0  0  0
    1.9872   -1.7969    2.3412 H   0  0  0  0  0  0  0  0  0  0  0  0
    2.9974   -1.4687    0.0804 H   0  0  0  0  0  0  0  0  0  0  0  0
    4.2718   -4.1707   -2.2062 H   0  0  0  0  0  0  0  0  0  0  0  0
    1.6206   -3.5830   -3.2859 H   0  0  0  0  0  0  0  0  0  0  0  0
    1.8579   -2.7726   -4.8179 H   0  0  0  0  0  0  0  0  0  0  0  0
    6.1017   -2.6319   -2.0014 H   0  0  0  0  0  0  0  0  0  0  0  0
    4.0994   -0.6334   -1.7953 H   0  0  0  0  0  0  0  0  0  0  0  0
    5.3773   -3.4139    0.1511 H   0  0  0  0  0  0  0  0  0  0  0  0
    5.3337   -1.4871    1.4901 H   0  0  0  0  0  0  0  0  0  0  0  0
  1  2  1  0
  1 22  1  0
  1 21  1  0
  2  3  2  0
  2  7  1  0
  3  4  1  0
  4 23  1  0
  4  5  2  0
  5  6  1  0
  6 10  1  0
  6  7  2  0
  7  8  1  0
  8  9  2  0
  9 24  1  0
  9 10  1  0
 10 11  1  0
 11 19  1  0
 11 12  1  0
 11 25  1  1
 12 13  1  0
 13 14  1  0
 13 17  1  0
 13 26  1  6
 14 15  1  0
 14 16  2  0
 15 27  1  0
 15 28  1  0
 17 18  1  0
 17 19  1  0
 17 29  1  6
 18 30  1  0
 19 20  1  0
 19 31  1  1
 20 32  1  0
M  END
>  <i_m_ct_stereo_status>  (179) 
1

>  <s_m_source_file>  (179) 
/var/tmp/pbs.5076255.sched01/tmpb5cfx69f/43pm4c6kpw.sdf

>  <i_m_source_file_index>  (179) 
29

>  <i_lp_mmshare_version>  (179) 
48012

>  <i_f3d_flags>  (179) 
0

>  <s_epik_input>  (179) 
bjFbY0hdW25IXVxjKD1OXFtIXSljKGMxMiluW2NIXW4yW0NAQEhdM09bQ0BASF0oQyg9TylbTkgyXSlbQ0BASF0oW09IXSlbQ0BIXTNbT0hd

>  <s_epik_cmdline>  (179) 
J2VwaWtfcHl0aG9uJywgJy1waHQnLCAnMi4wJywgJy1waCcsICc3LjAnLCAnLXRuJywgJzgnLCAnLW1hJywgJzIwMCcsICctaW1hZScsICc8aW5maWxlLm1hZT4nLCAnLW9tYWUnLCAnPG91dGZpbGUubWFlPic=

>  <r_lp_tautomer_probability>  (179) 
1

>  <r_epik_Ionization_Penalty>  (179) 
0.000541659

>  <r_epik_Ionization_Penalty_Charging>  (179) 
0

>  <r_epik_Ionization_Penalty_Neutral>  (179) 
0.000541659

>  <r_epik_State_Penalty>  (179) 
-0

>  <r_epik_Charging_Adjusted_Penalty>  (179) 
0

>  <i_epik_Tot_Q>  (179) 
0

>  <i_epik_Tot_abs_Q>  (179) 
0

>  <s_epik_Chemistry_Notes>  (179) 
This compound contains an acetal/aminal-like group ( X-CH(R)-Y where X, Y are N, S, or O) that may be acid/base labile, releasing an aldehyde.

>  <s_lp_Force_Field>  (179) 
OPLS3e

>  <r_lp_Energy>  (179) 
17.4049

>  <b_lp_Chiralities_Consistent>  (179) 
1

>  <s_lp_Variant>  (179) 
49:0-1

>  <s_i_glide_gridfile>  (179) 
pfpi4k_grid

>  <i_i_glide_lignum>  (179) 
29

>  <i_i_glide_rotatable_bonds>  (179) 
4

>  <r_i_docking_score>  (179) 
-5.03957

>  <r_i_glide_ligand_efficiency>  (179) 
-0.251979

>  <r_i_glide_ligand_efficiency_sa>  (179) 
-0.683975

>  <r_i_glide_ligand_efficiency_ln>  (179) 
-1.26124

>  <r_i_glide_gscore>  (179) 
-5.03957

>  <r_i_glide_lipo>  (179) 
0

>  <r_i_glide_hbond>  (179) 
-0.703524

>  <r_i_glide_metal>  (179) 
-0

>  <r_i_glide_rewards>  (179) 
-1.91192

>  <r_i_glide_evdw>  (179) 
-25.3236

>  <r_i_glide_ecoul>  (179) 
-8.83622

>  <r_i_glide_erotb>  (179) 
0.229921

>  <r_i_glide_esite>  (179) 
-0.0624358

>  <r_i_glide_emodel>  (179) 
-45.1748

>  <r_i_glide_energy>  (179) 
-34.1598

>  <r_i_glide_einternal>  (179) 
1.37345

>  <r_i_glide_intrahb_reward>  (179) 
-0

>  <i_i_glide_confnum>  (179) 
1

>  <i_i_glide_posenum>  (179) 
1

>  <r_i_glide_eff_state_penalty>  (179) 
0

>  <ligand_id>  (179) 
49

>  <original_smiles>  (179) 
N=c1[nH]cnc2c1ncn2C1OC(C(N)=O)C(O)C1O

>  <smiles>  (179) 
[H]OC1([H])C([H])(C(=O)N([H])[H])OC([H])(n2c([H])nc3c(N([H])[H])nc([H])nc32)C1([H])O[H]

$$$$
50:0:0
     RDKit          3D

 53 57  0  0  1  0  0  0  0  0999 V2000
    3.4290   -0.6147   -4.6222 C   0  0  0  0  0  0  0  0  0  0  0  0
    3.4223   -0.6447   -3.0977 C   0  0  2  0  0  0  0  0  0  0  0  0
    4.6142   -0.0127   -2.7217 O   0  0  0  0  0  0  0  0  0  0  0  0
    3.4614   -2.0458   -2.4780 C   0  0  0  0  0  0  0  0  0  0  0  0
    3.4121   -1.9758   -0.9966 N   0  0  0  0  0  0  0  0  0  0  0  0
    3.8357   -3.2145   -0.2933 C   0  0  2  0  0  0  0  0  0  0  0  0
    2.6528   -4.1750   -0.1303 C   0  0  0  0  0  0  0  0  0  0  0  0
    3.0653   -5.4735    0.5930 C   0  0  0  0  0  0  0  0  0  0  0  0
    3.6093   -5.1919    2.0064 C   0  0  1  0  0  0  0  0  0  0  0  0
    2.4740   -4.7360    2.7278 O   0  0  0  0  0  0  0  0  0  0  0  0
    4.1860   -6.4351    2.7390 C   0  0  2  0  0  0  0  0  0  0  0  0
    4.5534   -6.1007    4.2108 C   0  0  0  0  0  0  0  0  0  0  0  0
    5.4978   -4.8924    4.3363 C   0  0  0  0  0  0  0  0  0  0  0  0
    5.0393   -3.7091    3.4593 C   0  0  0  0  0  0  0  0  0  0  0  0
    4.7355   -4.1350    1.9904 C   0  0  1  0  0  0  0  0  0  0  0  0
    5.9976   -4.6906    1.4010 C   0  0  0  0  0  0  0  0  0  0  0  0
    6.4350   -6.0247    1.4601 C   0  0  0  0  0  0  0  0  0  0  0  0
    7.7188   -6.2818    0.9303 C   0  0  0  0  0  0  0  0  0  0  0  0
    8.4621   -5.2089    0.3637 C   0  0  0  0  0  0  0  0  0  0  0  0
    7.9194   -3.8924    0.2665 C   0  0  0  0  0  0  0  0  0  0  0  0
    8.5889   -2.8861   -0.3773 O   0  0  0  0  0  0  0  0  0  0  0  0
    6.6404   -3.6290    0.7942 C   0  0  0  0  0  0  0  0  0  0  0  0
    5.8804   -2.4845    0.7429 O   0  0  0  0  0  0  0  0  0  0  0  0
    4.5299   -2.8845    1.0652 C   0  0  1  0  0  0  0  0  0  0  0  0
    5.4203   -7.0259    2.0111 C   0  0  0  0  0  0  0  0  0  0  0  0
    2.5233   -1.0687   -4.9687 H   0  0  0  0  0  0  0  0  0  0  0  0
    4.2900   -1.1291   -5.0488 H   0  0  0  0  0  0  0  0  0  0  0  0
    3.4153    0.4018   -5.0191 H   0  0  0  0  0  0  0  0  0  0  0  0
    2.5569   -0.0732   -2.7386 H   0  0  0  0  0  0  0  0  0  0  0  0
    4.4821    0.4985   -1.9285 H   0  0  0  0  0  0  0  0  0  0  0  0
    2.6232   -2.6251   -2.8391 H   0  0  0  0  0  0  0  0  0  0  0  0
    4.3724   -2.5325   -2.8160 H   0  0  0  0  0  0  0  0  0  0  0  0
    4.0569   -1.2504   -0.7102 H   0  0  0  0  0  0  0  0  0  0  0  0
    4.5620   -3.7196   -0.9260 H   0  0  0  0  0  0  0  0  0  0  0  0
    1.8430   -3.6702    0.3983 H   0  0  0  0  0  0  0  0  0  0  0  0
    2.2625   -4.4505   -1.1115 H   0  0  0  0  0  0  0  0  0  0  0  0
    2.1960   -6.1268    0.6649 H   0  0  0  0  0  0  0  0  0  0  0  0
    3.7987   -6.0081   -0.0156 H   0  0  0  0  0  0  0  0  0  0  0  0
    2.2171   -3.8895    2.4003 H   0  0  0  0  0  0  0  0  0  0  0  0
    3.4233   -7.2105    2.7864 H   0  0  0  0  0  0  0  0  0  0  0  0
    3.6494   -5.8982    4.7829 H   0  0  0  0  0  0  0  0  0  0  0  0
    5.0128   -6.9660    4.6932 H   0  0  0  0  0  0  0  0  0  0  0  0
    5.5719   -4.5820    5.3777 H   0  0  0  0  0  0  0  0  0  0  0  0
    6.5099   -5.1832    4.0557 H   0  0  0  0  0  0  0  0  0  0  0  0
    4.1612   -3.2512    3.9107 H   0  0  0  0  0  0  0  0  0  0  0  0
    5.8080   -2.9388    3.4791 H   0  0  0  0  0  0  0  0  0  0  0  0
    8.1250   -7.2887    0.9197 H   0  0  0  0  0  0  0  0  0  0  0  0
    9.4174   -5.4376   -0.0604 H   0  0  0  0  0  0  0  0  0  0  0  0
    9.3159   -3.1341   -0.9355 H   0  0  0  0  0  0  0  0  0  0  0  0
    3.9850   -2.0987    1.5928 H   0  0  0  0  0  0  0  0  0  0  0  0
    5.9370   -7.7272    2.6645 H   0  0  0  0  0  0  0  0  0  0  0  0
    5.0648   -7.6172    1.1684 H   0  0  0  0  0  0  0  0  0  0  0  0
    2.4689   -1.6992   -0.7342 H   0  0  0  0  0  0  0  0  0  0  0  0
  1  2  1  0
  1 26  1  0
  1 27  1  0
  1 28  1  0
  2  3  1  0
  2  4  1  0
  2 29  1  1
  3 30  1  0
  4  5  1  0
  4 31  1  0
  4 32  1  0
  5  6  1  0
  5 33  1  0
  5 53  1  0
  6 24  1  0
  6  7  1  0
  6 34  1  6
  7  8  1  0
  7 35  1  0
  7 36  1  0
  8  9  1  0
  8 37  1  0
  8 38  1  0
  9 15  1  0
  9 10  1  1
  9 11  1  0
 10 39  1  0
 11 25  1  0
 11 12  1  0
 11 40  1  1
 12 13  1  0
 12 41  1  0
 12 42  1  0
 13 14  1  0
 13 43  1  0
 13 44  1  0
 15 14  1  1
 14 45  1  0
 14 46  1  0
 15 24  1  0
 15 16  1  0
 16 22  1  0
 16 17  2  0
 17 18  1  0
 17 25  1  0
 18 19  2  0
 18 47  1  0
 19 20  1  0
 19 48  1  0
 20 21  1  0
 20 22  2  0
 21 49  1  0
 22 23  1  0
 23 24  1  0
 24 50  1  1
 25 51  1  0
 25 52  1  0
M  CHG  1   5   1
M  END
>  <i_m_ct_stereo_status>  (180) 
1

>  <s_m_source_file>  (180) 
/var/tmp/pbs.5076255.sched01/tmpb5cfx69f/43pm4c6kpw.sdf

>  <i_m_source_file_index>  (180) 
30

>  <i_lp_mmshare_version>  (180) 
48012

>  <i_f3d_flags>  (180) 
0

>  <s_epik_input>  (180) 
W0NIM11bQ0BIXShbT0hdKVtDSDJdW05IXVtDQEhdKFtDSDJdW0NIMl0xKVtDQEBIXTJPYyhjKFtPSF0pW2NIXVtjSF0zKWM0YzNbQ0gyXVtDQEhdKFtDQF0xKFtDQF0yNDUpW09IXSlbQ0gyXVtDSDJdW0NIMl01

>  <s_epik_cmdline>  (180) 
J2VwaWtfcHl0aG9uJywgJy1waHQnLCAnMi4wJywgJy1waCcsICc3LjAnLCAnLXRuJywgJzgnLCAnLW1hJywgJzIwMCcsICctaW1hZScsICc8aW5maWxlLm1hZT4nLCAnLW9tYWUnLCAnPG91dGZpbGUubWFlPic=

>  <r_lp_tautomer_probability>  (180) 
1

>  <r_epik_Ionization_Penalty>  (180) 
0.0232242

>  <r_epik_Ionization_Penalty_Charging>  (180) 
0.0209579

>  <r_epik_Ionization_Penalty_Neutral>  (180) 
0.00226637

>  <r_epik_State_Penalty>  (180) 
0.0168279

>  <r_epik_Charging_Adjusted_Penalty>  (180) 
0.0377858

>  <i_epik_Tot_Q>  (180) 
1

>  <i_epik_Tot_abs_Q>  (180) 
1

>  <s_lp_Force_Field>  (180) 
OPLS3e

>  <r_lp_Energy>  (180) 
58.6427

>  <b_lp_Chiralities_Consistent>  (180) 
1

>  <s_lp_Variant>  (180) 
50:0-1

>  <s_i_glide_gridfile>  (180) 
pfpi4k_grid

>  <i_i_glide_lignum>  (180) 
30

>  <i_i_glide_rotatable_bonds>  (180) 
6

>  <r_i_docking_score>  (180) 
-4.43975

>  <r_i_glide_ligand_efficiency>  (180) 
-0.17759

>  <r_i_glide_ligand_efficiency_sa>  (180) 
-0.519276

>  <r_i_glide_ligand_efficiency_ln>  (180) 
-1.05235

>  <r_i_glide_gscore>  (180) 
-4.43975

>  <r_i_glide_lipo>  (180) 
-0.884788

>  <r_i_glide_hbond>  (180) 
-0.4001

>  <r_i_glide_metal>  (180) 
-0

>  <r_i_glide_rewards>  (180) 
-1.047

>  <r_i_glide_evdw>  (180) 
-23.8075

>  <r_i_glide_ecoul>  (180) 
-8.73122

>  <r_i_glide_erotb>  (180) 
0.47522

>  <r_i_glide_esite>  (180) 
-0.0830256

>  <r_i_glide_emodel>  (180) 
-42.3334

>  <r_i_glide_energy>  (180) 
-32.5387

>  <r_i_glide_einternal>  (180) 
2.15788

>  <r_i_glide_intrahb_reward>  (180) 
-0

>  <i_i_glide_confnum>  (180) 
1

>  <i_i_glide_posenum>  (180) 
7

>  <r_i_glide_eff_state_penalty>  (180) 
0

>  <ligand_id>  (180) 
50

>  <original_smiles>  (180) 
CC(O)CNC1CCC2(O)C3CCCC24c2c(ccc(O)c2OC14)C3

>  <smiles>  (180) 
[H]Oc1c([H])c([H])c2c3c1OC1([H])C34C([H])([H])C([H])([H])C([H])([H])C([H])(C2([H])[H])C4(O[H])C([H])([H])C([H])([H])C1([H])[N+]([H])([H])C([H])([H])C([H])(O[H])C([H])([H])[H]

$$$$
50:0:1
     RDKit          3D

 53 57  0  0  1  0  0  0  0  0999 V2000
    3.7728   -2.5797    0.0928 C   0  0  0  0  0  0  0  0  0  0  0  0
    3.8070   -1.0518   -0.0595 C   0  0  2  0  0  0  0  0  0  0  0  0
    5.0934   -0.6609   -0.5169 O   0  0  0  0  0  0  0  0  0  0  0  0
    3.5144   -0.3198    1.2724 C   0  0  0  0  0  0  0  0  0  0  0  0
    2.0959   -0.4513    1.6781 N   0  0  0  0  0  0  0  0  0  0  0  0
    1.7732    0.0710    3.0339 C   0  0  2  0  0  0  0  0  0  0  0  0
    1.7074   -1.0733    4.0593 C   0  0  0  0  0  0  0  0  0  0  0  0
    1.3553   -0.5592    5.4745 C   0  0  0  0  0  0  0  0  0  0  0  0
   -0.0110    0.1596    5.5085 C   0  0  1  0  0  0  0  0  0  0  0  0
   -0.9590   -0.8758    5.2928 O   0  0  0  0  0  0  0  0  0  0  0  0
   -0.3506    0.8540    6.8590 C   0  0  2  0  0  0  0  0  0  0  0  0
   -1.8038    1.4059    6.8569 C   0  0  0  0  0  0  0  0  0  0  0  0
   -2.0877    2.3459    5.6706 C   0  0  0  0  0  0  0  0  0  0  0  0
   -1.5836    1.7506    4.3410 C   0  0  0  0  0  0  0  0  0  0  0  0
   -0.1072    1.2554    4.4226 C   0  0  1  0  0  0  0  0  0  0  0  0
    0.7545    2.4349    4.7632 C   0  0  0  0  0  0  0  0  0  0  0  0
    1.0661    2.9050    6.0493 C   0  0  0  0  0  0  0  0  0  0  0  0
    1.8047    4.1064    6.1057 C   0  0  0  0  0  0  0  0  0  0  0  0
    2.1757    4.7541    4.8971 C   0  0  0  0  0  0  0  0  0  0  0  0
    1.8554    4.1952    3.6312 C   0  0  0  0  0  0  0  0  0  0  0  0
    2.2060    4.8284    2.4755 O   0  0  0  0  0  0  0  0  0  0  0  0
    1.1602    2.9682    3.5622 C   0  0  0  0  0  0  0  0  0  0  0  0
    0.8452    2.1939    2.4774 O   0  0  0  0  0  0  0  0  0  0  0  0
    0.4631    0.9104    3.0015 C   0  0  1  0  0  0  0  0  0  0  0  0
    0.6404    1.9977    7.2007 C   0  0  0  0  0  0  0  0  0  0  0  0
    2.8004   -2.9183    0.4484 H   0  0  0  0  0  0  0  0  0  0  0  0
    4.5292   -2.9215    0.7984 H   0  0  0  0  0  0  0  0  0  0  0  0
    3.9569   -3.0762   -0.8609 H   0  0  0  0  0  0  0  0  0  0  0  0
    3.0749   -0.7562   -0.8200 H   0  0  0  0  0  0  0  0  0  0  0  0
    5.0879    0.2701   -0.7115 H   0  0  0  0  0  0  0  0  0  0  0  0
    4.1810   -0.7027    2.0469 H   0  0  0  0  0  0  0  0  0  0  0  0
    3.7411    0.7421    1.1627 H   0  0  0  0  0  0  0  0  0  0  0  0
    1.5304    0.0183    0.9813 H   0  0  0  0  0  0  0  0  0  0  0  0
    2.5942    0.7173    3.3456 H   0  0  0  0  0  0  0  0  0  0  0  0
    0.9881   -1.8326    3.7425 H   0  0  0  0  0  0  0  0  0  0  0  0
    2.6757   -1.5758    4.1165 H   0  0  0  0  0  0  0  0  0  0  0  0
    1.3427   -1.4002    6.1702 H   0  0  0  0  0  0  0  0  0  0  0  0
    2.1514    0.1019    5.8224 H   0  0  0  0  0  0  0  0  0  0  0  0
   -0.7895   -1.2605    4.4471 H   0  0  0  0  0  0  0  0  0  0  0  0
   -0.2981    0.1212    7.6633 H   0  0  0  0  0  0  0  0  0  0  0  0
   -2.5147    0.5818    6.8212 H   0  0  0  0  0  0  0  0  0  0  0  0
   -2.0141    1.9330    7.7899 H   0  0  0  0  0  0  0  0  0  0  0  0
   -3.1547    2.5490    5.6095 H   0  0  0  0  0  0  0  0  0  0  0  0
   -1.6280    3.3189    5.8359 H   0  0  0  0  0  0  0  0  0  0  0  0
   -2.2295    0.9194    4.0706 H   0  0  0  0  0  0  0  0  0  0  0  0
   -1.7064    2.4863    3.5462 H   0  0  0  0  0  0  0  0  0  0  0  0
    2.0804    4.5291    7.0628 H   0  0  0  0  0  0  0  0  0  0  0  0
    2.7148    5.6873    4.9421 H   0  0  0  0  0  0  0  0  0  0  0  0
    1.6030    4.6044    1.7605 H   0  0  0  0  0  0  0  0  0  0  0  0
   -0.2930    0.4251    2.3791 H   0  0  0  0  0  0  0  0  0  0  0  0
    0.2434    2.6103    8.0084 H   0  0  0  0  0  0  0  0  0  0  0  0
    1.5500    1.5499    7.5957 H   0  0  0  0  0  0  0  0  0  0  0  0
    1.8567   -1.4304    1.6410 H   0  0  0  0  0  0  0  0  0  0  0  0
  1  2  1  0
  1 26  1  0
  1 27  1  0
  1 28  1  0
  2  3  1  0
  2  4  1  0
  2 29  1  6
  3 30  1  0
  4  5  1  0
  4 31  1  0
  4 32  1  0
  5  6  1  0
  5 33  1  0
  5 53  1  0
  6 24  1  0
  6  7  1  0
  6 34  1  1
  7  8  1  0
  7 35  1  0
  7 36  1  0
  8  9  1  0
  8 37  1  0
  8 38  1  0
  9 15  1  0
  9 10  1  6
  9 11  1  0
 10 39  1  0
 11 25  1  0
 11 12  1  0
 11 40  1  1
 12 13  1  0
 12 41  1  0
 12 42  1  0
 13 14  1  0
 13 43  1  0
 13 44  1  0
 15 14  1  6
 14 45  1  0
 14 46  1  0
 15 24  1  0
 15 16  1  0
 16 22  1  0
 16 17  2  0
 17 18  1  0
 17 25  1  0
 18 19  2  0
 18 47  1  0
 19 20  1  0
 19 48  1  0
 20 21  1  0
 20 22  2  0
 21 49  1  0
 22 23  1  0
 23 24  1  0
 24 50  1  6
 25 51  1  0
 25 52  1  0
M  CHG  1   5   1
M  END
>  <i_m_ct_stereo_status>  (181) 
1

>  <s_m_source_file>  (181) 
/var/tmp/pbs.5076255.sched01/tmpb5cfx69f/43pm4c6kpw.sdf

>  <i_m_source_file_index>  (181) 
30

>  <i_lp_mmshare_version>  (181) 
48012

>  <i_f3d_flags>  (181) 
0

>  <s_epik_input>  (181) 
W0NIM11bQ0BIXShbT0hdKVtDSDJdW05IXVtDQEhdKFtDSDJdW0NIMl0xKVtDQEBIXTJPYyhjKFtPSF0pW2NIXVtjSF0zKWM0YzNbQ0gyXVtDQEhdKFtDQF0xKFtDQF0yNDUpW09IXSlbQ0gyXVtDSDJdW0NIMl01

>  <s_epik_cmdline>  (181) 
J2VwaWtfcHl0aG9uJywgJy1waHQnLCAnMi4wJywgJy1waCcsICc3LjAnLCAnLXRuJywgJzgnLCAnLW1hJywgJzIwMCcsICctaW1hZScsICc8aW5maWxlLm1hZT4nLCAnLW9tYWUnLCAnPG91dGZpbGUubWFlPic=

>  <r_lp_tautomer_probability>  (181) 
1

>  <r_epik_Ionization_Penalty>  (181) 
0.0232242

>  <r_epik_Ionization_Penalty_Charging>  (181) 
0.0209579

>  <r_epik_Ionization_Penalty_Neutral>  (181) 
0.00226637

>  <r_epik_State_Penalty>  (181) 
0.0168279

>  <r_epik_Charging_Adjusted_Penalty>  (181) 
0.0377858

>  <i_epik_Tot_Q>  (181) 
1

>  <i_epik_Tot_abs_Q>  (181) 
1

>  <s_lp_Force_Field>  (181) 
OPLS3e

>  <r_lp_Energy>  (181) 
58.6427

>  <b_lp_Chiralities_Consistent>  (181) 
1

>  <s_lp_Variant>  (181) 
50:0-1

>  <s_i_glide_gridfile>  (181) 
pfpi4k_grid

>  <i_i_glide_lignum>  (181) 
30

>  <i_i_glide_rotatable_bonds>  (181) 
6

>  <r_i_docking_score>  (181) 
-4.05535

>  <r_i_glide_ligand_efficiency>  (181) 
-0.162214

>  <r_i_glide_ligand_efficiency_sa>  (181) 
-0.474317

>  <r_i_glide_ligand_efficiency_ln>  (181) 
-0.961241

>  <r_i_glide_gscore>  (181) 
-4.05535

>  <r_i_glide_lipo>  (181) 
-0.0235559

>  <r_i_glide_hbond>  (181) 
-0.367974

>  <r_i_glide_metal>  (181) 
-0

>  <r_i_glide_rewards>  (181) 
-1.047

>  <r_i_glide_evdw>  (181) 
-23.0067

>  <r_i_glide_ecoul>  (181) 
-12.4136

>  <r_i_glide_erotb>  (181) 
0.47522

>  <r_i_glide_esite>  (181) 
-0.0796756

>  <r_i_glide_emodel>  (181) 
-44.2151

>  <r_i_glide_energy>  (181) 
-35.4203

>  <r_i_glide_einternal>  (181) 
2.54967

>  <r_i_glide_intrahb_reward>  (181) 
-0

>  <i_i_glide_confnum>  (181) 
2

>  <i_i_glide_posenum>  (181) 
39

>  <r_i_glide_eff_state_penalty>  (181) 
0

>  <ligand_id>  (181) 
50

>  <original_smiles>  (181) 
CC(O)CNC1CCC2(O)C3CCCC24c2c(ccc(O)c2OC14)C3

>  <smiles>  (181) 
[H]Oc1c([H])c([H])c2c3c1OC1([H])C34C([H])([H])C([H])([H])C([H])([H])C([H])(C2([H])[H])C4(O[H])C([H])([H])C([H])([H])C1([H])[N+]([H])([H])C([H])([H])C([H])(O[H])C([H])([H])[H]

$$$$
50:0:2
     RDKit          3D

 53 57  0  0  1  0  0  0  0  0999 V2000
    4.0132   -2.5959   -0.3772 C   0  0  0  0  0  0  0  0  0  0  0  0
    4.0222   -1.0624   -0.4261 C   0  0  2  0  0  0  0  0  0  0  0  0
    5.3122   -0.6633   -0.8498 O   0  0  0  0  0  0  0  0  0  0  0  0
    3.7128   -0.4185    0.9467 C   0  0  0  0  0  0  0  0  0  0  0  0
    2.3002   -0.6382    1.3440 N   0  0  0  0  0  0  0  0  0  0  0  0
    1.9338   -0.1532    2.7007 C   0  0  2  0  0  0  0  0  0  0  0  0
    1.6620   -1.3389    3.6452 C   0  0  0  0  0  0  0  0  0  0  0  0
    1.2608   -0.8676    5.0639 C   0  0  0  0  0  0  0  0  0  0  0  0
   -0.0167    0.0007    5.0428 C   0  0  1  0  0  0  0  0  0  0  0  0
   -1.0469   -0.9138    4.7006 O   0  0  0  0  0  0  0  0  0  0  0  0
   -0.3823    0.6551    6.4069 C   0  0  2  0  0  0  0  0  0  0  0  0
   -1.7634    1.3647    6.3376 C   0  0  0  0  0  0  0  0  0  0  0  0
   -1.8576    2.3888    5.1885 C   0  0  0  0  0  0  0  0  0  0  0  0
   -1.3172    1.8173    3.8612 C   0  0  0  0  0  0  0  0  0  0  0  0
    0.0903    1.1601    4.0197 C   0  0  1  0  0  0  0  0  0  0  0  0
    1.0452    2.2133    4.4952 C   0  0  0  0  0  0  0  0  0  0  0  0
    1.3090    2.5707    5.8275 C   0  0  0  0  0  0  0  0  0  0  0  0
    2.1619    3.6776    6.0121 C   0  0  0  0  0  0  0  0  0  0  0  0
    2.6975    4.3481    4.8814 C   0  0  0  0  0  0  0  0  0  0  0  0
    2.4360    3.8880    3.5620 C   0  0  0  0  0  0  0  0  0  0  0  0
    3.0014    4.5163    2.4930 O   0  0  0  0  0  0  0  0  0  0  0  0
    1.6106    2.7682    3.3629 C   0  0  0  0  0  0  0  0  0  0  0  0
    1.2975    2.0917    2.2076 O   0  0  0  0  0  0  0  0  0  0  0  0
    0.7320    0.8341    2.6236 C   0  0  1  0  0  0  0  0  0  0  0  0
    0.6994    1.6566    6.8903 C   0  0  0  0  0  0  0  0  0  0  0  0
    3.0419   -2.9766   -0.0623 H   0  0  0  0  0  0  0  0  0  0  0  0
    4.7671   -2.9717    0.3143 H   0  0  0  0  0  0  0  0  0  0  0  0
    4.2252   -3.0216   -1.3602 H   0  0  0  0  0  0  0  0  0  0  0  0
    3.3013   -0.7218   -1.1788 H   0  0  0  0  0  0  0  0  0  0  0  0
    5.3134    0.2888   -0.9633 H   0  0  0  0  0  0  0  0  0  0  0  0
    4.3870   -0.8264    1.7004 H   0  0  0  0  0  0  0  0  0  0  0  0
    3.8958    0.6543    0.9020 H   0  0  0  0  0  0  0  0  0  0  0  0
    1.6916   -0.2281    0.6399 H   0  0  0  0  0  0  0  0  0  0  0  0
    2.7931    0.3696    3.1213 H   0  0  0  0  0  0  0  0  0  0  0  0
    0.8911   -1.9944    3.2329 H   0  0  0  0  0  0  0  0  0  0  0  0
    2.5614   -1.9534    3.7367 H   0  0  0  0  0  0  0  0  0  0  0  0
    1.1046   -1.7387    5.7050 H   0  0  0  0  0  0  0  0  0  0  0  0
    2.0963   -0.3221    5.5070 H   0  0  0  0  0  0  0  0  0  0  0  0
   -0.8423   -1.2812    3.8551 H   0  0  0  0  0  0  0  0  0  0  0  0
   -0.4704   -0.1192    7.1666 H   0  0  0  0  0  0  0  0  0  0  0  0
   -2.5516    0.6239    6.2117 H   0  0  0  0  0  0  0  0  0  0  0  0
   -1.9836    1.8668    7.2822 H   0  0  0  0  0  0  0  0  0  0  0  0
   -2.8918    2.7082    5.0601 H   0  0  0  0  0  0  0  0  0  0  0  0
   -1.3077    3.2939    5.4454 H   0  0  0  0  0  0  0  0  0  0  0  0
   -2.0310    1.0893    3.4790 H   0  0  0  0  0  0  0  0  0  0  0  0
   -1.2882    2.6099    3.1137 H   0  0  0  0  0  0  0  0  0  0  0  0
    2.4106    4.0089    7.0098 H   0  0  0  0  0  0  0  0  0  0  0  0
    3.3344    5.2034    5.0340 H   0  0  0  0  0  0  0  0  0  0  0  0
    3.5347    5.2605    2.7181 H   0  0  0  0  0  0  0  0  0  0  0  0
   -0.0215    0.4678    1.9224 H   0  0  0  0  0  0  0  0  0  0  0  0
    0.3149    2.2714    7.7034 H   0  0  0  0  0  0  0  0  0  0  0  0
    1.5241    1.0905    7.3194 H   0  0  0  0  0  0  0  0  0  0  0  0
    2.1317   -1.6290    1.3109 H   0  0  0  0  0  0  0  0  0  0  0  0
  1  2  1  0
  1 26  1  0
  1 27  1  0
  1 28  1  0
  2  3  1  0
  2  4  1  0
  2 29  1  6
  3 30  1  0
  4  5  1  0
  4 31  1  0
  4 32  1  0
  5  6  1  0
  5 33  1  0
  5 53  1  0
  6 24  1  0
  6  7  1  0
  6 34  1  1
  7  8  1  0
  7 35  1  0
  7 36  1  0
  8  9  1  0
  8 37  1  0
  8 38  1  0
  9 15  1  0
  9 10  1  6
  9 11  1  0
 10 39  1  0
 11 25  1  0
 11 12  1  0
 11 40  1  1
 12 13  1  0
 12 41  1  0
 12 42  1  0
 13 14  1  0
 13 43  1  0
 13 44  1  0
 15 14  1  6
 14 45  1  0
 14 46  1  0
 15 24  1  0
 15 16  1  0
 16 22  1  0
 16 17  2  0
 17 18  1  0
 17 25  1  0
 18 19  2  0
 18 47  1  0
 19 20  1  0
 19 48  1  0
 20 21  1  0
 20 22  2  0
 21 49  1  0
 22 23  1  0
 23 24  1  0
 24 50  1  6
 25 51  1  0
 25 52  1  0
M  CHG  1   5   1
M  END
>  <i_m_ct_stereo_status>  (182) 
1

>  <s_m_source_file>  (182) 
/var/tmp/pbs.5076255.sched01/tmpb5cfx69f/43pm4c6kpw.sdf

>  <i_m_source_file_index>  (182) 
30

>  <i_lp_mmshare_version>  (182) 
48012

>  <i_f3d_flags>  (182) 
0

>  <s_epik_input>  (182) 
W0NIM11bQ0BIXShbT0hdKVtDSDJdW05IXVtDQEhdKFtDSDJdW0NIMl0xKVtDQEBIXTJPYyhjKFtPSF0pW2NIXVtjSF0zKWM0YzNbQ0gyXVtDQEhdKFtDQF0xKFtDQF0yNDUpW09IXSlbQ0gyXVtDSDJdW0NIMl01

>  <s_epik_cmdline>  (182) 
J2VwaWtfcHl0aG9uJywgJy1waHQnLCAnMi4wJywgJy1waCcsICc3LjAnLCAnLXRuJywgJzgnLCAnLW1hJywgJzIwMCcsICctaW1hZScsICc8aW5maWxlLm1hZT4nLCAnLW9tYWUnLCAnPG91dGZpbGUubWFlPic=

>  <r_lp_tautomer_probability>  (182) 
1

>  <r_epik_Ionization_Penalty>  (182) 
0.0232242

>  <r_epik_Ionization_Penalty_Charging>  (182) 
0.0209579

>  <r_epik_Ionization_Penalty_Neutral>  (182) 
0.00226637

>  <r_epik_State_Penalty>  (182) 
0.0168279

>  <r_epik_Charging_Adjusted_Penalty>  (182) 
0.0377858

>  <i_epik_Tot_Q>  (182) 
1

>  <i_epik_Tot_abs_Q>  (182) 
1

>  <s_lp_Force_Field>  (182) 
OPLS3e

>  <r_lp_Energy>  (182) 
58.6427

>  <b_lp_Chiralities_Consistent>  (182) 
1

>  <s_lp_Variant>  (182) 
50:0-1

>  <s_i_glide_gridfile>  (182) 
pfpi4k_grid

>  <i_i_glide_lignum>  (182) 
30

>  <i_i_glide_rotatable_bonds>  (182) 
6

>  <r_i_docking_score>  (182) 
-3.86872

>  <r_i_glide_ligand_efficiency>  (182) 
-0.154749

>  <r_i_glide_ligand_efficiency_sa>  (182) 
-0.452488

>  <r_i_glide_ligand_efficiency_ln>  (182) 
-0.917003

>  <r_i_glide_gscore>  (182) 
-3.86872

>  <r_i_glide_lipo>  (182) 
-0.00443122

>  <r_i_glide_hbond>  (182) 
-0.45259

>  <r_i_glide_metal>  (182) 
-0

>  <r_i_glide_rewards>  (182) 
-1.047

>  <r_i_glide_evdw>  (182) 
-24.1762

>  <r_i_glide_ecoul>  (182) 
-10.2899

>  <r_i_glide_erotb>  (182) 
0.47522

>  <r_i_glide_esite>  (182) 
-0.08763

>  <r_i_glide_emodel>  (182) 
-43.3744

>  <r_i_glide_energy>  (182) 
-34.4661

>  <r_i_glide_einternal>  (182) 
1.84559

>  <r_i_glide_intrahb_reward>  (182) 
-0

>  <i_i_glide_confnum>  (182) 
2

>  <i_i_glide_posenum>  (182) 
31

>  <r_i_glide_eff_state_penalty>  (182) 
0

>  <ligand_id>  (182) 
50

>  <original_smiles>  (182) 
CC(O)CNC1CCC2(O)C3CCCC24c2c(ccc(O)c2OC14)C3

>  <smiles>  (182) 
[H]Oc1c([H])c([H])c2c3c1OC1([H])C34C([H])([H])C([H])([H])C([H])([H])C([H])(C2([H])[H])C4(O[H])C([H])([H])C([H])([H])C1([H])[N+]([H])([H])C([H])([H])C([H])(O[H])C([H])([H])[H]

$$$$
50:1:0
     RDKit          3D

 52 56  0  0  1  0  0  0  0  0999 V2000
   -0.3081    1.4334    1.7312 C   0  0  0  0  0  0  0  0  0  0  0  0
    1.0143    1.5686    2.4734 C   0  0  2  0  0  0  0  0  0  0  0  0
    1.4103    2.9347    2.4792 O   0  0  0  0  0  0  0  0  0  0  0  0
    2.1242    0.7508    1.8161 C   0  0  0  0  0  0  0  0  0  0  0  0
    2.1370   -0.6547    2.2705 N   0  0  0  0  0  0  0  0  0  0  0  0
    3.2824   -1.5054    1.8654 C   0  0  2  0  0  0  0  0  0  0  0  0
    4.6304   -0.8322    2.2131 C   0  0  0  0  0  0  0  0  0  0  0  0
    5.8281   -1.6968    1.8392 C   0  0  0  0  0  0  0  0  0  0  0  0
    5.8270   -1.9733    0.3218 C   0  0  1  0  0  0  0  0  0  0  0  0
    6.0599   -0.7255   -0.3025 O   0  0  0  0  0  0  0  0  0  0  0  0
    6.9728   -2.9235   -0.1154 C   0  0  2  0  0  0  0  0  0  0  0  0
    7.0377   -3.0729   -1.6605 C   0  0  0  0  0  0  0  0  0  0  0  0
    5.6877   -3.4799   -2.2814 C   0  0  0  0  0  0  0  0  0  0  0  0
    4.5156   -2.6516   -1.7171 C   0  0  0  0  0  0  0  0  0  0  0  0
    4.5202   -2.6150   -0.1521 C   0  0  1  0  0  0  0  0  0  0  0  0
    4.3842   -4.0208    0.3587 C   0  0  0  0  0  0  0  0  0  0  0  0
    5.4408   -4.9230    0.6227 C   0  0  0  0  0  0  0  0  0  0  0  0
    5.0365   -6.2167    1.0004 C   0  0  0  0  0  0  0  0  0  0  0  0
    3.6576   -6.5387    1.0988 C   0  0  0  0  0  0  0  0  0  0  0  0
    2.6480   -5.5485    0.8752 C   0  0  0  0  0  0  0  0  0  0  0  0
    1.3380   -5.9077    1.0017 O   0  0  0  0  0  0  0  0  0  0  0  0
    3.0214   -4.2220    0.5264 C   0  0  0  0  0  0  0  0  0  0  0  0
    2.2624   -3.0948    0.3618 O   0  0  0  0  0  0  0  0  0  0  0  0
    3.1810   -1.9792    0.3855 C   0  0  1  0  0  0  0  0  0  0  0  0
    6.8380   -4.3180    0.5360 C   0  0  0  0  0  0  0  0  0  0  0  0
   -0.6373    0.3955    1.7158 H   0  0  0  0  0  0  0  0  0  0  0  0
   -0.1876    1.7561    0.6976 H   0  0  0  0  0  0  0  0  0  0  0  0
   -1.0884    2.0404    2.1926 H   0  0  0  0  0  0  0  0  0  0  0  0
    0.9092    1.2712    3.5160 H   0  0  0  0  0  0  0  0  0  0  0  0
    0.9334    3.4238    1.7953 H   0  0  0  0  0  0  0  0  0  0  0  0
    2.0691    0.7962    0.7329 H   0  0  0  0  0  0  0  0  0  0  0  0
    3.0273    1.2709    2.1238 H   0  0  0  0  0  0  0  0  0  0  0  0
    1.2870   -1.1002    1.9193 H   0  0  0  0  0  0  0  0  0  0  0  0
    3.2320   -2.4027    2.4812 H   0  0  0  0  0  0  0  0  0  0  0  0
    4.7767    0.1051    1.6864 H   0  0  0  0  0  0  0  0  0  0  0  0
    4.6448   -0.5933    3.2809 H   0  0  0  0  0  0  0  0  0  0  0  0
    6.7228   -1.1433    2.1164 H   0  0  0  0  0  0  0  0  0  0  0  0
    5.8014   -2.6104    2.4316 H   0  0  0  0  0  0  0  0  0  0  0  0
    5.3473   -0.1469   -0.1019 H   0  0  0  0  0  0  0  0  0  0  0  0
    7.9336   -2.5163    0.1944 H   0  0  0  0  0  0  0  0  0  0  0  0
    7.3542   -2.1370   -2.1120 H   0  0  0  0  0  0  0  0  0  0  0  0
    7.8138   -3.7851   -1.9485 H   0  0  0  0  0  0  0  0  0  0  0  0
    5.7360   -3.3889   -3.3691 H   0  0  0  0  0  0  0  0  0  0  0  0
    5.4721   -4.5353   -2.0923 H   0  0  0  0  0  0  0  0  0  0  0  0
    4.5637   -1.6414   -2.1330 H   0  0  0  0  0  0  0  0  0  0  0  0
    3.5772   -3.0730   -2.0913 H   0  0  0  0  0  0  0  0  0  0  0  0
    5.7815   -6.9534    1.2136 H   0  0  0  0  0  0  0  0  0  0  0  0
    3.3777   -7.5390    1.3686 H   0  0  0  0  0  0  0  0  0  0  0  0
    1.2407   -6.8038    1.2577 H   0  0  0  0  0  0  0  0  0  0  0  0
    2.8848   -1.1627   -0.2629 H   0  0  0  0  0  0  0  0  0  0  0  0
    7.4928   -5.0487    0.0608 H   0  0  0  0  0  0  0  0  0  0  0  0
    7.2012   -4.2604    1.5641 H   0  0  0  0  0  0  0  0  0  0  0  0
  1  2  1  0
  1 26  1  0
  1 27  1  0
  1 28  1  0
  2  3  1  0
  2  4  1  0
  2 29  1  1
  3 30  1  0
  4  5  1  0
  4 31  1  0
  4 32  1  0
  5  6  1  0
  5 33  1  0
  6 24  1  0
  6  7  1  0
  6 34  1  1
  7  8  1  0
  7 35  1  0
  7 36  1  0
  8  9  1  0
  8 37  1  0
  8 38  1  0
  9 15  1  0
  9 10  1  6
  9 11  1  0
 10 39  1  0
 11 25  1  0
 11 12  1  0
 11 40  1  1
 12 13  1  0
 12 41  1  0
 12 42  1  0
 13 14  1  0
 13 43  1  0
 13 44  1  0
 15 14  1  6
 14 45  1  0
 14 46  1  0
 15 24  1  0
 15 16  1  0
 16 22  1  0
 16 17  2  0
 17 18  1  0
 17 25  1  0
 18 19  2  0
 18 47  1  0
 19 20  1  0
 19 48  1  0
 20 21  1  0
 20 22  2  0
 21 49  1  0
 22 23  1  0
 23 24  1  0
 24 50  1  6
 25 51  1  0
 25 52  1  0
M  END
>  <i_m_ct_stereo_status>  (183) 
1

>  <s_m_source_file>  (183) 
/var/tmp/pbs.5076255.sched01/tmpb5cfx69f/43pm4c6kpw.sdf

>  <i_m_source_file_index>  (183) 
31

>  <i_lp_mmshare_version>  (183) 
48012

>  <i_f3d_flags>  (183) 
0

>  <s_epik_input>  (183) 
W0NIM11bQ0BIXShbT0hdKVtDSDJdW05IXVtDQEhdKFtDSDJdW0NIMl0xKVtDQEBIXTJPYyhjKFtPSF0pW2NIXVtjSF0zKWM0YzNbQ0gyXVtDQEhdKFtDQF0xKFtDQF0yNDUpW09IXSlbQ0gyXVtDSDJdW0NIMl01

>  <s_epik_cmdline>  (183) 
J2VwaWtfcHl0aG9uJywgJy1waHQnLCAnMi4wJywgJy1waCcsICc3LjAnLCAnLXRuJywgJzgnLCAnLW1hJywgJzIwMCcsICctaW1hZScsICc8aW5maWxlLm1hZT4nLCAnLW9tYWUnLCAnPG91dGZpbGUubWFlPic=

>  <r_lp_tautomer_probability>  (183) 
1

>  <r_epik_Ionization_Penalty>  (183) 
1.99108

>  <r_epik_Ionization_Penalty_Charging>  (183) 
0

>  <r_epik_Ionization_Penalty_Neutral>  (183) 
1.99108

>  <r_epik_State_Penalty>  (183) 
2.11841

>  <r_epik_Charging_Adjusted_Penalty>  (183) 
2.11841

>  <i_epik_Tot_Q>  (183) 
0

>  <i_epik_Tot_abs_Q>  (183) 
0

>  <s_lp_Force_Field>  (183) 
OPLS3e

>  <r_lp_Energy>  (183) 
59.8692

>  <b_lp_Chiralities_Consistent>  (183) 
1

>  <s_lp_Variant>  (183) 
50:0-2

>  <s_i_glide_gridfile>  (183) 
pfpi4k_grid

>  <i_i_glide_lignum>  (183) 
31

>  <i_i_glide_rotatable_bonds>  (183) 
6

>  <r_i_docking_score>  (183) 
-4.17781

>  <r_i_glide_ligand_efficiency>  (183) 
-0.167113

>  <r_i_glide_ligand_efficiency_sa>  (183) 
-0.48864

>  <r_i_glide_ligand_efficiency_ln>  (183) 
-0.990267

>  <r_i_glide_gscore>  (183) 
-4.17781

>  <r_i_glide_lipo>  (183) 
-0.969989

>  <r_i_glide_hbond>  (183) 
-0.213595

>  <r_i_glide_metal>  (183) 
-0

>  <r_i_glide_rewards>  (183) 
-1.05387

>  <r_i_glide_evdw>  (183) 
-21.4624

>  <r_i_glide_ecoul>  (183) 
-8.96619

>  <r_i_glide_erotb>  (183) 
0.477685

>  <r_i_glide_esite>  (183) 
0

>  <r_i_glide_emodel>  (183) 
-37.6109

>  <r_i_glide_energy>  (183) 
-30.4286

>  <r_i_glide_einternal>  (183) 
4.1539

>  <r_i_glide_intrahb_reward>  (183) 
-0

>  <i_i_glide_confnum>  (183) 
4

>  <i_i_glide_posenum>  (183) 
25

>  <r_i_glide_eff_state_penalty>  (183) 
0

>  <ligand_id>  (183) 
50

>  <original_smiles>  (183) 
CC(O)CNC1CCC2(O)C3CCCC24c2c(ccc(O)c2OC14)C3

>  <smiles>  (183) 
[H]Oc1c([H])c([H])c2c3c1OC1([H])C([H])(N([H])C([H])([H])C([H])(O[H])C([H])([H])[H])C([H])([H])C([H])([H])C4(O[H])C([H])(C2([H])[H])C([H])([H])C([H])([H])C([H])([H])C314

$$$$
51:0:0
     RDKit          3D

 37 39  0  0  1  0  0  0  0  0999 V2000
   -3.4973    2.9836    2.7419 C   0  0  0  0  0  0  0  0  0  0  0  0
   -2.1157    3.3460    3.1592 C   0  0  0  0  0  0  0  0  0  0  0  0
   -1.7908    4.5200    3.6944 N   0  0  0  0  0  0  0  0  0  0  0  0
   -0.4423    4.4420    3.9682 N   0  0  0  0  0  0  0  0  0  0  0  0
   -0.0593    3.2280    3.5176 C   0  0  0  0  0  0  0  0  0  0  0  0
   -1.0703    2.4952    3.0599 N   0  0  0  0  0  0  0  0  0  0  0  0
   -0.9974    1.1521    2.5432 C   0  0  0  0  0  0  0  0  0  0  0  0
    0.3547    0.5321    2.9027 C   0  0  0  0  0  0  0  0  0  0  0  0
    1.4805    1.4830    2.7173 N   0  0  2  0  0  0  0  0  0  0  0  0
    2.8022    0.8153    2.9221 C   0  0  0  0  0  0  0  0  0  0  0  0
    3.1250   -0.2990    1.9308 C   0  0  0  0  0  0  0  0  0  0  0  0
    2.5716   -1.5875    2.0773 C   0  0  0  0  0  0  0  0  0  0  0  0
    2.8799   -2.6006    1.1613 C   0  0  0  0  0  0  0  0  0  0  0  0
    3.7838   -2.3510    0.1019 C   0  0  0  0  0  0  0  0  0  0  0  0
    4.3681   -1.0789   -0.0301 C   0  0  0  0  0  0  0  0  0  0  0  0
    5.2579   -0.8431   -1.0212 F   0  0  0  0  0  0  0  0  0  0  0  0
    4.0345   -0.0600    0.8776 C   0  0  0  0  0  0  0  0  0  0  0  0
    1.3577    2.6896    3.6082 C   0  0  1  0  0  0  0  0  0  0  0  0
    2.3886    3.7730    3.2649 C   0  0  0  0  0  0  0  0  0  0  0  0
   -4.1744    3.8306    2.8804 H   0  0  0  0  0  0  0  0  0  0  0  0
   -3.8506    2.1741    3.3756 H   0  0  0  0  0  0  0  0  0  0  0  0
   -3.5187    2.6760    1.6946 H   0  0  0  0  0  0  0  0  0  0  0  0
   -1.7866    0.5363    2.9756 H   0  0  0  0  0  0  0  0  0  0  0  0
   -1.1368    1.1835    1.4605 H   0  0  0  0  0  0  0  0  0  0  0  0
    0.3329    0.1910    3.9446 H   0  0  0  0  0  0  0  0  0  0  0  0
    0.4309   -0.3565    2.2688 H   0  0  0  0  0  0  0  0  0  0  0  0
    3.5995    1.5422    2.8869 H   0  0  0  0  0  0  0  0  0  0  0  0
    2.8295    0.3798    3.9288 H   0  0  0  0  0  0  0  0  0  0  0  0
    1.9047   -1.8030    2.8987 H   0  0  0  0  0  0  0  0  0  0  0  0
    2.4241   -3.5744    1.2580 H   0  0  0  0  0  0  0  0  0  0  0  0
    4.0191   -3.1315   -0.6059 H   0  0  0  0  0  0  0  0  0  0  0  0
    4.4821    0.9150    0.7625 H   0  0  0  0  0  0  0  0  0  0  0  0
    1.5116    2.3662    4.6328 H   0  0  0  0  0  0  0  0  0  0  0  0
    2.3450    4.5879    3.9978 H   0  0  0  0  0  0  0  0  0  0  0  0
    2.1798    4.2332    2.3001 H   0  0  0  0  0  0  0  0  0  0  0  0
    3.4101    3.4032    3.2435 H   0  0  0  0  0  0  0  0  0  0  0  0
    1.4178    1.8155    1.7698 H   0  0  0  0  0  0  0  0  0  0  0  0
  1  2  1  0
  1 20  1  0
  1 21  1  0
  1 22  1  0
  2  6  1  0
  2  3  2  0
  3  4  1  0
  4  5  2  0
  5 18  1  0
  5  6  1  0
  6  7  1  0
  7  8  1  0
  7 23  1  0
  7 24  1  0
  8  9  1  0
  8 25  1  0
  8 26  1  0
  9 10  1  0
  9 18  1  0
  9 37  1  6
 10 11  1  0
 10 27  1  0
 10 28  1  0
 11 17  1  0
 11 12  2  0
 12 13  1  0
 12 29  1  0
 13 14  2  0
 13 30  1  0
 14 15  1  0
 14 31  1  0
 15 16  1  0
 15 17  2  0
 17 32  1  0
 18 19  1  0
 18 33  1  1
 19 34  1  0
 19 35  1  0
 19 36  1  0
M  CHG  1   9   1
M  END
>  <i_m_ct_stereo_status>  (184) 
1

>  <s_m_source_file>  (184) 
/var/tmp/pbs.5076255.sched01/tmpb5cfx69f/43pm4c6kpw.sdf

>  <i_m_source_file_index>  (184) 
32

>  <i_lp_mmshare_version>  (184) 
48012

>  <i_f3d_flags>  (184) 
0

>  <s_epik_input>  (184) 
bjFuYyhbQ0gzXSluKGMxMilbQ0gyXVtDSDJdTihbQ0BIXTJbQ0gzXSlbQ0gyXWMzW2NIXVtjSF1bY0hdYyhGKVtjSF0z

>  <s_epik_cmdline>  (184) 
J2VwaWtfcHl0aG9uJywgJy1waHQnLCAnMi4wJywgJy1waCcsICc3LjAnLCAnLXRuJywgJzgnLCAnLW1hJywgJzIwMCcsICctaW1hZScsICc8aW5maWxlLm1hZT4nLCAnLW9tYWUnLCAnPG91dGZpbGUubWFlPic=

>  <r_lp_tautomer_probability>  (184) 
1

>  <r_epik_Ionization_Penalty>  (184) 
0.827159

>  <r_epik_Ionization_Penalty_Charging>  (184) 
0.827159

>  <r_epik_Ionization_Penalty_Neutral>  (184) 
1.60544e-07

>  <r_epik_State_Penalty>  (184) 
0.249937

>  <r_epik_Charging_Adjusted_Penalty>  (184) 
1.0771

>  <i_epik_Tot_Q>  (184) 
1

>  <i_epik_Tot_abs_Q>  (184) 
1

>  <s_lp_Force_Field>  (184) 
OPLS3e

>  <r_lp_Energy>  (184) 
26.8516

>  <b_lp_Chiralities_Consistent>  (184) 
1

>  <s_lp_Variant>  (184) 
51:0-1

>  <s_i_glide_gridfile>  (184) 
pfpi4k_grid

>  <i_i_glide_lignum>  (184) 
32

>  <i_i_glide_rotatable_bonds>  (184) 
2

>  <r_i_docking_score>  (184) 
-3.84006

>  <r_i_glide_ligand_efficiency>  (184) 
-0.202109

>  <r_i_glide_ligand_efficiency_sa>  (184) 
-0.539307

>  <r_i_glide_ligand_efficiency_ln>  (184) 
-0.973539

>  <r_i_glide_gscore>  (184) 
-3.84006

>  <r_i_glide_lipo>  (184) 
-0.0752186

>  <r_i_glide_hbond>  (184) 
0

>  <r_i_glide_metal>  (184) 
-0

>  <r_i_glide_rewards>  (184) 
-1.62738

>  <r_i_glide_evdw>  (184) 
-19.4121

>  <r_i_glide_ecoul>  (184) 
-8.03544

>  <r_i_glide_erotb>  (184) 
0.518964

>  <r_i_glide_esite>  (184) 
-0.480511

>  <r_i_glide_emodel>  (184) 
-36.4015

>  <r_i_glide_energy>  (184) 
-27.4475

>  <r_i_glide_einternal>  (184) 
0.910112

>  <r_i_glide_intrahb_reward>  (184) 
-0

>  <i_i_glide_confnum>  (184) 
1

>  <i_i_glide_posenum>  (184) 
22

>  <r_i_glide_eff_state_penalty>  (184) 
0

>  <ligand_id>  (184) 
51

>  <original_smiles>  (184) 
Cc1nnc2n1CCN(Cc1cccc(F)c1)C2C

>  <smiles>  (184) 
[H]c1c([H])c(F)c([H])c(C([H])([H])[N+]2([H])C([H])([H])C([H])([H])n3c(C([H])([H])[H])nnc3C2([H])C([H])([H])[H])c1[H]

$$$$
51:0:1
     RDKit          3D

 37 39  0  0  1  0  0  0  0  0999 V2000
   -1.4845   -8.3091    2.0755 C   0  0  0  0  0  0  0  0  0  0  0  0
   -0.7942   -8.5536    3.3636 C   0  0  0  0  0  0  0  0  0  0  0  0
   -0.9847   -7.8037    4.4471 N   0  0  0  0  0  0  0  0  0  0  0  0
   -0.1673   -8.3532    5.4117 N   0  0  0  0  0  0  0  0  0  0  0  0
    0.4715   -9.3672    4.8174 C   0  0  0  0  0  0  0  0  0  0  0  0
    0.0936   -9.5538    3.5352 N   0  0  0  0  0  0  0  0  0  0  0  0
    0.5971  -10.5600    2.6335 C   0  0  0  0  0  0  0  0  0  0  0  0
    1.3451  -11.6409    3.4188 C   0  0  0  0  0  0  0  0  0  0  0  0
    2.2086  -11.0637    4.4941 N   0  0  2  0  0  0  0  0  0  0  0  0
    3.0678  -12.1223    5.1123 C   0  0  0  0  0  0  0  0  0  0  0  0
    4.4947  -12.1073    4.5911 C   0  0  0  0  0  0  0  0  0  0  0  0
    4.8336  -12.8709    3.4466 C   0  0  0  0  0  0  0  0  0  0  0  0
    6.1684  -12.9295    3.0079 C   0  0  0  0  0  0  0  0  0  0  0  0
    7.1710  -12.2282    3.6930 C   0  0  0  0  0  0  0  0  0  0  0  0
    6.8424  -11.4575    4.8261 C   0  0  0  0  0  0  0  0  0  0  0  0
    7.8101  -10.7925    5.4953 F   0  0  0  0  0  0  0  0  0  0  0  0
    5.5084  -11.3955    5.2696 C   0  0  0  0  0  0  0  0  0  0  0  0
    1.4298  -10.2915    5.5350 C   0  0  1  0  0  0  0  0  0  0  0  0
    2.3498   -9.5030    6.4848 C   0  0  0  0  0  0  0  0  0  0  0  0
   -2.1224   -7.4291    2.1645 H   0  0  0  0  0  0  0  0  0  0  0  0
   -2.1122   -9.1629    1.8104 H   0  0  0  0  0  0  0  0  0  0  0  0
   -0.7544   -8.1377    1.2873 H   0  0  0  0  0  0  0  0  0  0  0  0
   -0.2300  -10.9978    2.0632 H   0  0  0  0  0  0  0  0  0  0  0  0
    1.2482  -10.0691    1.9067 H   0  0  0  0  0  0  0  0  0  0  0  0
    0.6244  -12.3178    3.8928 H   0  0  0  0  0  0  0  0  0  0  0  0
    1.9421  -12.2423    2.7385 H   0  0  0  0  0  0  0  0  0  0  0  0
    3.1031  -12.0469    6.1946 H   0  0  0  0  0  0  0  0  0  0  0  0
    2.6334  -13.1038    4.9072 H   0  0  0  0  0  0  0  0  0  0  0  0
    4.0758  -13.4290    2.9285 H   0  0  0  0  0  0  0  0  0  0  0  0
    6.4145  -13.5261    2.1423 H   0  0  0  0  0  0  0  0  0  0  0  0
    8.1951  -12.2757    3.3582 H   0  0  0  0  0  0  0  0  0  0  0  0
    5.2768  -10.8236    6.1540 H   0  0  0  0  0  0  0  0  0  0  0  0
    0.8127  -10.9729    6.0850 H   0  0  0  0  0  0  0  0  0  0  0  0
    1.7626   -9.0903    7.3017 H   0  0  0  0  0  0  0  0  0  0  0  0
    2.8129   -8.6601    5.9702 H   0  0  0  0  0  0  0  0  0  0  0  0
    3.1359  -10.0998    6.9346 H   0  0  0  0  0  0  0  0  0  0  0  0
    2.8109  -10.3963    4.0415 H   0  0  0  0  0  0  0  0  0  0  0  0
  1  2  1  0
  1 20  1  0
  1 21  1  0
  1 22  1  0
  2  6  1  0
  2  3  2  0
  3  4  1  0
  4  5  2  0
  5 18  1  0
  5  6  1  0
  6  7  1  0
  7  8  1  0
  7 23  1  0
  7 24  1  0
  8  9  1  0
  8 25  1  0
  8 26  1  0
  9 10  1  0
  9 18  1  0
  9 37  1  6
 10 11  1  0
 10 27  1  0
 10 28  1  0
 11 17  1  0
 11 12  2  0
 12 13  1  0
 12 29  1  0
 13 14  2  0
 13 30  1  0
 14 15  1  0
 14 31  1  0
 15 16  1  0
 15 17  2  0
 17 32  1  0
 18 19  1  0
 18 33  1  1
 19 34  1  0
 19 35  1  0
 19 36  1  0
M  CHG  1   9   1
M  END
>  <i_m_ct_stereo_status>  (185) 
1

>  <s_m_source_file>  (185) 
/var/tmp/pbs.5076255.sched01/tmpb5cfx69f/43pm4c6kpw.sdf

>  <i_m_source_file_index>  (185) 
32

>  <i_lp_mmshare_version>  (185) 
48012

>  <i_f3d_flags>  (185) 
0

>  <s_epik_input>  (185) 
bjFuYyhbQ0gzXSluKGMxMilbQ0gyXVtDSDJdTihbQ0BIXTJbQ0gzXSlbQ0gyXWMzW2NIXVtjSF1bY0hdYyhGKVtjSF0z

>  <s_epik_cmdline>  (185) 
J2VwaWtfcHl0aG9uJywgJy1waHQnLCAnMi4wJywgJy1waCcsICc3LjAnLCAnLXRuJywgJzgnLCAnLW1hJywgJzIwMCcsICctaW1hZScsICc8aW5maWxlLm1hZT4nLCAnLW9tYWUnLCAnPG91dGZpbGUubWFlPic=

>  <r_lp_tautomer_probability>  (185) 
1

>  <r_epik_Ionization_Penalty>  (185) 
0.827159

>  <r_epik_Ionization_Penalty_Charging>  (185) 
0.827159

>  <r_epik_Ionization_Penalty_Neutral>  (185) 
1.60544e-07

>  <r_epik_State_Penalty>  (185) 
0.249937

>  <r_epik_Charging_Adjusted_Penalty>  (185) 
1.0771

>  <i_epik_Tot_Q>  (185) 
1

>  <i_epik_Tot_abs_Q>  (185) 
1

>  <s_lp_Force_Field>  (185) 
OPLS3e

>  <r_lp_Energy>  (185) 
26.8516

>  <b_lp_Chiralities_Consistent>  (185) 
1

>  <s_lp_Variant>  (185) 
51:0-1

>  <s_i_glide_gridfile>  (185) 
pfpi4k_grid

>  <i_i_glide_lignum>  (185) 
32

>  <i_i_glide_rotatable_bonds>  (185) 
2

>  <r_i_docking_score>  (185) 
-3.67577

>  <r_i_glide_ligand_efficiency>  (185) 
-0.193461

>  <r_i_glide_ligand_efficiency_sa>  (185) 
-0.516233

>  <r_i_glide_ligand_efficiency_ln>  (185) 
-0.931886

>  <r_i_glide_gscore>  (185) 
-3.67577

>  <r_i_glide_lipo>  (185) 
-0.256317

>  <r_i_glide_hbond>  (185) 
0

>  <r_i_glide_metal>  (185) 
-0

>  <r_i_glide_rewards>  (185) 
-1.62738

>  <r_i_glide_evdw>  (185) 
-20.6779

>  <r_i_glide_ecoul>  (185) 
-6.51823

>  <r_i_glide_erotb>  (185) 
0.518964

>  <r_i_glide_esite>  (185) 
-0.299404

>  <r_i_glide_emodel>  (185) 
-35.9875

>  <r_i_glide_energy>  (185) 
-27.1962

>  <r_i_glide_einternal>  (185) 
1.05759

>  <r_i_glide_intrahb_reward>  (185) 
-0

>  <i_i_glide_confnum>  (185) 
6

>  <i_i_glide_posenum>  (185) 
3

>  <r_i_glide_eff_state_penalty>  (185) 
0

>  <ligand_id>  (185) 
51

>  <original_smiles>  (185) 
Cc1nnc2n1CCN(Cc1cccc(F)c1)C2C

>  <smiles>  (185) 
[H]c1c([H])c(F)c([H])c(C([H])([H])[N+]2([H])C([H])([H])C([H])([H])n3c(C([H])([H])[H])nnc3C2([H])C([H])([H])[H])c1[H]

$$$$
51:0:2
     RDKit          3D

 37 39  0  0  1  0  0  0  0  0999 V2000
   -3.4516    2.9967    2.7542 C   0  0  0  0  0  0  0  0  0  0  0  0
   -2.0656    3.3360    3.1791 C   0  0  0  0  0  0  0  0  0  0  0  0
   -1.7281    4.5140    3.6951 N   0  0  0  0  0  0  0  0  0  0  0  0
   -0.3813    4.4145    3.9847 N   0  0  0  0  0  0  0  0  0  0  0  0
   -0.0157    3.1906    3.5585 C   0  0  0  0  0  0  0  0  0  0  0  0
   -1.0363    2.4633    3.1005 N   0  0  0  0  0  0  0  0  0  0  0  0
   -0.9794    1.1120    2.6067 C   0  0  0  0  0  0  0  0  0  0  0  0
    0.3628    0.4819    2.9956 C   0  0  0  0  0  0  0  0  0  0  0  0
    1.5023    1.4128    2.7999 N   0  0  2  0  0  0  0  0  0  0  0  0
    2.8111    0.7276    3.0196 C   0  0  0  0  0  0  0  0  0  0  0  0
    3.1244   -0.3699    2.0088 C   0  0  0  0  0  0  0  0  0  0  0  0
    3.9088   -0.0729    0.8776 C   0  0  0  0  0  0  0  0  0  0  0  0
    4.2260   -1.0714   -0.0549 C   0  0  0  0  0  0  0  0  0  0  0  0
    3.7558   -2.3849    0.1390 C   0  0  0  0  0  0  0  0  0  0  0  0
    2.9742   -2.6896    1.2714 C   0  0  0  0  0  0  0  0  0  0  0  0
    2.5145   -3.9478    1.4536 F   0  0  0  0  0  0  0  0  0  0  0  0
    2.6656   -1.6883    2.2041 C   0  0  0  0  0  0  0  0  0  0  0  0
    1.3908    2.6319    3.6686 C   0  0  1  0  0  0  0  0  0  0  0  0
    2.4394    3.6969    3.3131 C   0  0  0  0  0  0  0  0  0  0  0  0
   -4.1102    3.8635    2.8439 H   0  0  0  0  0  0  0  0  0  0  0  0
   -3.8273    2.2088    3.4030 H   0  0  0  0  0  0  0  0  0  0  0  0
   -3.4657    2.6711    1.7146 H   0  0  0  0  0  0  0  0  0  0  0  0
   -1.7821    0.5161    3.0435 H   0  0  0  0  0  0  0  0  0  0  0  0
   -1.1097    1.1288    1.5216 H   0  0  0  0  0  0  0  0  0  0  0  0
    0.3293    0.1615    4.0415 H   0  0  0  0  0  0  0  0  0  0  0  0
    0.4379   -0.4239    2.3891 H   0  0  0  0  0  0  0  0  0  0  0  0
    3.6293    1.4362    2.9994 H   0  0  0  0  0  0  0  0  0  0  0  0
    2.8107    0.2777    4.0214 H   0  0  0  0  0  0  0  0  0  0  0  0
    4.2777    0.9254    0.7212 H   0  0  0  0  0  0  0  0  0  0  0  0
    4.8258   -0.8265   -0.9184 H   0  0  0  0  0  0  0  0  0  0  0  0
    3.9805   -3.1533   -0.5884 H   0  0  0  0  0  0  0  0  0  0  0  0
    2.0835   -1.9374    3.0781 H   0  0  0  0  0  0  0  0  0  0  0  0
    1.5300    2.3224    4.7007 H   0  0  0  0  0  0  0  0  0  0  0  0
    2.4065    4.5196    4.0378 H   0  0  0  0  0  0  0  0  0  0  0  0
    2.2370    4.1441    2.3401 H   0  0  0  0  0  0  0  0  0  0  0  0
    3.4481    3.3037    3.3018 H   0  0  0  0  0  0  0  0  0  0  0  0
    1.4514    1.7234    1.8450 H   0  0  0  0  0  0  0  0  0  0  0  0
  1  2  1  0
  1 20  1  0
  1 21  1  0
  1 22  1  0
  2  6  1  0
  2  3  2  0
  3  4  1  0
  4  5  2  0
  5 18  1  0
  5  6  1  0
  6  7  1  0
  7  8  1  0
  7 23  1  0
  7 24  1  0
  8  9  1  0
  8 25  1  0
  8 26  1  0
  9 10  1  0
  9 18  1  0
  9 37  1  6
 10 11  1  0
 10 27  1  0
 10 28  1  0
 11 17  1  0
 11 12  2  0
 12 13  1  0
 12 29  1  0
 13 14  2  0
 13 30  1  0
 14 15  1  0
 14 31  1  0
 15 16  1  0
 15 17  2  0
 17 32  1  0
 18 19  1  0
 18 33  1  1
 19 34  1  0
 19 35  1  0
 19 36  1  0
M  CHG  1   9   1
M  END
>  <i_m_ct_stereo_status>  (186) 
1

>  <s_m_source_file>  (186) 
/var/tmp/pbs.5076255.sched01/tmpb5cfx69f/43pm4c6kpw.sdf

>  <i_m_source_file_index>  (186) 
32

>  <i_lp_mmshare_version>  (186) 
48012

>  <i_f3d_flags>  (186) 
0

>  <s_epik_input>  (186) 
bjFuYyhbQ0gzXSluKGMxMilbQ0gyXVtDSDJdTihbQ0BIXTJbQ0gzXSlbQ0gyXWMzW2NIXVtjSF1bY0hdYyhGKVtjSF0z

>  <s_epik_cmdline>  (186) 
J2VwaWtfcHl0aG9uJywgJy1waHQnLCAnMi4wJywgJy1waCcsICc3LjAnLCAnLXRuJywgJzgnLCAnLW1hJywgJzIwMCcsICctaW1hZScsICc8aW5maWxlLm1hZT4nLCAnLW9tYWUnLCAnPG91dGZpbGUubWFlPic=

>  <r_lp_tautomer_probability>  (186) 
1

>  <r_epik_Ionization_Penalty>  (186) 
0.827159

>  <r_epik_Ionization_Penalty_Charging>  (186) 
0.827159

>  <r_epik_Ionization_Penalty_Neutral>  (186) 
1.60544e-07

>  <r_epik_State_Penalty>  (186) 
0.249937

>  <r_epik_Charging_Adjusted_Penalty>  (186) 
1.0771

>  <i_epik_Tot_Q>  (186) 
1

>  <i_epik_Tot_abs_Q>  (186) 
1

>  <s_lp_Force_Field>  (186) 
OPLS3e

>  <r_lp_Energy>  (186) 
26.8516

>  <b_lp_Chiralities_Consistent>  (186) 
1

>  <s_lp_Variant>  (186) 
51:0-1

>  <s_i_glide_gridfile>  (186) 
pfpi4k_grid

>  <i_i_glide_lignum>  (186) 
32

>  <i_i_glide_rotatable_bonds>  (186) 
2

>  <r_i_docking_score>  (186) 
-3.66321

>  <r_i_glide_ligand_efficiency>  (186) 
-0.192801

>  <r_i_glide_ligand_efficiency_sa>  (186) 
-0.514469

>  <r_i_glide_ligand_efficiency_ln>  (186) 
-0.928703

>  <r_i_glide_gscore>  (186) 
-3.66321

>  <r_i_glide_lipo>  (186) 
-0.0504103

>  <r_i_glide_hbond>  (186) 
0

>  <r_i_glide_metal>  (186) 
-0

>  <r_i_glide_rewards>  (186) 
-1.62738

>  <r_i_glide_evdw>  (186) 
-19.5892

>  <r_i_glide_ecoul>  (186) 
-7.24789

>  <r_i_glide_erotb>  (186) 
0.518964

>  <r_i_glide_esite>  (186) 
-0.43774

>  <r_i_glide_emodel>  (186) 
-35.6847

>  <r_i_glide_energy>  (186) 
-26.8371

>  <r_i_glide_einternal>  (186) 
0.626332

>  <r_i_glide_intrahb_reward>  (186) 
-0

>  <i_i_glide_confnum>  (186) 
4

>  <i_i_glide_posenum>  (186) 
4

>  <r_i_glide_eff_state_penalty>  (186) 
0

>  <ligand_id>  (186) 
51

>  <original_smiles>  (186) 
Cc1nnc2n1CCN(Cc1cccc(F)c1)C2C

>  <smiles>  (186) 
[H]c1c([H])c(F)c([H])c(C([H])([H])[N+]2([H])C([H])([H])C([H])([H])n3c(C([H])([H])[H])nnc3C2([H])C([H])([H])[H])c1[H]

$$$$
51:1:0
     RDKit          3D

 36 38  0  0  1  0  0  0  0  0999 V2000
    3.5230   -1.5470   -2.8929 C   0  0  0  0  0  0  0  0  0  0  0  0
    4.4914   -2.1013   -1.8911 C   0  0  0  0  0  0  0  0  0  0  0  0
    5.7979   -1.8292   -1.8945 N   0  0  0  0  0  0  0  0  0  0  0  0
    6.3169   -2.4973   -0.7932 N   0  0  0  0  0  0  0  0  0  0  0  0
    5.2768   -3.1733   -0.2783 C   0  0  0  0  0  0  0  0  0  0  0  0
    4.1198   -2.9084   -0.8956 N   0  0  0  0  0  0  0  0  0  0  0  0
    2.8347   -3.4497   -0.5353 C   0  0  0  0  0  0  0  0  0  0  0  0
    2.9038   -4.0870    0.8685 C   0  0  0  0  0  0  0  0  0  0  0  0
    4.1057   -4.9128    1.0392 N   0  0  0  0  0  0  0  0  0  0  0  0
    4.0381   -5.6445    2.3287 C   0  0  0  0  0  0  0  0  0  0  0  0
    2.9075   -6.6665    2.4107 C   0  0  0  0  0  0  0  0  0  0  0  0
    3.1574   -8.0153    2.1031 C   0  0  0  0  0  0  0  0  0  0  0  0
    2.1181   -8.9566    2.1497 C   0  0  0  0  0  0  0  0  0  0  0  0
    0.8145   -8.5371    2.4888 C   0  0  0  0  0  0  0  0  0  0  0  0
    0.5636   -7.1857    2.7974 C   0  0  0  0  0  0  0  0  0  0  0  0
   -0.6984   -6.7641    3.0753 F   0  0  0  0  0  0  0  0  0  0  0  0
    1.6200   -6.2639    2.8001 C   0  0  0  0  0  0  0  0  0  0  0  0
    5.3014   -4.0546    0.9570 C   0  0  1  0  0  0  0  0  0  0  0  0
    6.6030   -4.8860    0.9688 C   0  0  0  0  0  0  0  0  0  0  0  0
    4.0492   -0.9104   -3.5960 H   0  0  0  0  0  0  0  0  0  0  0  0
    2.7603   -0.9646   -2.3868 H   0  0  0  0  0  0  0  0  0  0  0  0
    3.0518   -2.3685   -3.4357 H   0  0  0  0  0  0  0  0  0  0  0  0
    2.0972   -2.6534   -0.5443 H   0  0  0  0  0  0  0  0  0  0  0  0
    2.5450   -4.1943   -1.2722 H   0  0  0  0  0  0  0  0  0  0  0  0
    2.8519   -3.3249    1.6451 H   0  0  0  0  0  0  0  0  0  0  0  0
    1.9854   -4.6721    0.9142 H   0  0  0  0  0  0  0  0  0  0  0  0
    4.9363   -6.2300    2.4916 H   0  0  0  0  0  0  0  0  0  0  0  0
    3.9655   -4.9448    3.1567 H   0  0  0  0  0  0  0  0  0  0  0  0
    4.1578   -8.3392    1.8263 H   0  0  0  0  0  0  0  0  0  0  0  0
    2.3150   -9.9945    1.9105 H   0  0  0  0  0  0  0  0  0  0  0  0
   -0.0025   -9.2593    2.4953 H   0  0  0  0  0  0  0  0  0  0  0  0
    1.4253   -5.2296    3.0517 H   0  0  0  0  0  0  0  0  0  0  0  0
    5.2897   -3.3861    1.8175 H   0  0  0  0  0  0  0  0  0  0  0  0
    7.4755   -4.2371    0.9570 H   0  0  0  0  0  0  0  0  0  0  0  0
    6.6568   -5.5224    0.0866 H   0  0  0  0  0  0  0  0  0  0  0  0
    6.7290   -5.5412    1.8467 H   0  0  0  0  0  0  0  0  0  0  0  0
  1  2  1  0
  1 20  1  0
  1 21  1  0
  1 22  1  0
  2  6  1  0
  2  3  2  0
  3  4  1  0
  4  5  2  0
  5 18  1  0
  5  6  1  0
  6  7  1  0
  7  8  1  0
  7 23  1  0
  7 24  1  0
  8  9  1  0
  8 25  1  0
  8 26  1  0
  9 10  1  0
  9 18  1  0
 10 11  1  0
 10 27  1  0
 10 28  1  0
 11 17  1  0
 11 12  2  0
 12 13  1  0
 12 29  1  0
 13 14  2  0
 13 30  1  0
 14 15  1  0
 14 31  1  0
 15 16  1  0
 15 17  2  0
 17 32  1  0
 18 19  1  0
 18 33  1  1
 19 34  1  0
 19 35  1  0
 19 36  1  0
M  END
>  <i_m_ct_stereo_status>  (187) 
1

>  <s_m_source_file>  (187) 
/var/tmp/pbs.5076255.sched01/tmpb5cfx69f/43pm4c6kpw.sdf

>  <i_m_source_file_index>  (187) 
33

>  <i_lp_mmshare_version>  (187) 
48012

>  <i_f3d_flags>  (187) 
0

>  <s_epik_input>  (187) 
bjFuYyhbQ0gzXSluKGMxMilbQ0gyXVtDSDJdTihbQ0BIXTJbQ0gzXSlbQ0gyXWMzW2NIXVtjSF1bY0hdYyhGKVtjSF0z

>  <s_epik_cmdline>  (187) 
J2VwaWtfcHl0aG9uJywgJy1waHQnLCAnMi4wJywgJy1waCcsICc3LjAnLCAnLXRuJywgJzgnLCAnLW1hJywgJzIwMCcsICctaW1hZScsICc8aW5maWxlLm1hZT4nLCAnLW9tYWUnLCAnPG91dGZpbGUubWFlPic=

>  <r_lp_tautomer_probability>  (187) 
1

>  <r_epik_Ionization_Penalty>  (187) 
0.183054

>  <r_epik_Ionization_Penalty_Charging>  (187) 
0

>  <r_epik_Ionization_Penalty_Neutral>  (187) 
0.183054

>  <r_epik_State_Penalty>  (187) 
0.643042

>  <r_epik_Charging_Adjusted_Penalty>  (187) 
0.643042

>  <i_epik_Tot_Q>  (187) 
0

>  <i_epik_Tot_abs_Q>  (187) 
0

>  <s_lp_Force_Field>  (187) 
OPLS3e

>  <r_lp_Energy>  (187) 
37.3932

>  <b_lp_Chiralities_Consistent>  (187) 
1

>  <s_lp_Variant>  (187) 
51:0-2

>  <s_i_glide_gridfile>  (187) 
pfpi4k_grid

>  <i_i_glide_lignum>  (187) 
33

>  <i_i_glide_rotatable_bonds>  (187) 
2

>  <r_i_docking_score>  (187) 
-3.22145

>  <r_i_glide_ligand_efficiency>  (187) 
-0.16955

>  <r_i_glide_ligand_efficiency_sa>  (187) 
-0.452428

>  <r_i_glide_ligand_efficiency_ln>  (187) 
-0.816707

>  <r_i_glide_gscore>  (187) 
-3.22145

>  <r_i_glide_lipo>  (187) 
-0.185041

>  <r_i_glide_hbond>  (187) 
0

>  <r_i_glide_metal>  (187) 
-0

>  <r_i_glide_rewards>  (187) 
-1.68649

>  <r_i_glide_evdw>  (187) 
-20.6723

>  <r_i_glide_ecoul>  (187) 
-4.27592

>  <r_i_glide_erotb>  (187) 
0.522431

>  <r_i_glide_esite>  (187) 
-0.197349

>  <r_i_glide_emodel>  (187) 
-29.9892

>  <r_i_glide_energy>  (187) 
-24.9482

>  <r_i_glide_einternal>  (187) 
0.397631

>  <r_i_glide_intrahb_reward>  (187) 
-0

>  <i_i_glide_confnum>  (187) 
2

>  <i_i_glide_posenum>  (187) 
37

>  <r_i_glide_eff_state_penalty>  (187) 
0

>  <ligand_id>  (187) 
51

>  <original_smiles>  (187) 
Cc1nnc2n1CCN(Cc1cccc(F)c1)C2C

>  <smiles>  (187) 
[H]c1c([H])c(F)c([H])c(C([H])([H])N2C([H])([H])C([H])([H])n3c(C([H])([H])[H])nnc3C2([H])C([H])([H])[H])c1[H]

$$$$
51:1:1
     RDKit          3D

 36 38  0  0  1  0  0  0  0  0999 V2000
    4.3030   -1.0330   -2.1194 C   0  0  0  0  0  0  0  0  0  0  0  0
    4.9595   -1.5514   -0.8844 C   0  0  0  0  0  0  0  0  0  0  0  0
    5.8075   -0.8289   -0.1368 N   0  0  0  0  0  0  0  0  0  0  0  0
    6.1841   -1.6664    0.8964 N   0  0  0  0  0  0  0  0  0  0  0  0
    5.5492   -2.8177    0.6668 C   0  0  0  0  0  0  0  0  0  0  0  0
    4.7729   -2.7943   -0.4323 N   0  0  0  0  0  0  0  0  0  0  0  0
    3.9329   -3.8857   -0.9000 C   0  0  0  0  0  0  0  0  0  0  0  0
    4.2699   -5.2069   -0.1721 C   0  0  0  0  0  0  0  0  0  0  0  0
    4.5258   -4.9741    1.2582 N   0  0  0  0  0  0  0  0  0  0  0  0
    4.6492   -6.2337    1.9891 C   0  0  0  0  0  0  0  0  0  0  0  0
    3.3715   -7.0443    2.0747 C   0  0  0  0  0  0  0  0  0  0  0  0
    3.4251   -8.4322    1.8418 C   0  0  0  0  0  0  0  0  0  0  0  0
    2.2513   -9.1974    1.9017 C   0  0  0  0  0  0  0  0  0  0  0  0
    1.0259   -8.5825    2.2008 C   0  0  0  0  0  0  0  0  0  0  0  0
    0.9658   -7.1964    2.4397 C   0  0  0  0  0  0  0  0  0  0  0  0
   -0.2205   -6.5992    2.6956 F   0  0  0  0  0  0  0  0  0  0  0  0
    2.1466   -6.4294    2.3937 C   0  0  0  0  0  0  0  0  0  0  0  0
    5.6834   -4.0828    1.4595 C   0  0  1  0  0  0  0  0  0  0  0  0
    7.0477   -4.7588    1.1545 C   0  0  0  0  0  0  0  0  0  0  0  0
    4.5773    0.0078   -2.2884 H   0  0  0  0  0  0  0  0  0  0  0  0
    3.2210   -1.0985   -2.0162 H   0  0  0  0  0  0  0  0  0  0  0  0
    4.6208   -1.6191   -2.9798 H   0  0  0  0  0  0  0  0  0  0  0  0
    2.8905   -3.6113   -0.7301 H   0  0  0  0  0  0  0  0  0  0  0  0
    4.0763   -4.0032   -1.9745 H   0  0  0  0  0  0  0  0  0  0  0  0
    3.4389   -5.9067   -0.3004 H   0  0  0  0  0  0  0  0  0  0  0  0
    5.1380   -5.6842   -0.6354 H   0  0  0  0  0  0  0  0  0  0  0  0
    5.3902   -6.8626    1.5016 H   0  0  0  0  0  0  0  0  0  0  0  0
    4.9798   -6.0513    3.0092 H   0  0  0  0  0  0  0  0  0  0  0  0
    4.3623   -8.9136    1.6069 H   0  0  0  0  0  0  0  0  0  0  0  0
    2.3019  -10.2576    1.6982 H   0  0  0  0  0  0  0  0  0  0  0  0
    0.1213   -9.1736    2.2197 H   0  0  0  0  0  0  0  0  0  0  0  0
    2.1111   -5.3680    2.5851 H   0  0  0  0  0  0  0  0  0  0  0  0
    5.6658   -3.7938    2.5068 H   0  0  0  0  0  0  0  0  0  0  0  0
    7.8818   -4.0909    1.3858 H   0  0  0  0  0  0  0  0  0  0  0  0
    7.1414   -5.0127    0.0950 H   0  0  0  0  0  0  0  0  0  0  0  0
    7.2378   -5.6714    1.7229 H   0  0  0  0  0  0  0  0  0  0  0  0
  1  2  1  0
  1 20  1  0
  1 21  1  0
  1 22  1  0
  2  6  1  0
  2  3  2  0
  3  4  1  0
  4  5  2  0
  5 18  1  0
  5  6  1  0
  6  7  1  0
  7  8  1  0
  7 23  1  0
  7 24  1  0
  8  9  1  0
  8 25  1  0
  8 26  1  0
  9 10  1  0
  9 18  1  0
 10 11  1  0
 10 27  1  0
 10 28  1  0
 11 17  1  0
 11 12  2  0
 12 13  1  0
 12 29  1  0
 13 14  2  0
 13 30  1  0
 14 15  1  0
 14 31  1  0
 15 16  1  0
 15 17  2  0
 17 32  1  0
 18 19  1  0
 18 33  1  1
 19 34  1  0
 19 35  1  0
 19 36  1  0
M  END
>  <i_m_ct_stereo_status>  (188) 
1

>  <s_m_source_file>  (188) 
/var/tmp/pbs.5076255.sched01/tmpb5cfx69f/43pm4c6kpw.sdf

>  <i_m_source_file_index>  (188) 
33

>  <i_lp_mmshare_version>  (188) 
48012

>  <i_f3d_flags>  (188) 
0

>  <s_epik_input>  (188) 
bjFuYyhbQ0gzXSluKGMxMilbQ0gyXVtDSDJdTihbQ0BIXTJbQ0gzXSlbQ0gyXWMzW2NIXVtjSF1bY0hdYyhGKVtjSF0z

>  <s_epik_cmdline>  (188) 
J2VwaWtfcHl0aG9uJywgJy1waHQnLCAnMi4wJywgJy1waCcsICc3LjAnLCAnLXRuJywgJzgnLCAnLW1hJywgJzIwMCcsICctaW1hZScsICc8aW5maWxlLm1hZT4nLCAnLW9tYWUnLCAnPG91dGZpbGUubWFlPic=

>  <r_lp_tautomer_probability>  (188) 
1

>  <r_epik_Ionization_Penalty>  (188) 
0.183054

>  <r_epik_Ionization_Penalty_Charging>  (188) 
0

>  <r_epik_Ionization_Penalty_Neutral>  (188) 
0.183054

>  <r_epik_State_Penalty>  (188) 
0.643042

>  <r_epik_Charging_Adjusted_Penalty>  (188) 
0.643042

>  <i_epik_Tot_Q>  (188) 
0

>  <i_epik_Tot_abs_Q>  (188) 
0

>  <s_lp_Force_Field>  (188) 
OPLS3e

>  <r_lp_Energy>  (188) 
37.3932

>  <b_lp_Chiralities_Consistent>  (188) 
1

>  <s_lp_Variant>  (188) 
51:0-2

>  <s_i_glide_gridfile>  (188) 
pfpi4k_grid

>  <i_i_glide_lignum>  (188) 
33

>  <i_i_glide_rotatable_bonds>  (188) 
2

>  <r_i_docking_score>  (188) 
-3.0587

>  <r_i_glide_ligand_efficiency>  (188) 
-0.160984

>  <r_i_glide_ligand_efficiency_sa>  (188) 
-0.42957

>  <r_i_glide_ligand_efficiency_ln>  (188) 
-0.775446

>  <r_i_glide_gscore>  (188) 
-3.0587

>  <r_i_glide_lipo>  (188) 
-0.272129

>  <r_i_glide_hbond>  (188) 
0

>  <r_i_glide_metal>  (188) 
-0

>  <r_i_glide_rewards>  (188) 
-1.7045

>  <r_i_glide_evdw>  (188) 
-20.8225

>  <r_i_glide_ecoul>  (188) 
-2.74844

>  <r_i_glide_erotb>  (188) 
0.522431

>  <r_i_glide_esite>  (188) 
-0.151116

>  <r_i_glide_emodel>  (188) 
-27.8259

>  <r_i_glide_energy>  (188) 
-23.5709

>  <r_i_glide_einternal>  (188) 
2.05043

>  <r_i_glide_intrahb_reward>  (188) 
-0

>  <i_i_glide_confnum>  (188) 
5

>  <i_i_glide_posenum>  (188) 
15

>  <r_i_glide_eff_state_penalty>  (188) 
0

>  <ligand_id>  (188) 
51

>  <original_smiles>  (188) 
Cc1nnc2n1CCN(Cc1cccc(F)c1)C2C

>  <smiles>  (188) 
[H]c1c([H])c(F)c([H])c(C([H])([H])N2C([H])([H])C([H])([H])n3c(C([H])([H])[H])nnc3C2([H])C([H])([H])[H])c1[H]

$$$$
51:1:2
     RDKit          3D

 36 38  0  0  1  0  0  0  0  0999 V2000
    3.4440   -1.0566   -2.6990 C   0  0  0  0  0  0  0  0  0  0  0  0
    4.2618   -1.6130   -1.5921 C   0  0  0  0  0  0  0  0  0  0  0  0
    5.4158   -1.0712   -1.1757 N   0  0  0  0  0  0  0  0  0  0  0  0
    5.8475   -1.8834   -0.1421 N   0  0  0  0  0  0  0  0  0  0  0  0
    4.9263   -2.8452   -0.0370 C   0  0  0  0  0  0  0  0  0  0  0  0
    3.9194   -2.7187   -0.9232 N   0  0  0  0  0  0  0  0  0  0  0  0
    2.7607   -3.5932   -1.0068 C   0  0  0  0  0  0  0  0  0  0  0  0
    2.9593   -4.8745   -0.1751 C   0  0  0  0  0  0  0  0  0  0  0  0
    3.6207   -4.6008    1.1093 N   0  0  0  0  0  0  0  0  0  0  0  0
    3.6394   -5.7885    1.9602 C   0  0  0  0  0  0  0  0  0  0  0  0
    2.2834   -6.2128    2.4688 C   0  0  0  0  0  0  0  0  0  0  0  0
    1.5695   -7.2266    1.7987 C   0  0  0  0  0  0  0  0  0  0  0  0
    0.2986   -7.6190    2.2582 C   0  0  0  0  0  0  0  0  0  0  0  0
   -0.2412   -7.0159    3.4127 C   0  0  0  0  0  0  0  0  0  0  0  0
    0.4808   -6.0164    4.0991 C   0  0  0  0  0  0  0  0  0  0  0  0
   -0.0498   -5.4275    5.1957 F   0  0  0  0  0  0  0  0  0  0  0  0
    1.7478   -5.6126    3.6261 C   0  0  0  0  0  0  0  0  0  0  0  0
    4.9675   -4.0329    0.8846 C   0  0  1  0  0  0  0  0  0  0  0  0
    6.0074   -5.0738    0.3739 C   0  0  0  0  0  0  0  0  0  0  0  0
    3.8971   -0.1385   -3.0706 H   0  0  0  0  0  0  0  0  0  0  0  0
    2.4497   -0.8280   -2.3256 H   0  0  0  0  0  0  0  0  0  0  0  0
    3.3747   -1.7787   -3.5120 H   0  0  0  0  0  0  0  0  0  0  0  0
    1.8916   -3.0457   -0.6421 H   0  0  0  0  0  0  0  0  0  0  0  0
    2.5787   -3.8469   -2.0517 H   0  0  0  0  0  0  0  0  0  0  0  0
    1.9865   -5.3488   -0.0395 H   0  0  0  0  0  0  0  0  0  0  0  0
    3.5703   -5.5912   -0.7238 H   0  0  0  0  0  0  0  0  0  0  0  0
    4.0446   -6.6378    1.4144 H   0  0  0  0  0  0  0  0  0  0  0  0
    4.2839   -5.6240    2.8231 H   0  0  0  0  0  0  0  0  0  0  0  0
    1.9922   -7.7005    0.9276 H   0  0  0  0  0  0  0  0  0  0  0  0
   -0.2447   -8.3873    1.7250 H   0  0  0  0  0  0  0  0  0  0  0  0
   -1.2152   -7.3166    3.7688 H   0  0  0  0  0  0  0  0  0  0  0  0
    2.3070   -4.8499    4.1443 H   0  0  0  0  0  0  0  0  0  0  0  0
    5.2981   -3.6604    1.8529 H   0  0  0  0  0  0  0  0  0  0  0  0
    7.0004   -4.6311    0.3001 H   0  0  0  0  0  0  0  0  0  0  0  0
    5.7544   -5.4281   -0.6276 H   0  0  0  0  0  0  0  0  0  0  0  0
    6.1319   -5.9525    1.0059 H   0  0  0  0  0  0  0  0  0  0  0  0
  1  2  1  0
  1 20  1  0
  1 21  1  0
  1 22  1  0
  2  6  1  0
  2  3  2  0
  3  4  1  0
  4  5  2  0
  5 18  1  0
  5  6  1  0
  6  7  1  0
  7  8  1  0
  7 23  1  0
  7 24  1  0
  8  9  1  0
  8 25  1  0
  8 26  1  0
  9 10  1  0
  9 18  1  0
 10 11  1  0
 10 27  1  0
 10 28  1  0
 11 17  1  0
 11 12  2  0
 12 13  1  0
 12 29  1  0
 13 14  2  0
 13 30  1  0
 14 15  1  0
 14 31  1  0
 15 16  1  0
 15 17  2  0
 17 32  1  0
 18 19  1  0
 18 33  1  1
 19 34  1  0
 19 35  1  0
 19 36  1  0
M  END
>  <i_m_ct_stereo_status>  (189) 
1

>  <s_m_source_file>  (189) 
/var/tmp/pbs.5076255.sched01/tmpb5cfx69f/43pm4c6kpw.sdf

>  <i_m_source_file_index>  (189) 
33

>  <i_lp_mmshare_version>  (189) 
48012

>  <i_f3d_flags>  (189) 
0

>  <s_epik_input>  (189) 
bjFuYyhbQ0gzXSluKGMxMilbQ0gyXVtDSDJdTihbQ0BIXTJbQ0gzXSlbQ0gyXWMzW2NIXVtjSF1bY0hdYyhGKVtjSF0z

>  <s_epik_cmdline>  (189) 
J2VwaWtfcHl0aG9uJywgJy1waHQnLCAnMi4wJywgJy1waCcsICc3LjAnLCAnLXRuJywgJzgnLCAnLW1hJywgJzIwMCcsICctaW1hZScsICc8aW5maWxlLm1hZT4nLCAnLW9tYWUnLCAnPG91dGZpbGUubWFlPic=

>  <r_lp_tautomer_probability>  (189) 
1

>  <r_epik_Ionization_Penalty>  (189) 
0.183054

>  <r_epik_Ionization_Penalty_Charging>  (189) 
0

>  <r_epik_Ionization_Penalty_Neutral>  (189) 
0.183054

>  <r_epik_State_Penalty>  (189) 
0.643042

>  <r_epik_Charging_Adjusted_Penalty>  (189) 
0.643042

>  <i_epik_Tot_Q>  (189) 
0

>  <i_epik_Tot_abs_Q>  (189) 
0

>  <s_lp_Force_Field>  (189) 
OPLS3e

>  <r_lp_Energy>  (189) 
37.3932

>  <b_lp_Chiralities_Consistent>  (189) 
1

>  <s_lp_Variant>  (189) 
51:0-2

>  <s_i_glide_gridfile>  (189) 
pfpi4k_grid

>  <i_i_glide_lignum>  (189) 
33

>  <i_i_glide_rotatable_bonds>  (189) 
2

>  <r_i_docking_score>  (189) 
-2.87742

>  <r_i_glide_ligand_efficiency>  (189) 
-0.151443

>  <r_i_glide_ligand_efficiency_sa>  (189) 
-0.404111

>  <r_i_glide_ligand_efficiency_ln>  (189) 
-0.729487

>  <r_i_glide_gscore>  (189) 
-2.87742

>  <r_i_glide_lipo>  (189) 
-0.175761

>  <r_i_glide_hbond>  (189) 
0

>  <r_i_glide_metal>  (189) 
-0

>  <r_i_glide_rewards>  (189) 
-1.6531

>  <r_i_glide_evdw>  (189) 
-20.4747

>  <r_i_glide_ecoul>  (189) 
-2.74915

>  <r_i_glide_erotb>  (189) 
0.522431

>  <r_i_glide_esite>  (189) 
-0.134879

>  <r_i_glide_emodel>  (189) 
-27.4431

>  <r_i_glide_energy>  (189) 
-23.2239

>  <r_i_glide_einternal>  (189) 
1.49418

>  <r_i_glide_intrahb_reward>  (189) 
-0

>  <i_i_glide_confnum>  (189) 
5

>  <i_i_glide_posenum>  (189) 
13

>  <r_i_glide_eff_state_penalty>  (189) 
0

>  <ligand_id>  (189) 
51

>  <original_smiles>  (189) 
Cc1nnc2n1CCN(Cc1cccc(F)c1)C2C

>  <smiles>  (189) 
[H]c1c([H])c(F)c([H])c(C([H])([H])N2C([H])([H])C([H])([H])n3c(C([H])([H])[H])nnc3C2([H])C([H])([H])[H])c1[H]

$$$$
53:0:0
     RDKit          3D

 66 71  0  0  1  0  0  0  0  0999 V2000
    3.2695   -1.2761    1.2345 C   0  0  0  0  0  0  0  0  0  0  0  0
    4.5121   -2.0477    0.7384 C   0  0  0  0  0  0  0  0  0  0  0  0
    5.8000   -1.2542    1.0587 C   0  0  0  0  0  0  0  0  0  0  0  0
    4.5469   -3.4396    1.4394 C   0  0  0  0  0  0  0  0  0  0  0  0
    4.7271   -3.5081    2.7771 C   0  0  0  0  0  0  0  0  0  0  0  0
    4.7238   -4.7668    3.6212 C   0  0  0  0  0  0  0  0  0  0  0  0
    4.3262   -6.0693    2.8623 C   0  0  1  0  0  0  0  0  0  0  0  0
    4.8918   -6.0229    1.4017 C   0  0  1  0  0  0  0  0  0  0  0  0
    6.4488   -5.9651    1.4444 C   0  0  0  0  0  0  0  0  0  0  0  0
    4.4632   -7.3327    0.6905 C   0  0  0  0  0  0  0  0  0  0  0  0
    4.7978   -8.6480    1.4098 C   0  0  1  0  0  0  0  0  0  0  0  0
    6.1808   -8.9138    1.2819 O   0  0  0  0  0  0  0  0  0  0  0  0
    4.2236   -8.6870    2.8632 C   0  0  1  0  0  0  0  0  0  0  0  0
    2.6881   -8.8991    2.7178 C   0  0  0  0  0  0  0  0  0  0  0  0
    4.7275   -9.9386    3.6392 C   0  0  0  0  0  0  0  0  0  0  0  0
    6.2000   -9.8974    4.0490 C   0  0  0  0  0  0  0  0  0  0  0  0
    6.8798  -10.9190    4.0229 O   0  0  0  0  0  0  0  0  0  0  0  0
    6.6886   -8.6867    4.3942 O   0  0  0  0  0  0  0  0  0  0  0  0
    5.8966   -7.4999    4.4968 C   0  0  2  0  0  0  0  0  0  0  0  0
    5.1667   -7.4330    5.8395 C   0  0  1  0  0  0  0  0  0  0  0  0
    5.4863   -6.3540    6.6897 O   0  0  0  0  0  0  0  0  0  0  0  0
    3.8511   -7.3456    5.0828 C   0  0  0  0  0  0  0  0  0  0  0  0
    4.5622   -7.3973    3.6931 C   0  0  1  0  0  0  0  0  0  0  0  0
    4.3283   -4.7384    0.6177 C   0  0  1  0  0  0  0  0  0  0  0  0
    2.7905   -4.8186    0.3714 C   0  0  0  0  0  0  0  0  0  0  0  0
    5.0052   -4.6130   -0.7863 C   0  0  0  0  0  0  0  0  0  0  0  0
    4.6680   -3.3021   -1.4408 C   0  0  0  0  0  0  0  0  0  0  0  0
    4.4490   -2.1811   -0.7806 C   0  0  0  0  0  0  0  0  0  0  0  0
    4.1250   -1.0749   -1.7469 C   0  0  0  0  0  0  0  0  0  0  0  0
    4.2071   -1.7326   -3.0096 O   0  0  0  0  0  0  0  0  0  0  0  0
    4.5129   -3.0470   -2.8778 C   0  0  0  0  0  0  0  0  0  0  0  0
    4.6417   -3.8486   -3.8020 O   0  0  0  0  0  0  0  0  0  0  0  0
    2.3538   -1.8148    0.9863 H   0  0  0  0  0  0  0  0  0  0  0  0
    3.1903   -0.2850    0.7873 H   0  0  0  0  0  0  0  0  0  0  0  0
    3.2785   -1.1400    2.3163 H   0  0  0  0  0  0  0  0  0  0  0  0
    6.6791   -1.8163    0.7377 H   0  0  0  0  0  0  0  0  0  0  0  0
    5.9216   -1.0452    2.1221 H   0  0  0  0  0  0  0  0  0  0  0  0
    5.8238   -0.2949    0.5397 H   0  0  0  0  0  0  0  0  0  0  0  0
    4.8743   -2.6003    3.3418 H   0  0  0  0  0  0  0  0  0  0  0  0
    5.7147   -4.8229    4.0663 H   0  0  0  0  0  0  0  0  0  0  0  0
    4.0355   -4.5783    4.4439 H   0  0  0  0  0  0  0  0  0  0  0  0
    3.2459   -6.0012    2.7701 H   0  0  0  0  0  0  0  0  0  0  0  0
    6.8845   -6.2618    0.4905 H   0  0  0  0  0  0  0  0  0  0  0  0
    6.8751   -6.6394    2.1833 H   0  0  0  0  0  0  0  0  0  0  0  0
    6.8276   -4.9698    1.6766 H   0  0  0  0  0  0  0  0  0  0  0  0
    3.3874   -7.3370    0.5776 H   0  0  0  0  0  0  0  0  0  0  0  0
    4.8520   -7.3715   -0.3204 H   0  0  0  0  0  0  0  0  0  0  0  0
    4.3377   -9.4611    0.8427 H   0  0  0  0  0  0  0  0  0  0  0  0
    6.3488   -9.7894    1.6024 H   0  0  0  0  0  0  0  0  0  0  0  0
    2.2010   -9.1716    3.6549 H   0  0  0  0  0  0  0  0  0  0  0  0
    2.4683   -9.7226    2.0329 H   0  0  0  0  0  0  0  0  0  0  0  0
    2.1728   -8.0211    2.3297 H   0  0  0  0  0  0  0  0  0  0  0  0
    4.1606  -10.0719    4.5592 H   0  0  0  0  0  0  0  0  0  0  0  0
    4.5647  -10.8440    3.0547 H   0  0  0  0  0  0  0  0  0  0  0  0
    6.5380   -6.6318    4.3682 H   0  0  0  0  0  0  0  0  0  0  0  0
    5.2385   -8.3649    6.4015 H   0  0  0  0  0  0  0  0  0  0  0  0
    5.0715   -6.5226    7.5220 H   0  0  0  0  0  0  0  0  0  0  0  0
    3.2100   -8.1954    5.3149 H   0  0  0  0  0  0  0  0  0  0  0  0
    3.3006   -6.4276    5.2806 H   0  0  0  0  0  0  0  0  0  0  0  0
    2.5166   -5.6147   -0.3193 H   0  0  0  0  0  0  0  0  0  0  0  0
    2.4098   -3.9047   -0.0827 H   0  0  0  0  0  0  0  0  0  0  0  0
    2.2146   -4.9405    1.2869 H   0  0  0  0  0  0  0  0  0  0  0  0
    6.0897   -4.6196   -0.7196 H   0  0  0  0  0  0  0  0  0  0  0  0
    4.7177   -5.4294   -1.4453 H   0  0  0  0  0  0  0  0  0  0  0  0
    4.8485   -0.2622   -1.6844 H   0  0  0  0  0  0  0  0  0  0  0  0
    3.1240   -0.6776   -1.5813 H   0  0  0  0  0  0  0  0  0  0  0  0
  1  2  1  0
  1 33  1  0
  1 34  1  0
  1 35  1  0
  2  3  1  0
  2  4  1  0
  2 28  1  0
  3 36  1  0
  3 37  1  0
  3 38  1  0
  4 24  1  0
  4  5  2  0
  5  6  1  0
  5 39  1  0
  6  7  1  0
  6 40  1  0
  6 41  1  0
  7 23  1  0
  7  8  1  0
  7 42  1  6
  8  9  1  1
  8 10  1  0
  8 24  1  0
  9 43  1  0
  9 44  1  0
  9 45  1  0
 10 11  1  0
 10 46  1  0
 10 47  1  0
 11 12  1  0
 11 13  1  0
 11 48  1  6
 12 49  1  0
 13 23  1  0
 13 14  1  6
 13 15  1  0
 14 50  1  0
 14 51  1  0
 14 52  1  0
 15 16  1  0
 15 53  1  0
 15 54  1  0
 16 17  2  0
 16 18  1  0
 18 19  1  0
 19 23  1  0
 19 20  1  0
 19 55  1  6
 20 21  1  0
 20 22  1  0
 20 56  1  1
 21 57  1  0
 23 22  1  1
 22 58  1  0
 22 59  1  0
 24 25  1  6
 24 26  1  0
 25 60  1  0
 25 61  1  0
 25 62  1  0
 26 63  1  0
 26 64  1  0
 26 27  1  0
 27 28  2  0
 27 31  1  0
 28 29  1  0
 29 30  1  0
 29 65  1  0
 29 66  1  0
 30 31  1  0
 31 32  2  0
M  END
>  <i_m_ct_stereo_status>  (190) 
1

>  <s_m_source_file>  (190) 
/var/tmp/pbs.5076255.sched01/tmpb5cfx69f/43pm4c6kpw.sdf

>  <i_m_source_file_index>  (190) 
35

>  <i_lp_mmshare_version>  (190) 
48012

>  <i_f3d_flags>  (190) 
0

>  <s_epik_input>  (190) 
W2NIXTFvYyhbT0hdKWMoW0NIMl0yKWMxQyhbQ0gzXSkoW0NIM10pQyg9W0NIXVtDSDJdMylbQ0BdMihbQ0gzXSlbQ0BdKFtDQEhdM1tDQEBdNDU2KShbQ0gzXSlbQ0gyXVtDQEBIXShbT0hdKVtDQEBdNChbQ0gzXSlbQ0gyXUMoPU8pT1tDQEBIXTVbQ0BASF0oW09IXSlbQ0gyXTY=

>  <s_epik_cmdline>  (190) 
J2VwaWtfcHl0aG9uJywgJy1waHQnLCAnMi4wJywgJy1waCcsICc3LjAnLCAnLXRuJywgJzgnLCAnLW1hJywgJzIwMCcsICctaW1hZScsICc8aW5maWxlLm1hZT4nLCAnLW9tYWUnLCAnPG91dGZpbGUubWFlPic=

>  <r_lp_tautomer_probability>  (190) 
1

>  <r_epik_Ionization_Penalty>  (190) 
2.7695e-07

>  <r_epik_Ionization_Penalty_Charging>  (190) 
0

>  <r_epik_Ionization_Penalty_Neutral>  (190) 
2.7695e-07

>  <r_epik_State_Penalty>  (190) 
-0

>  <r_epik_Charging_Adjusted_Penalty>  (190) 
0

>  <i_epik_Tot_Q>  (190) 
0

>  <i_epik_Tot_abs_Q>  (190) 
0

>  <s_epik_Chemistry_Notes>  (190) 
This compound has an ester and may undergo hydrolysis at high or low pH.

>  <s_lp_Force_Field>  (190) 
OPLS3e

>  <r_lp_Energy>  (190) 
57.5271

>  <b_lp_Chiralities_Consistent>  (190) 
1

>  <s_lp_Variant>  (190) 
53:0-1

>  <s_i_glide_gridfile>  (190) 
pfpi4k_grid

>  <i_i_glide_lignum>  (190) 
35

>  <i_i_glide_rotatable_bonds>  (190) 
2

>  <r_i_docking_score>  (190) 
-3.16947

>  <r_i_glide_ligand_efficiency>  (190) 
-0.099046

>  <r_i_glide_ligand_efficiency_sa>  (190) 
-0.314451

>  <r_i_glide_ligand_efficiency_ln>  (190) 
-0.709731

>  <r_i_glide_gscore>  (190) 
-3.16947

>  <r_i_glide_lipo>  (190) 
-0.528328

>  <r_i_glide_hbond>  (190) 
0

>  <r_i_glide_metal>  (190) 
-0

>  <r_i_glide_rewards>  (190) 
-0.509908

>  <r_i_glide_evdw>  (190) 
-33.9968

>  <r_i_glide_ecoul>  (190) 
-2.87085

>  <r_i_glide_erotb>  (190) 
0

>  <r_i_glide_esite>  (190) 
-0.000766376

>  <r_i_glide_emodel>  (190) 
-43.2469

>  <r_i_glide_energy>  (190) 
-36.8677

>  <r_i_glide_einternal>  (190) 
1.5454

>  <r_i_glide_intrahb_reward>  (190) 
-0

>  <i_i_glide_confnum>  (190) 
2

>  <i_i_glide_posenum>  (190) 
23

>  <r_i_glide_eff_state_penalty>  (190) 
0

>  <ligand_id>  (190) 
53

>  <original_smiles>  (190) 
CC1(C)C2=CCC3C(C)(CC(O)C4(C)CC(=O)OC5C(O)CC534)C2(C)Cc2c1coc2O

>  <smiles>  (190) 
[H]OC1([H])C([H])([H])C23C1([H])OC(=O)C([H])([H])C2(C([H])([H])[H])C([H])(O[H])C([H])([H])C1(C([H])([H])[H])C3([H])C([H])([H])C([H])=C2C(C([H])([H])[H])(C([H])([H])[H])C3=C(C(=O)OC3([H])[H])C([H])([H])C21C([H])([H])[H]

$$$$
53:0:1
     RDKit          3D

 66 71  0  0  1  0  0  0  0  0999 V2000
    3.2604   -1.2670    1.2104 C   0  0  0  0  0  0  0  0  0  0  0  0
    4.5048   -2.0334    0.7116 C   0  0  0  0  0  0  0  0  0  0  0  0
    5.7894   -1.2296    1.0226 C   0  0  0  0  0  0  0  0  0  0  0  0
    4.5520   -3.4216    1.4188 C   0  0  0  0  0  0  0  0  0  0  0  0
    4.7380   -3.4826    2.7558 C   0  0  0  0  0  0  0  0  0  0  0  0
    4.7463   -4.7373    3.6051 C   0  0  0  0  0  0  0  0  0  0  0  0
    4.3541   -6.0453    2.8554 C   0  0  1  0  0  0  0  0  0  0  0  0
    4.9123   -6.0028    1.3923 C   0  0  1  0  0  0  0  0  0  0  0  0
    6.4689   -5.9353    1.4286 C   0  0  0  0  0  0  0  0  0  0  0  0
    4.4894   -7.3189    0.6886 C   0  0  0  0  0  0  0  0  0  0  0  0
    4.8346   -8.6286    1.4127 C   0  0  1  0  0  0  0  0  0  0  0  0
    6.2181   -8.8865    1.2810 O   0  0  0  0  0  0  0  0  0  0  0  0
    4.2689   -8.6630    2.8705 C   0  0  1  0  0  0  0  0  0  0  0  0
    2.7342   -8.8857    2.7331 C   0  0  0  0  0  0  0  0  0  0  0  0
    4.7832   -9.9091    3.6490 C   0  0  0  0  0  0  0  0  0  0  0  0
    6.2575   -9.8579    4.0513 C   0  0  0  0  0  0  0  0  0  0  0  0
    6.9426  -10.8755    4.0273 O   0  0  0  0  0  0  0  0  0  0  0  0
    6.7421   -8.6414    4.3864 O   0  0  0  0  0  0  0  0  0  0  0  0
    5.9451   -7.4588    4.4890 C   0  0  2  0  0  0  0  0  0  0  0  0
    5.2211   -7.3882    5.8332 C   0  0  1  0  0  0  0  0  0  0  0  0
    5.5371   -6.3101    6.6857 O   0  0  0  0  0  0  0  0  0  0  0  0
    3.8996   -7.3126    5.0862 C   0  0  0  0  0  0  0  0  0  0  0  0
    4.6049   -7.3666    3.6927 C   0  0  1  0  0  0  0  0  0  0  0  0
    4.3376   -4.7251    0.6045 C   0  0  1  0  0  0  0  0  0  0  0  0
    2.8001   -4.8151    0.3666 C   0  0  0  0  0  0  0  0  0  0  0  0
    5.0075   -4.6023   -0.8020 C   0  0  0  0  0  0  0  0  0  0  0  0
    4.6583   -3.2966   -1.4626 C   0  0  0  0  0  0  0  0  0  0  0  0
    4.4352   -2.1752   -0.8059 C   0  0  0  0  0  0  0  0  0  0  0  0
    4.0985   -1.0762   -1.7761 C   0  0  0  0  0  0  0  0  0  0  0  0
    4.1785   -1.7384   -3.0361 O   0  0  0  0  0  0  0  0  0  0  0  0
    4.4942   -3.0496   -2.8992 C   0  0  0  0  0  0  0  0  0  0  0  0
    4.6238   -3.8541   -3.8212 O   0  0  0  0  0  0  0  0  0  0  0  0
    2.3479   -1.8140    0.9687 H   0  0  0  0  0  0  0  0  0  0  0  0
    3.1714   -0.2794    0.7568 H   0  0  0  0  0  0  0  0  0  0  0  0
    3.2730   -1.1262    2.2908 H   0  0  0  0  0  0  0  0  0  0  0  0
    6.6716   -1.7873    0.7010 H   0  0  0  0  0  0  0  0  0  0  0  0
    5.9119   -1.0129    2.0838 H   0  0  0  0  0  0  0  0  0  0  0  0
    5.8040   -0.2729    0.4977 H   0  0  0  0  0  0  0  0  0  0  0  0
    4.8814   -2.5710    3.3155 H   0  0  0  0  0  0  0  0  0  0  0  0
    5.7425   -4.7836    4.0381 H   0  0  0  0  0  0  0  0  0  0  0  0
    4.0582   -4.5478    4.4282 H   0  0  0  0  0  0  0  0  0  0  0  0
    3.2735   -5.9864    2.7662 H   0  0  0  0  0  0  0  0  0  0  0  0
    6.9028   -6.2389    0.4762 H   0  0  0  0  0  0  0  0  0  0  0  0
    6.9035   -6.6021    2.1690 H   0  0  0  0  0  0  0  0  0  0  0  0
    6.8435   -4.9360    1.6508 H   0  0  0  0  0  0  0  0  0  0  0  0
    3.4138   -7.3317    0.5772 H   0  0  0  0  0  0  0  0  0  0  0  0
    4.8796   -7.3598   -0.3216 H   0  0  0  0  0  0  0  0  0  0  0  0
    4.3772   -9.4485    0.8523 H   0  0  0  0  0  0  0  0  0  0  0  0
    6.3962   -9.7547    1.6103 H   0  0  0  0  0  0  0  0  0  0  0  0
    2.2536   -9.1547    3.6752 H   0  0  0  0  0  0  0  0  0  0  0  0
    2.5182   -9.7170    2.0553 H   0  0  0  0  0  0  0  0  0  0  0  0
    2.2103   -8.0137    2.3409 H   0  0  0  0  0  0  0  0  0  0  0  0
    4.2216  -10.0405    4.5723 H   0  0  0  0  0  0  0  0  0  0  0  0
    4.6229  -10.8180    3.0689 H   0  0  0  0  0  0  0  0  0  0  0  0
    6.5813   -6.5883    4.3460 H   0  0  0  0  0  0  0  0  0  0  0  0
    5.2925   -8.3215    6.3985 H   0  0  0  0  0  0  0  0  0  0  0  0
    5.4698   -5.5176    6.1751 H   0  0  0  0  0  0  0  0  0  0  0  0
    3.2687   -8.1682    5.3265 H   0  0  0  0  0  0  0  0  0  0  0  0
    3.3389   -6.3989    5.2819 H   0  0  0  0  0  0  0  0  0  0  0  0
    2.5276   -5.6182   -0.3166 H   0  0  0  0  0  0  0  0  0  0  0  0
    2.4112   -3.9073   -0.0919 H   0  0  0  0  0  0  0  0  0  0  0  0
    2.2270   -4.9397    1.2823 H   0  0  0  0  0  0  0  0  0  0  0  0
    6.0916   -4.6003   -0.7294 H   0  0  0  0  0  0  0  0  0  0  0  0
    4.7235   -5.4230   -1.4575 H   0  0  0  0  0  0  0  0  0  0  0  0
    4.8174   -0.2602   -1.7203 H   0  0  0  0  0  0  0  0  0  0  0  0
    3.0972   -0.6844   -1.6059 H   0  0  0  0  0  0  0  0  0  0  0  0
  1  2  1  0
  1 33  1  0
  1 34  1  0
  1 35  1  0
  2  3  1  0
  2  4  1  0
  2 28  1  0
  3 36  1  0
  3 37  1  0
  3 38  1  0
  4 24  1  0
  4  5  2  0
  5  6  1  0
  5 39  1  0
  6  7  1  0
  6 40  1  0
  6 41  1  0
  7 23  1  0
  7  8  1  0
  7 42  1  6
  8  9  1  1
  8 10  1  0
  8 24  1  0
  9 43  1  0
  9 44  1  0
  9 45  1  0
 10 11  1  0
 10 46  1  0
 10 47  1  0
 11 12  1  0
 11 13  1  0
 11 48  1  6
 12 49  1  0
 13 23  1  0
 13 14  1  6
 13 15  1  0
 14 50  1  0
 14 51  1  0
 14 52  1  0
 15 16  1  0
 15 53  1  0
 15 54  1  0
 16 17  2  0
 16 18  1  0
 18 19  1  0
 19 23  1  0
 19 20  1  0
 19 55  1  6
 20 21  1  0
 20 22  1  0
 20 56  1  1
 21 57  1  0
 23 22  1  1
 22 58  1  0
 22 59  1  0
 24 25  1  6
 24 26  1  0
 25 60  1  0
 25 61  1  0
 25 62  1  0
 26 63  1  0
 26 64  1  0
 26 27  1  0
 27 28  2  0
 27 31  1  0
 28 29  1  0
 29 30  1  0
 29 65  1  0
 29 66  1  0
 30 31  1  0
 31 32  2  0
M  END
>  <i_m_ct_stereo_status>  (191) 
1

>  <s_m_source_file>  (191) 
/var/tmp/pbs.5076255.sched01/tmpb5cfx69f/43pm4c6kpw.sdf

>  <i_m_source_file_index>  (191) 
35

>  <i_lp_mmshare_version>  (191) 
48012

>  <i_f3d_flags>  (191) 
0

>  <s_epik_input>  (191) 
W2NIXTFvYyhbT0hdKWMoW0NIMl0yKWMxQyhbQ0gzXSkoW0NIM10pQyg9W0NIXVtDSDJdMylbQ0BdMihbQ0gzXSlbQ0BdKFtDQEhdM1tDQEBdNDU2KShbQ0gzXSlbQ0gyXVtDQEBIXShbT0hdKVtDQEBdNChbQ0gzXSlbQ0gyXUMoPU8pT1tDQEBIXTVbQ0BASF0oW09IXSlbQ0gyXTY=

>  <s_epik_cmdline>  (191) 
J2VwaWtfcHl0aG9uJywgJy1waHQnLCAnMi4wJywgJy1waCcsICc3LjAnLCAnLXRuJywgJzgnLCAnLW1hJywgJzIwMCcsICctaW1hZScsICc8aW5maWxlLm1hZT4nLCAnLW9tYWUnLCAnPG91dGZpbGUubWFlPic=

>  <r_lp_tautomer_probability>  (191) 
1

>  <r_epik_Ionization_Penalty>  (191) 
2.7695e-07

>  <r_epik_Ionization_Penalty_Charging>  (191) 
0

>  <r_epik_Ionization_Penalty_Neutral>  (191) 
2.7695e-07

>  <r_epik_State_Penalty>  (191) 
-0

>  <r_epik_Charging_Adjusted_Penalty>  (191) 
0

>  <i_epik_Tot_Q>  (191) 
0

>  <i_epik_Tot_abs_Q>  (191) 
0

>  <s_epik_Chemistry_Notes>  (191) 
This compound has an ester and may undergo hydrolysis at high or low pH.

>  <s_lp_Force_Field>  (191) 
OPLS3e

>  <r_lp_Energy>  (191) 
57.5271

>  <b_lp_Chiralities_Consistent>  (191) 
1

>  <s_lp_Variant>  (191) 
53:0-1

>  <s_i_glide_gridfile>  (191) 
pfpi4k_grid

>  <i_i_glide_lignum>  (191) 
35

>  <i_i_glide_rotatable_bonds>  (191) 
2

>  <r_i_docking_score>  (191) 
-3.16137

>  <r_i_glide_ligand_efficiency>  (191) 
-0.0987928

>  <r_i_glide_ligand_efficiency_sa>  (191) 
-0.313648

>  <r_i_glide_ligand_efficiency_ln>  (191) 
-0.707917

>  <r_i_glide_gscore>  (191) 
-3.16137

>  <r_i_glide_lipo>  (191) 
-0.520587

>  <r_i_glide_hbond>  (191) 
0

>  <r_i_glide_metal>  (191) 
-0

>  <r_i_glide_rewards>  (191) 
-0.509796

>  <r_i_glide_evdw>  (191) 
-34.0145

>  <r_i_glide_ecoul>  (191) 
-2.86569

>  <r_i_glide_erotb>  (191) 
0

>  <r_i_glide_esite>  (191) 
-0.000410625

>  <r_i_glide_emodel>  (191) 
-43.8421

>  <r_i_glide_energy>  (191) 
-36.8802

>  <r_i_glide_einternal>  (191) 
0.329557

>  <r_i_glide_intrahb_reward>  (191) 
-0

>  <i_i_glide_confnum>  (191) 
1

>  <i_i_glide_posenum>  (191) 
19

>  <r_i_glide_eff_state_penalty>  (191) 
0

>  <ligand_id>  (191) 
53

>  <original_smiles>  (191) 
CC1(C)C2=CCC3C(C)(CC(O)C4(C)CC(=O)OC5C(O)CC534)C2(C)Cc2c1coc2O

>  <smiles>  (191) 
[H]OC1([H])C([H])([H])C23C1([H])OC(=O)C([H])([H])C2(C([H])([H])[H])C([H])(O[H])C([H])([H])C1(C([H])([H])[H])C3([H])C([H])([H])C([H])=C2C(C([H])([H])[H])(C([H])([H])[H])C3=C(C(=O)OC3([H])[H])C([H])([H])C21C([H])([H])[H]

$$$$
53:0:2
     RDKit          3D

 66 71  0  0  1  0  0  0  0  0999 V2000
    5.8286   -1.0174    0.8301 C   0  0  0  0  0  0  0  0  0  0  0  0
    5.7241   -2.3267    0.0225 C   0  0  0  0  0  0  0  0  0  0  0  0
    7.0911   -2.6790   -0.6104 C   0  0  0  0  0  0  0  0  0  0  0  0
    5.2588   -3.4677    0.9742 C   0  0  0  0  0  0  0  0  0  0  0  0
    6.0716   -3.8753    1.9687 C   0  0  0  0  0  0  0  0  0  0  0  0
    5.7650   -4.9144    3.0252 C   0  0  0  0  0  0  0  0  0  0  0  0
    4.3077   -5.4550    3.0112 C   0  0  1  0  0  0  0  0  0  0  0  0
    3.8038   -5.5578    1.5319 C   0  0  1  0  0  0  0  0  0  0  0  0
    4.7007   -6.5707    0.7529 C   0  0  0  0  0  0  0  0  0  0  0  0
    2.3507   -6.0974    1.5546 C   0  0  0  0  0  0  0  0  0  0  0  0
    2.1298   -7.3859    2.3600 C   0  0  1  0  0  0  0  0  0  0  0  0
    2.6224   -8.4884    1.6352 O   0  0  0  0  0  0  0  0  0  0  0  0
    2.6274   -7.2714    3.8393 C   0  0  1  0  0  0  0  0  0  0  0  0
    1.5940   -6.3649    4.5745 C   0  0  0  0  0  0  0  0  0  0  0  0
    2.5500   -8.6433    4.5734 C   0  0  0  0  0  0  0  0  0  0  0  0
    3.5873   -9.6713    4.1389 C   0  0  0  0  0  0  0  0  0  0  0  0
    3.2989  -10.8625    4.1010 O   0  0  0  0  0  0  0  0  0  0  0  0
    4.8009   -9.1786    3.7905 O   0  0  0  0  0  0  0  0  0  0  0  0
    5.1886   -7.8088    3.9448 C   0  0  2  0  0  0  0  0  0  0  0  0
    5.6070   -7.4933    5.3803 C   0  0  1  0  0  0  0  0  0  0  0  0
    6.9371   -7.0754    5.5916 O   0  0  0  0  0  0  0  0  0  0  0  0
    4.5337   -6.4201    5.4233 C   0  0  0  0  0  0  0  0  0  0  0  0
    4.0856   -6.7079    3.9528 C   0  0  1  0  0  0  0  0  0  0  0  0
    3.8622   -4.1144    0.8226 C   0  0  1  0  0  0  0  0  0  0  0  0
    2.8617   -3.0963    1.4341 C   0  0  0  0  0  0  0  0  0  0  0  0
    3.5079   -4.2425   -0.6833 C   0  0  0  0  0  0  0  0  0  0  0  0
    3.7840   -2.9732   -1.4328 C   0  0  0  0  0  0  0  0  0  0  0  0
    4.7452   -2.1277   -1.1261 C   0  0  0  0  0  0  0  0  0  0  0  0
    4.7075   -0.9566   -2.0616 C   0  0  0  0  0  0  0  0  0  0  0  0
    3.6314   -1.2827   -2.9340 O   0  0  0  0  0  0  0  0  0  0  0  0
    3.0607   -2.4682   -2.5994 C   0  0  0  0  0  0  0  0  0  0  0  0
    2.1330   -3.0118   -3.1890 O   0  0  0  0  0  0  0  0  0  0  0  0
    4.8628   -0.7500    1.2605 H   0  0  0  0  0  0  0  0  0  0  0  0
    6.1573   -0.1771    0.2184 H   0  0  0  0  0  0  0  0  0  0  0  0
    6.5370   -1.1048    1.6555 H   0  0  0  0  0  0  0  0  0  0  0  0
    7.0237   -3.6224   -1.1540 H   0  0  0  0  0  0  0  0  0  0  0  0
    7.8952   -2.7809    0.1204 H   0  0  0  0  0  0  0  0  0  0  0  0
    7.4091   -1.9300   -1.3330 H   0  0  0  0  0  0  0  0  0  0  0  0
    7.0342   -3.4122    2.0693 H   0  0  0  0  0  0  0  0  0  0  0  0
    6.5162   -5.6895    2.8914 H   0  0  0  0  0  0  0  0  0  0  0  0
    5.9816   -4.4447    3.9826 H   0  0  0  0  0  0  0  0  0  0  0  0
    3.7281   -4.6606    3.4735 H   0  0  0  0  0  0  0  0  0  0  0  0
    4.2117   -6.9234   -0.1558 H   0  0  0  0  0  0  0  0  0  0  0  0
    4.9416   -7.4610    1.3263 H   0  0  0  0  0  0  0  0  0  0  0  0
    5.6564   -6.1436    0.4492 H   0  0  0  0  0  0  0  0  0  0  0  0
    1.7056   -5.3586    2.0151 H   0  0  0  0  0  0  0  0  0  0  0  0
    1.9671   -6.2382    0.5458 H   0  0  0  0  0  0  0  0  0  0  0  0
    1.0545   -7.5771    2.3812 H   0  0  0  0  0  0  0  0  0  0  0  0
    3.5692   -8.4848    1.6782 H   0  0  0  0  0  0  0  0  0  0  0  0
    1.6986   -6.3891    5.6610 H   0  0  0  0  0  0  0  0  0  0  0  0
    0.5723   -6.7008    4.3789 H   0  0  0  0  0  0  0  0  0  0  0  0
    1.6490   -5.3191    4.2659 H   0  0  0  0  0  0  0  0  0  0  0  0
    2.6860   -8.5100    5.6451 H   0  0  0  0  0  0  0  0  0  0  0  0
    1.5622   -9.0897    4.4503 H   0  0  0  0  0  0  0  0  0  0  0  0
    5.9997   -7.5935    3.2546 H   0  0  0  0  0  0  0  0  0  0  0  0
    5.3724   -8.3004    6.0769 H   0  0  0  0  0  0  0  0  0  0  0  0
    7.1325   -6.4156    4.9412 H   0  0  0  0  0  0  0  0  0  0  0  0
    3.7924   -6.6441    6.1897 H   0  0  0  0  0  0  0  0  0  0  0  0
    4.9217   -5.4156    5.5972 H   0  0  0  0  0  0  0  0  0  0  0  0
    1.8250   -3.3739    1.2559 H   0  0  0  0  0  0  0  0  0  0  0  0
    2.9742   -2.1084    0.9882 H   0  0  0  0  0  0  0  0  0  0  0  0
    3.0028   -2.9484    2.5030 H   0  0  0  0  0  0  0  0  0  0  0  0
    4.1696   -4.9712   -1.1372 H   0  0  0  0  0  0  0  0  0  0  0  0
    2.4703   -4.5361   -0.8405 H   0  0  0  0  0  0  0  0  0  0  0  0
    5.6362   -0.8717   -2.6189 H   0  0  0  0  0  0  0  0  0  0  0  0
    4.5236   -0.0224   -1.5314 H   0  0  0  0  0  0  0  0  0  0  0  0
  1  2  1  0
  1 33  1  0
  1 34  1  0
  1 35  1  0
  2  3  1  0
  2  4  1  0
  2 28  1  0
  3 36  1  0
  3 37  1  0
  3 38  1  0
  4 24  1  0
  4  5  2  0
  5  6  1  0
  5 39  1  0
  6  7  1  0
  6 40  1  0
  6 41  1  0
  7 23  1  0
  7  8  1  0
  7 42  1  1
  8  9  1  6
  8 10  1  0
  8 24  1  0
  9 43  1  0
  9 44  1  0
  9 45  1  0
 10 11  1  0
 10 46  1  0
 10 47  1  0
 11 12  1  0
 11 13  1  0
 11 48  1  1
 12 49  1  0
 13 23  1  0
 13 14  1  1
 13 15  1  0
 14 50  1  0
 14 51  1  0
 14 52  1  0
 15 16  1  0
 15 53  1  0
 15 54  1  0
 16 17  2  0
 16 18  1  0
 18 19  1  0
 19 23  1  0
 19 20  1  0
 19 55  1  6
 20 21  1  0
 20 22  1  0
 20 56  1  1
 21 57  1  0
 23 22  1  1
 22 58  1  0
 22 59  1  0
 24 25  1  1
 24 26  1  0
 25 60  1  0
 25 61  1  0
 25 62  1  0
 26 63  1  0
 26 64  1  0
 26 27  1  0
 27 28  2  0
 27 31  1  0
 28 29  1  0
 29 30  1  0
 29 65  1  0
 29 66  1  0
 30 31  1  0
 31 32  2  0
M  END
>  <i_m_ct_stereo_status>  (192) 
1

>  <s_m_source_file>  (192) 
/var/tmp/pbs.5076255.sched01/tmpb5cfx69f/43pm4c6kpw.sdf

>  <i_m_source_file_index>  (192) 
35

>  <i_lp_mmshare_version>  (192) 
48012

>  <i_f3d_flags>  (192) 
0

>  <s_epik_input>  (192) 
W2NIXTFvYyhbT0hdKWMoW0NIMl0yKWMxQyhbQ0gzXSkoW0NIM10pQyg9W0NIXVtDSDJdMylbQ0BdMihbQ0gzXSlbQ0BdKFtDQEhdM1tDQEBdNDU2KShbQ0gzXSlbQ0gyXVtDQEBIXShbT0hdKVtDQEBdNChbQ0gzXSlbQ0gyXUMoPU8pT1tDQEBIXTVbQ0BASF0oW09IXSlbQ0gyXTY=

>  <s_epik_cmdline>  (192) 
J2VwaWtfcHl0aG9uJywgJy1waHQnLCAnMi4wJywgJy1waCcsICc3LjAnLCAnLXRuJywgJzgnLCAnLW1hJywgJzIwMCcsICctaW1hZScsICc8aW5maWxlLm1hZT4nLCAnLW9tYWUnLCAnPG91dGZpbGUubWFlPic=

>  <r_lp_tautomer_probability>  (192) 
1

>  <r_epik_Ionization_Penalty>  (192) 
2.7695e-07

>  <r_epik_Ionization_Penalty_Charging>  (192) 
0

>  <r_epik_Ionization_Penalty_Neutral>  (192) 
2.7695e-07

>  <r_epik_State_Penalty>  (192) 
-0

>  <r_epik_Charging_Adjusted_Penalty>  (192) 
0

>  <i_epik_Tot_Q>  (192) 
0

>  <i_epik_Tot_abs_Q>  (192) 
0

>  <s_epik_Chemistry_Notes>  (192) 
This compound has an ester and may undergo hydrolysis at high or low pH.

>  <s_lp_Force_Field>  (192) 
OPLS3e

>  <r_lp_Energy>  (192) 
57.5271

>  <b_lp_Chiralities_Consistent>  (192) 
1

>  <s_lp_Variant>  (192) 
53:0-1

>  <s_i_glide_gridfile>  (192) 
pfpi4k_grid

>  <i_i_glide_lignum>  (192) 
35

>  <i_i_glide_rotatable_bonds>  (192) 
2

>  <r_i_docking_score>  (192) 
-1.96839

>  <r_i_glide_ligand_efficiency>  (192) 
-0.0615122

>  <r_i_glide_ligand_efficiency_sa>  (192) 
-0.195289

>  <r_i_glide_ligand_efficiency_ln>  (192) 
-0.440776

>  <r_i_glide_gscore>  (192) 
-1.96839

>  <r_i_glide_lipo>  (192) 
-0.376068

>  <r_i_glide_hbond>  (192) 
0

>  <r_i_glide_metal>  (192) 
-0

>  <r_i_glide_rewards>  (192) 
-0.391742

>  <r_i_glide_evdw>  (192) 
-30.1532

>  <r_i_glide_ecoul>  (192) 
2.36704

>  <r_i_glide_erotb>  (192) 
0

>  <r_i_glide_esite>  (192) 
-0.0479785

>  <r_i_glide_emodel>  (192) 
-31.9304

>  <r_i_glide_energy>  (192) 
-27.7861

>  <r_i_glide_einternal>  (192) 
0.0994013

>  <r_i_glide_intrahb_reward>  (192) 
-0

>  <i_i_glide_confnum>  (192) 
2

>  <i_i_glide_posenum>  (192) 
1

>  <r_i_glide_eff_state_penalty>  (192) 
0

>  <ligand_id>  (192) 
53

>  <original_smiles>  (192) 
CC1(C)C2=CCC3C(C)(CC(O)C4(C)CC(=O)OC5C(O)CC534)C2(C)Cc2c1coc2O

>  <smiles>  (192) 
[H]OC1([H])C([H])([H])C23C1([H])OC(=O)C([H])([H])C2(C([H])([H])[H])C([H])(O[H])C([H])([H])C1(C([H])([H])[H])C3([H])C([H])([H])C([H])=C2C(C([H])([H])[H])(C([H])([H])[H])C3=C(C(=O)OC3([H])[H])C([H])([H])C21C([H])([H])[H]

$$$$
54:0:0
     RDKit          3D

 42 45  0  0  1  0  0  0  0  0999 V2000
    4.0113   -2.1001   -2.7409 C   0  0  0  0  0  0  0  0  0  0  0  0
    4.3607   -2.7278   -1.6015 C   0  0  0  0  0  0  0  0  0  0  0  0
    4.7960   -4.1844   -1.6926 C   0  0  0  0  0  0  0  0  0  0  0  0
    4.1868   -5.0414   -0.5940 C   0  0  0  0  0  0  0  0  0  0  0  0
    4.5552   -4.5126    0.7973 C   0  0  1  0  0  0  0  0  0  0  0  0
    6.0707   -4.7744    1.1957 C   0  0  1  0  0  0  0  0  0  0  0  0
    6.5501   -6.1789    0.7881 C   0  0  0  0  0  0  0  0  0  0  0  0
    7.2053   -3.6899    1.0256 C   0  0  1  0  0  0  0  0  0  0  0  0
    8.4495   -4.2381    0.6209 O   0  0  0  0  0  0  0  0  0  0  0  0
    6.8949   -2.3923    0.2592 C   0  0  2  0  0  0  0  0  0  0  0  0
    7.2612   -2.4718   -1.1026 O   0  0  0  0  0  0  0  0  0  0  0  0
    7.5195   -1.2363    0.8637 O   0  0  0  0  0  0  0  0  0  0  0  0
    6.3071   -0.4755    0.6193 C   0  0  0  0  0  0  0  0  0  0  0  0
    5.5400   -1.7686    0.5689 C   0  0  2  0  0  0  0  0  0  0  0  0
    4.7830   -2.1464    1.8512 C   0  0  1  0  0  0  0  0  0  0  0  0
    4.1027   -1.1133    2.5426 O   0  0  0  0  0  0  0  0  0  0  0  0
    3.9579   -3.0809    0.9582 C   0  0  2  0  0  0  0  0  0  0  0  0
    2.4772   -3.2067    1.3326 C   0  0  0  0  0  0  0  0  0  0  0  0
    4.2533   -2.0737   -0.2035 C   0  0  2  0  0  0  0  0  0  0  0  0
    3.4164   -0.9430   -0.2660 O   0  0  0  0  0  0  0  0  0  0  0  0
    3.6602   -1.0798   -2.7589 H   0  0  0  0  0  0  0  0  0  0  0  0
    4.0602   -2.6247   -3.6860 H   0  0  0  0  0  0  0  0  0  0  0  0
    4.5564   -4.5902   -2.6761 H   0  0  0  0  0  0  0  0  0  0  0  0
    5.8675   -4.2858   -1.6449 H   0  0  0  0  0  0  0  0  0  0  0  0
    3.1057   -5.0186   -0.7027 H   0  0  0  0  0  0  0  0  0  0  0  0
    4.4543   -6.0882   -0.7199 H   0  0  0  0  0  0  0  0  0  0  0  0
    4.0075   -5.1638    1.4843 H   0  0  0  0  0  0  0  0  0  0  0  0
    6.0077   -4.8738    2.2827 H   0  0  0  0  0  0  0  0  0  0  0  0
    6.7738   -6.1993   -0.2758 H   0  0  0  0  0  0  0  0  0  0  0  0
    5.7893   -6.9313    0.9927 H   0  0  0  0  0  0  0  0  0  0  0  0
    7.4530   -6.4863    1.3193 H   0  0  0  0  0  0  0  0  0  0  0  0
    7.3833   -3.3945    2.0506 H   0  0  0  0  0  0  0  0  0  0  0  0
    8.6952   -4.8615    1.2902 H   0  0  0  0  0  0  0  0  0  0  0  0
    6.9154   -3.2899   -1.4228 H   0  0  0  0  0  0  0  0  0  0  0  0
    5.9993    0.1377    1.4563 H   0  0  0  0  0  0  0  0  0  0  0  0
    6.3147    0.0739   -0.3176 H   0  0  0  0  0  0  0  0  0  0  0  0
    5.3798   -2.6826    2.5852 H   0  0  0  0  0  0  0  0  0  0  0  0
    3.5430   -0.6793    1.9071 H   0  0  0  0  0  0  0  0  0  0  0  0
    2.0078   -2.2357    1.4929 H   0  0  0  0  0  0  0  0  0  0  0  0
    2.3272   -3.7762    2.2495 H   0  0  0  0  0  0  0  0  0  0  0  0
    1.9163   -3.6794    0.5311 H   0  0  0  0  0  0  0  0  0  0  0  0
    2.5299   -1.2218   -0.4912 H   0  0  0  0  0  0  0  0  0  0  0  0
  1  2  2  0
  1 21  1  0
  1 22  1  0
  2 19  1  0
  2  3  1  0
  3  4  1  0
  3 23  1  0
  3 24  1  0
  4  5  1  0
  4 25  1  0
  4 26  1  0
  5 17  1  0
  5  6  1  0
  5 27  1  1
  6  7  1  0
  6  8  1  0
  6 28  1  1
  7 29  1  0
  7 30  1  0
  7 31  1  0
  8  9  1  0
  8 10  1  0
  8 32  1  1
  9 33  1  0
 10 14  1  0
 10 11  1  6
 10 12  1  0
 11 34  1  0
 12 13  1  0
 14 13  1  1
 13 35  1  0
 13 36  1  0
 14 19  1  0
 14 15  1  0
 15 16  1  0
 15 17  1  0
 15 37  1  1
 16 38  1  0
 17 18  1  1
 17 19  1  0
 18 39  1  0
 18 40  1  0
 18 41  1  0
 19 20  1  6
 20 42  1  0
M  END
>  <i_m_ct_stereo_status>  (193) 
1

>  <s_m_source_file>  (193) 
/var/tmp/pbs.5076255.sched01/tmpb5cfx69f/43pm4c6kpw.sdf

>  <i_m_source_file_index>  (193) 
36

>  <i_lp_mmshare_version>  (193) 
48012

>  <i_f3d_flags>  (193) 
0

>  <s_epik_input>  (193) 
W0NIMl0xW0NIMl1DKD1bQ0gyXSlbQ0BAXTIoW09IXSlbQ0BdKFtDSDNdKShbQ0BASF0zW09IXSlbQ0BASF0xW0NAQEhdKFtDSDNdKVtDQEBIXShbT0hdKVtDQF0oW0NAQF0yMzQpKFtPSF0pT1tDSDJdNA==

>  <s_epik_cmdline>  (193) 
J2VwaWtfcHl0aG9uJywgJy1waHQnLCAnMi4wJywgJy1waCcsICc3LjAnLCAnLXRuJywgJzgnLCAnLW1hJywgJzIwMCcsICctaW1hZScsICc8aW5maWxlLm1hZT4nLCAnLW9tYWUnLCAnPG91dGZpbGUubWFlPic=

>  <r_lp_tautomer_probability>  (193) 
1

>  <r_epik_Ionization_Penalty>  (193) 
4.00431e-07

>  <r_epik_Ionization_Penalty_Charging>  (193) 
0

>  <r_epik_Ionization_Penalty_Neutral>  (193) 
4.00431e-07

>  <r_epik_State_Penalty>  (193) 
-0

>  <r_epik_Charging_Adjusted_Penalty>  (193) 
0

>  <i_epik_Tot_Q>  (193) 
0

>  <i_epik_Tot_abs_Q>  (193) 
0

>  <s_lp_Force_Field>  (193) 
OPLS3e

>  <r_lp_Energy>  (193) 
48.0384

>  <b_lp_Chiralities_Consistent>  (193) 
1

>  <s_lp_Variant>  (193) 
54:0-1

>  <s_i_glide_gridfile>  (193) 
pfpi4k_grid

>  <i_i_glide_lignum>  (193) 
36

>  <i_i_glide_rotatable_bonds>  (193) 
4

>  <r_i_docking_score>  (193) 
-4.06284

>  <r_i_glide_ligand_efficiency>  (193) 
-0.203142

>  <r_i_glide_ligand_efficiency_sa>  (193) 
-0.551412

>  <r_i_glide_ligand_efficiency_ln>  (193) 
-1.0168

>  <r_i_glide_gscore>  (193) 
-4.06284

>  <r_i_glide_lipo>  (193) 
-0.471822

>  <r_i_glide_hbond>  (193) 
0

>  <r_i_glide_metal>  (193) 
-0

>  <r_i_glide_rewards>  (193) 
-2.09949

>  <r_i_glide_evdw>  (193) 
-11.2334

>  <r_i_glide_ecoul>  (193) 
-6.19905

>  <r_i_glide_erotb>  (193) 
0

>  <r_i_glide_esite>  (193) 
0

>  <r_i_glide_emodel>  (193) 
-26.5991

>  <r_i_glide_energy>  (193) 
-17.4324

>  <r_i_glide_einternal>  (193) 
1.50676

>  <r_i_glide_intrahb_reward>  (193) 
-0.5

>  <i_i_glide_confnum>  (193) 
2

>  <i_i_glide_posenum>  (193) 
14

>  <r_i_glide_eff_state_penalty>  (193) 
0

>  <ligand_id>  (193) 
54

>  <original_smiles>  (193) 
C=C1CCC2C(C)C(O)C3(O)OCC34C(O)C2(C)C14O

>  <smiles>  (193) 
[H]OC1([H])C2(O[H])OC([H])([H])C23C([H])(O[H])C2(C([H])([H])[H])C3(O[H])C(=C([H])[H])C([H])([H])C([H])([H])C2([H])C1([H])C([H])([H])[H]

$$$$
54:0:1
     RDKit          3D

 42 45  0  0  1  0  0  0  0  0999 V2000
    3.0621   -3.1275   -2.3278 C   0  0  0  0  0  0  0  0  0  0  0  0
    3.4935   -3.0429   -1.0584 C   0  0  0  0  0  0  0  0  0  0  0  0
    2.6276   -3.6745    0.0349 C   0  0  0  0  0  0  0  0  0  0  0  0
    2.4534   -2.7697    1.2418 C   0  0  0  0  0  0  0  0  0  0  0  0
    3.8170   -2.3964    1.8416 C   0  0  1  0  0  0  0  0  0  0  0  0
    4.5352   -3.5869    2.6235 C   0  0  1  0  0  0  0  0  0  0  0  0
    3.5333   -4.4167    3.4616 C   0  0  0  0  0  0  0  0  0  0  0  0
    5.6943   -4.4772    1.9977 C   0  0  1  0  0  0  0  0  0  0  0  0
    5.6121   -5.8338    2.4002 O   0  0  0  0  0  0  0  0  0  0  0  0
    5.9391   -4.3702    0.4822 C   0  0  2  0  0  0  0  0  0  0  0  0
    5.1638   -5.3351   -0.2018 O   0  0  0  0  0  0  0  0  0  0  0  0
    7.3530   -4.4790    0.1508 O   0  0  0  0  0  0  0  0  0  0  0  0
    7.1933   -3.4241   -0.8367 C   0  0  0  0  0  0  0  0  0  0  0  0
    5.9644   -2.9407   -0.0841 C   0  0  2  0  0  0  0  0  0  0  0  0
    6.1426   -1.7583    0.8885 C   0  0  1  0  0  0  0  0  0  0  0  0
    6.9719   -0.6819    0.4797 O   0  0  0  0  0  0  0  0  0  0  0  0
    4.6224   -1.5785    0.7865 C   0  0  2  0  0  0  0  0  0  0  0  0
    4.1094   -0.1341    0.8196 C   0  0  0  0  0  0  0  0  0  0  0  0
    4.7331   -2.2126   -0.6467 C   0  0  2  0  0  0  0  0  0  0  0  0
    5.0542   -1.3273   -1.7081 O   0  0  0  0  0  0  0  0  0  0  0  0
    3.5838   -2.6865   -3.1688 H   0  0  0  0  0  0  0  0  0  0  0  0
    2.1637   -3.6885   -2.5565 H   0  0  0  0  0  0  0  0  0  0  0  0
    1.6634   -3.9193   -0.3989 H   0  0  0  0  0  0  0  0  0  0  0  0
    3.0066   -4.6250    0.3792 H   0  0  0  0  0  0  0  0  0  0  0  0
    1.9267   -1.8716    0.9303 H   0  0  0  0  0  0  0  0  0  0  0  0
    1.8068   -3.2235    1.9875 H   0  0  0  0  0  0  0  0  0  0  0  0
    3.5608   -1.7035    2.6458 H   0  0  0  0  0  0  0  0  0  0  0  0
    5.0837   -3.0509    3.4003 H   0  0  0  0  0  0  0  0  0  0  0  0
    2.9507   -5.1068    2.8433 H   0  0  0  0  0  0  0  0  0  0  0  0
    2.8373   -3.7639    3.9913 H   0  0  0  0  0  0  0  0  0  0  0  0
    4.0442   -5.0089    4.2248 H   0  0  0  0  0  0  0  0  0  0  0  0
    6.6116   -4.1541    2.4850 H   0  0  0  0  0  0  0  0  0  0  0  0
    4.8971   -6.2290    1.9169 H   0  0  0  0  0  0  0  0  0  0  0  0
    4.7645   -4.9094   -0.9532 H   0  0  0  0  0  0  0  0  0  0  0  0
    8.0151   -2.7086   -0.8529 H   0  0  0  0  0  0  0  0  0  0  0  0
    6.9738   -3.8065   -1.8292 H   0  0  0  0  0  0  0  0  0  0  0  0
    6.4667   -2.0483    1.8796 H   0  0  0  0  0  0  0  0  0  0  0  0
    7.1623   -0.1252    1.2327 H   0  0  0  0  0  0  0  0  0  0  0  0
    4.6418    0.4949    0.1143 H   0  0  0  0  0  0  0  0  0  0  0  0
    4.2173    0.3225    1.8012 H   0  0  0  0  0  0  0  0  0  0  0  0
    3.0644   -0.0673    0.5263 H   0  0  0  0  0  0  0  0  0  0  0  0
    4.2754   -0.8069   -1.8483 H   0  0  0  0  0  0  0  0  0  0  0  0
  1  2  2  0
  1 21  1  0
  1 22  1  0
  2 19  1  0
  2  3  1  0
  3  4  1  0
  3 23  1  0
  3 24  1  0
  4  5  1  0
  4 25  1  0
  4 26  1  0
  5 17  1  0
  5  6  1  0
  5 27  1  1
  6  7  1  0
  6  8  1  0
  6 28  1  1
  7 29  1  0
  7 30  1  0
  7 31  1  0
  8  9  1  0
  8 10  1  0
  8 32  1  1
  9 33  1  0
 10 14  1  0
 10 11  1  6
 10 12  1  0
 11 34  1  0
 12 13  1  0
 14 13  1  6
 13 35  1  0
 13 36  1  0
 14 19  1  0
 14 15  1  0
 15 16  1  0
 15 17  1  0
 15 37  1  1
 16 38  1  0
 17 18  1  6
 17 19  1  0
 18 39  1  0
 18 40  1  0
 18 41  1  0
 19 20  1  6
 20 42  1  0
M  END
>  <i_m_ct_stereo_status>  (194) 
1

>  <s_m_source_file>  (194) 
/var/tmp/pbs.5076255.sched01/tmpb5cfx69f/43pm4c6kpw.sdf

>  <i_m_source_file_index>  (194) 
36

>  <i_lp_mmshare_version>  (194) 
48012

>  <i_f3d_flags>  (194) 
0

>  <s_epik_input>  (194) 
W0NIMl0xW0NIMl1DKD1bQ0gyXSlbQ0BAXTIoW09IXSlbQ0BdKFtDSDNdKShbQ0BASF0zW09IXSlbQ0BASF0xW0NAQEhdKFtDSDNdKVtDQEBIXShbT0hdKVtDQF0oW0NAQF0yMzQpKFtPSF0pT1tDSDJdNA==

>  <s_epik_cmdline>  (194) 
J2VwaWtfcHl0aG9uJywgJy1waHQnLCAnMi4wJywgJy1waCcsICc3LjAnLCAnLXRuJywgJzgnLCAnLW1hJywgJzIwMCcsICctaW1hZScsICc8aW5maWxlLm1hZT4nLCAnLW9tYWUnLCAnPG91dGZpbGUubWFlPic=

>  <r_lp_tautomer_probability>  (194) 
1

>  <r_epik_Ionization_Penalty>  (194) 
4.00431e-07

>  <r_epik_Ionization_Penalty_Charging>  (194) 
0

>  <r_epik_Ionization_Penalty_Neutral>  (194) 
4.00431e-07

>  <r_epik_State_Penalty>  (194) 
-0

>  <r_epik_Charging_Adjusted_Penalty>  (194) 
0

>  <i_epik_Tot_Q>  (194) 
0

>  <i_epik_Tot_abs_Q>  (194) 
0

>  <s_lp_Force_Field>  (194) 
OPLS3e

>  <r_lp_Energy>  (194) 
48.0384

>  <b_lp_Chiralities_Consistent>  (194) 
1

>  <s_lp_Variant>  (194) 
54:0-1

>  <s_i_glide_gridfile>  (194) 
pfpi4k_grid

>  <i_i_glide_lignum>  (194) 
36

>  <i_i_glide_rotatable_bonds>  (194) 
4

>  <r_i_docking_score>  (194) 
-3.84953

>  <r_i_glide_ligand_efficiency>  (194) 
-0.192476

>  <r_i_glide_ligand_efficiency_sa>  (194) 
-0.522461

>  <r_i_glide_ligand_efficiency_ln>  (194) 
-0.96341

>  <r_i_glide_gscore>  (194) 
-3.84953

>  <r_i_glide_lipo>  (194) 
-0.485075

>  <r_i_glide_hbond>  (194) 
0

>  <r_i_glide_metal>  (194) 
-0

>  <r_i_glide_rewards>  (194) 
-1.60753

>  <r_i_glide_evdw>  (194) 
-13.3221

>  <r_i_glide_ecoul>  (194) 
-7.27215

>  <r_i_glide_erotb>  (194) 
0

>  <r_i_glide_esite>  (194) 
0

>  <r_i_glide_emodel>  (194) 
-23.1598

>  <r_i_glide_energy>  (194) 
-20.5942

>  <r_i_glide_einternal>  (194) 
3.11355

>  <r_i_glide_intrahb_reward>  (194) 
-0

>  <i_i_glide_confnum>  (194) 
1

>  <i_i_glide_posenum>  (194) 
16

>  <r_i_glide_eff_state_penalty>  (194) 
0

>  <ligand_id>  (194) 
54

>  <original_smiles>  (194) 
C=C1CCC2C(C)C(O)C3(O)OCC34C(O)C2(C)C14O

>  <smiles>  (194) 
[H]OC1([H])C2(O[H])OC([H])([H])C23C([H])(O[H])C2(C([H])([H])[H])C3(O[H])C(=C([H])[H])C([H])([H])C([H])([H])C2([H])C1([H])C([H])([H])[H]

$$$$
54:0:2
     RDKit          3D

 42 45  0  0  1  0  0  0  0  0999 V2000
    2.6984   -3.0464   -2.4139 C   0  0  0  0  0  0  0  0  0  0  0  0
    3.1696   -3.0540   -1.1503 C   0  0  0  0  0  0  0  0  0  0  0  0
    2.4928   -3.9790   -0.1370 C   0  0  0  0  0  0  0  0  0  0  0  0
    2.2444   -3.2951    1.1991 C   0  0  0  0  0  0  0  0  0  0  0  0
    3.5286   -2.7495    1.8109 C   0  0  1  0  0  0  0  0  0  0  0  0
    4.4895   -3.8753    2.3936 C   0  0  1  0  0  0  0  0  0  0  0  0
    3.7010   -4.9980    3.1195 C   0  0  0  0  0  0  0  0  0  0  0  0
    5.7490   -4.4252    1.6060 C   0  0  1  0  0  0  0  0  0  0  0  0
    5.9219   -5.8237    1.7765 O   0  0  0  0  0  0  0  0  0  0  0  0
    5.8991   -4.0565    0.1265 C   0  0  2  0  0  0  0  0  0  0  0  0
    5.3048   -5.0293   -0.7109 O   0  0  0  0  0  0  0  0  0  0  0  0
    7.2942   -3.8417   -0.2189 O   0  0  0  0  0  0  0  0  0  0  0  0
    6.8845   -2.7302   -1.0725 C   0  0  0  0  0  0  0  0  0  0  0  0
    5.6188   -2.6047   -0.2449 C   0  0  2  0  0  0  0  0  0  0  0  0
    5.6255   -1.5409    0.8541 C   0  0  1  0  0  0  0  0  0  0  0  0
    6.1841   -0.2916    0.5124 O   0  0  0  0  0  0  0  0  0  0  0  0
    4.0971   -1.6535    0.8562 C   0  0  2  0  0  0  0  0  0  0  0  0
    3.3331   -0.3425    1.1235 C   0  0  0  0  0  0  0  0  0  0  0  0
    4.2435   -2.0589   -0.6570 C   0  0  2  0  0  0  0  0  0  0  0  0
    4.3330   -0.9878   -1.5768 O   0  0  0  0  0  0  0  0  0  0  0  0
    3.0766   -2.3869   -3.1813 H   0  0  0  0  0  0  0  0  0  0  0  0
    1.9029   -3.7211   -2.7012 H   0  0  0  0  0  0  0  0  0  0  0  0
    1.5573   -4.3339   -0.5607 H   0  0  0  0  0  0  0  0  0  0  0  0
    3.0547   -4.8833    0.0477 H   0  0  0  0  0  0  0  0  0  0  0  0
    1.5629   -2.4581    1.0506 H   0  0  0  0  0  0  0  0  0  0  0  0
    1.7340   -3.9669    1.8924 H   0  0  0  0  0  0  0  0  0  0  0  0
    3.1810   -2.2417    2.7139 H   0  0  0  0  0  0  0  0  0  0  0  0
    4.9621   -3.3625    3.2315 H   0  0  0  0  0  0  0  0  0  0  0  0
    3.2288   -5.6952    2.4188 H   0  0  0  0  0  0  0  0  0  0  0  0
    2.9179   -4.5798    3.7540 H   0  0  0  0  0  0  0  0  0  0  0  0
    4.3413   -5.5897    3.7798 H   0  0  0  0  0  0  0  0  0  0  0  0
    6.6168   -3.9999    2.1166 H   0  0  0  0  0  0  0  0  0  0  0  0
    6.0997   -5.9860    2.6928 H   0  0  0  0  0  0  0  0  0  0  0  0
    4.3723   -5.0345   -0.5358 H   0  0  0  0  0  0  0  0  0  0  0  0
    7.5481   -1.8782   -0.9949 H   0  0  0  0  0  0  0  0  0  0  0  0
    6.7104   -3.0283   -2.1015 H   0  0  0  0  0  0  0  0  0  0  0  0
    6.0571   -1.8588    1.7975 H   0  0  0  0  0  0  0  0  0  0  0  0
    5.5400    0.1668   -0.0226 H   0  0  0  0  0  0  0  0  0  0  0  0
    3.7147    0.4756    0.5200 H   0  0  0  0  0  0  0  0  0  0  0  0
    3.4123   -0.0224    2.1600 H   0  0  0  0  0  0  0  0  0  0  0  0
    2.2721   -0.4205    0.8871 H   0  0  0  0  0  0  0  0  0  0  0  0
    3.4400   -0.6925   -1.7080 H   0  0  0  0  0  0  0  0  0  0  0  0
  1  2  2  0
  1 21  1  0
  1 22  1  0
  2 19  1  0
  2  3  1  0
  3  4  1  0
  3 23  1  0
  3 24  1  0
  4  5  1  0
  4 25  1  0
  4 26  1  0
  5 17  1  0
  5  6  1  0
  5 27  1  1
  6  7  1  0
  6  8  1  0
  6 28  1  1
  7 29  1  0
  7 30  1  0
  7 31  1  0
  8  9  1  0
  8 10  1  0
  8 32  1  1
  9 33  1  0
 10 14  1  0
 10 11  1  6
 10 12  1  0
 11 34  1  0
 12 13  1  0
 14 13  1  6
 13 35  1  0
 13 36  1  0
 14 19  1  0
 14 15  1  0
 15 16  1  0
 15 17  1  0
 15 37  1  1
 16 38  1  0
 17 18  1  6
 17 19  1  0
 18 39  1  0
 18 40  1  0
 18 41  1  0
 19 20  1  6
 20 42  1  0
M  END
>  <i_m_ct_stereo_status>  (195) 
1

>  <s_m_source_file>  (195) 
/var/tmp/pbs.5076255.sched01/tmpb5cfx69f/43pm4c6kpw.sdf

>  <i_m_source_file_index>  (195) 
36

>  <i_lp_mmshare_version>  (195) 
48012

>  <i_f3d_flags>  (195) 
0

>  <s_epik_input>  (195) 
W0NIMl0xW0NIMl1DKD1bQ0gyXSlbQ0BAXTIoW09IXSlbQ0BdKFtDSDNdKShbQ0BASF0zW09IXSlbQ0BASF0xW0NAQEhdKFtDSDNdKVtDQEBIXShbT0hdKVtDQF0oW0NAQF0yMzQpKFtPSF0pT1tDSDJdNA==

>  <s_epik_cmdline>  (195) 
J2VwaWtfcHl0aG9uJywgJy1waHQnLCAnMi4wJywgJy1waCcsICc3LjAnLCAnLXRuJywgJzgnLCAnLW1hJywgJzIwMCcsICctaW1hZScsICc8aW5maWxlLm1hZT4nLCAnLW9tYWUnLCAnPG91dGZpbGUubWFlPic=

>  <r_lp_tautomer_probability>  (195) 
1

>  <r_epik_Ionization_Penalty>  (195) 
4.00431e-07

>  <r_epik_Ionization_Penalty_Charging>  (195) 
0

>  <r_epik_Ionization_Penalty_Neutral>  (195) 
4.00431e-07

>  <r_epik_State_Penalty>  (195) 
-0

>  <r_epik_Charging_Adjusted_Penalty>  (195) 
0

>  <i_epik_Tot_Q>  (195) 
0

>  <i_epik_Tot_abs_Q>  (195) 
0

>  <s_lp_Force_Field>  (195) 
OPLS3e

>  <r_lp_Energy>  (195) 
48.0384

>  <b_lp_Chiralities_Consistent>  (195) 
1

>  <s_lp_Variant>  (195) 
54:0-1

>  <s_i_glide_gridfile>  (195) 
pfpi4k_grid

>  <i_i_glide_lignum>  (195) 
36

>  <i_i_glide_rotatable_bonds>  (195) 
4

>  <r_i_docking_score>  (195) 
-2.93268

>  <r_i_glide_ligand_efficiency>  (195) 
-0.146634

>  <r_i_glide_ligand_efficiency_sa>  (195) 
-0.398026

>  <r_i_glide_ligand_efficiency_ln>  (195) 
-0.733954

>  <r_i_glide_gscore>  (195) 
-2.93268

>  <r_i_glide_lipo>  (195) 
-0.177803

>  <r_i_glide_hbond>  (195) 
0

>  <r_i_glide_metal>  (195) 
-0

>  <r_i_glide_rewards>  (195) 
-1.58

>  <r_i_glide_evdw>  (195) 
-15.8724

>  <r_i_glide_ecoul>  (195) 
-2.54172

>  <r_i_glide_erotb>  (195) 
0

>  <r_i_glide_esite>  (195) 
0

>  <r_i_glide_emodel>  (195) 
-20.8121

>  <r_i_glide_energy>  (195) 
-18.4141

>  <r_i_glide_einternal>  (195) 
2.01053

>  <r_i_glide_intrahb_reward>  (195) 
-0

>  <i_i_glide_confnum>  (195) 
1

>  <i_i_glide_posenum>  (195) 
1

>  <r_i_glide_eff_state_penalty>  (195) 
0

>  <ligand_id>  (195) 
54

>  <original_smiles>  (195) 
C=C1CCC2C(C)C(O)C3(O)OCC34C(O)C2(C)C14O

>  <smiles>  (195) 
[H]OC1([H])C2(O[H])OC([H])([H])C23C([H])(O[H])C2(C([H])([H])[H])C3(O[H])C(=C([H])[H])C([H])([H])C([H])([H])C2([H])C1([H])C([H])([H])[H]

$$$$
55:0:0
     RDKit          3D

 28 31  0  0  1  0  0  0  0  0999 V2000
    6.8213   -2.5352   -1.9379 C   0  0  0  0  0  0  0  0  0  0  0  0
    6.8801   -3.4276   -0.8017 N   0  0  0  0  0  0  0  0  0  0  0  0
    8.0131   -3.7831   -0.0317 C   0  0  0  0  0  0  0  0  0  0  0  0
    7.7095   -4.6958    0.9770 C   0  0  0  0  0  0  0  0  0  0  0  0
    6.3169   -4.9153    0.8318 C   0  0  0  0  0  0  0  0  0  0  0  0
    5.8732   -4.1439   -0.2300 C   0  0  0  0  0  0  0  0  0  0  0  0
    4.5476   -4.1749   -0.5992 N   0  0  0  0  0  0  0  0  0  0  0  0
    3.6839   -4.9700    0.0932 C   0  0  0  0  0  0  0  0  0  0  0  0
    4.1294   -5.7392    1.1654 N   0  0  0  0  0  0  0  0  0  0  0  0
    3.4860   -6.6057    2.0091 C   0  0  0  0  0  0  0  0  0  0  0  0
    2.0609   -7.0056    2.0611 C   0  0  0  0  0  0  0  0  0  0  0  0
    1.6482   -8.0814    2.8792 C   0  0  0  0  0  0  0  0  0  0  0  0
    0.2862   -8.4408    2.8844 C   0  0  0  0  0  0  0  0  0  0  0  0
   -0.5780   -7.6918    2.0661 C   0  0  0  0  0  0  0  0  0  0  0  0
   -0.1416   -6.6674    1.2978 N   0  0  0  0  0  0  0  0  0  0  0  0
    1.1582   -6.3363    1.2940 N   0  0  0  0  0  0  0  0  0  0  0  0
    4.4691   -7.0715    2.8462 N   0  0  0  0  0  0  0  0  0  0  0  0
    5.7299   -6.4841    2.5403 N   0  0  0  0  0  0  0  0  0  0  0  0
    5.3913   -5.7384    1.5454 C   0  0  0  0  0  0  0  0  0  0  0  0
    7.8239   -2.2010   -2.1980 H   0  0  0  0  0  0  0  0  0  0  0  0
    6.1850   -1.6810   -1.7015 H   0  0  0  0  0  0  0  0  0  0  0  0
    6.4094   -3.0523   -2.8037 H   0  0  0  0  0  0  0  0  0  0  0  0
    8.9647   -3.3418   -0.2921 H   0  0  0  0  0  0  0  0  0  0  0  0
    8.3964   -5.1233    1.6967 H   0  0  0  0  0  0  0  0  0  0  0  0
    2.6514   -4.9947   -0.2162 H   0  0  0  0  0  0  0  0  0  0  0  0
    2.3514   -8.6325    3.4866 H   0  0  0  0  0  0  0  0  0  0  0  0
   -0.0954   -9.2546    3.4804 H   0  0  0  0  0  0  0  0  0  0  0  0
   -1.6335   -7.9046    2.0237 H   0  0  0  0  0  0  0  0  0  0  0  0
  1  2  1  0
  1 20  1  0
  1 21  1  0
  1 22  1  0
  2  6  1  0
  2  3  1  0
  3  4  2  0
  3 23  1  0
  4  5  1  0
  4 24  1  0
  5 19  1  0
  5  6  2  0
  6  7  1  0
  7  8  2  0
  8  9  1  0
  8 25  1  0
  9 19  1  0
  9 10  1  0
 10 11  1  0
 10 17  2  0
 11 16  1  0
 11 12  2  0
 12 13  1  0
 12 26  1  0
 13 14  2  0
 13 27  1  0
 14 15  1  0
 14 28  1  0
 15 16  2  0
 17 18  1  0
 18 19  2  0
M  END
>  <i_m_ct_stereo_status>  (196) 
1

>  <s_m_source_file>  (196) 
/var/tmp/pbs.5076255.sched01/tmpb5cfx69f/43pm4c6kpw.sdf

>  <i_m_source_file_index>  (196) 
37

>  <i_lp_mmshare_version>  (196) 
48012

>  <i_f3d_flags>  (196) 
0

>  <s_epik_input>  (196) 
W2NIXTFbY0hdbihbQ0gzXSljKGMxMiluW2NIXW4zYzJubmMzLWM0W2NIXVtjSF1bY0hdbm40

>  <s_epik_cmdline>  (196) 
J2VwaWtfcHl0aG9uJywgJy1waHQnLCAnMi4wJywgJy1waCcsICc3LjAnLCAnLXRuJywgJzgnLCAnLW1hJywgJzIwMCcsICctaW1hZScsICc8aW5maWxlLm1hZT4nLCAnLW9tYWUnLCAnPG91dGZpbGUubWFlPic=

>  <r_lp_tautomer_probability>  (196) 
1

>  <r_epik_Ionization_Penalty>  (196) 
9.02542e-06

>  <r_epik_Ionization_Penalty_Charging>  (196) 
0

>  <r_epik_Ionization_Penalty_Neutral>  (196) 
9.02542e-06

>  <r_epik_State_Penalty>  (196) 
-0

>  <r_epik_Charging_Adjusted_Penalty>  (196) 
0

>  <i_epik_Tot_Q>  (196) 
0

>  <i_epik_Tot_abs_Q>  (196) 
0

>  <s_lp_Force_Field>  (196) 
OPLS3e

>  <r_lp_Energy>  (196) 
31.9936

>  <b_lp_Chiralities_Consistent>  (196) 
1

>  <s_lp_Variant>  (196) 
55:0-1

>  <s_i_glide_gridfile>  (196) 
pfpi4k_grid

>  <i_i_glide_lignum>  (196) 
37

>  <i_i_glide_rotatable_bonds>  (196) 
1

>  <r_i_docking_score>  (196) 
-4.1435

>  <r_i_glide_ligand_efficiency>  (196) 
-0.218079

>  <r_i_glide_ligand_efficiency_sa>  (196) 
-0.581922

>  <r_i_glide_ligand_efficiency_ln>  (196) 
-1.05047

>  <r_i_glide_gscore>  (196) 
-4.1435

>  <r_i_glide_lipo>  (196) 
-0.419998

>  <r_i_glide_hbond>  (196) 
0

>  <r_i_glide_metal>  (196) 
-0

>  <r_i_glide_rewards>  (196) 
-2.14157

>  <r_i_glide_evdw>  (196) 
-23.4724

>  <r_i_glide_ecoul>  (196) 
-3.24604

>  <r_i_glide_erotb>  (196) 
0.277622

>  <r_i_glide_esite>  (196) 
-0.199029

>  <r_i_glide_emodel>  (196) 
-34.2575

>  <r_i_glide_energy>  (196) 
-26.7184

>  <r_i_glide_einternal>  (196) 
0.266604

>  <r_i_glide_intrahb_reward>  (196) 
-0

>  <i_i_glide_confnum>  (196) 
1

>  <i_i_glide_posenum>  (196) 
4

>  <r_i_glide_eff_state_penalty>  (196) 
0

>  <ligand_id>  (196) 
55

>  <original_smiles>  (196) 
Cn1ccc2c1ncn1c(-c3cccnn3)nnc21

>  <smiles>  (196) 
[H]c1nnc(-c2nnc3c4c([H])c([H])n(C([H])([H])[H])c4nc([H])n23)c([H])c1[H]

$$$$
55:0:1
     RDKit          3D

 28 31  0  0  1  0  0  0  0  0999 V2000
    0.9593  -11.2652    3.9670 C   0  0  0  0  0  0  0  0  0  0  0  0
    0.7119  -10.0132    3.2818 N   0  0  0  0  0  0  0  0  0  0  0  0
   -0.5188   -9.4074    2.9311 C   0  0  0  0  0  0  0  0  0  0  0  0
   -0.3643   -8.1808    2.2792 C   0  0  0  0  0  0  0  0  0  0  0  0
    1.0425   -8.0056    2.2130 C   0  0  0  0  0  0  0  0  0  0  0  0
    1.6156   -9.1157    2.8178 C   0  0  0  0  0  0  0  0  0  0  0  0
    2.9780   -9.2077    2.9029 N   0  0  0  0  0  0  0  0  0  0  0  0
    3.7410   -8.2155    2.3881 C   0  0  0  0  0  0  0  0  0  0  0  0
    3.1771   -7.0970    1.7558 N   0  0  0  0  0  0  0  0  0  0  0  0
    3.6902   -5.9735    1.1553 C   0  0  0  0  0  0  0  0  0  0  0  0
    5.1022   -5.5457    0.9413 C   0  0  0  0  0  0  0  0  0  0  0  0
    6.2195   -6.3531    1.2794 C   0  0  0  0  0  0  0  0  0  0  0  0
    7.5144   -5.8640    1.0538 C   0  0  0  0  0  0  0  0  0  0  0  0
    7.6307   -4.5894    0.4790 C   0  0  0  0  0  0  0  0  0  0  0  0
    6.5465   -3.8441    0.1574 N   0  0  0  0  0  0  0  0  0  0  0  0
    5.3069   -4.3176    0.3894 N   0  0  0  0  0  0  0  0  0  0  0  0
    2.5875   -5.2583    0.7526 N   0  0  0  0  0  0  0  0  0  0  0  0
    1.3766   -5.9275    1.0839 N   0  0  0  0  0  0  0  0  0  0  0  0
    1.8577   -6.9733    1.6620 C   0  0  0  0  0  0  0  0  0  0  0  0
    0.0256  -11.7798    4.1588 H   0  0  0  0  0  0  0  0  0  0  0  0
    1.4519  -11.0791    4.9183 H   0  0  0  0  0  0  0  0  0  0  0  0
    1.5947  -11.9054    3.3593 H   0  0  0  0  0  0  0  0  0  0  0  0
   -1.4237   -9.9322    3.1985 H   0  0  0  0  0  0  0  0  0  0  0  0
   -1.1591   -7.5444    1.9083 H   0  0  0  0  0  0  0  0  0  0  0  0
    4.7960   -8.3634    2.5354 H   0  0  0  0  0  0  0  0  0  0  0  0
    6.1799   -7.3462    1.6758 H   0  0  0  0  0  0  0  0  0  0  0  0
    8.3779   -6.4802    1.2913 H   0  0  0  0  0  0  0  0  0  0  0  0
    8.6142   -4.1838    0.2635 H   0  0  0  0  0  0  0  0  0  0  0  0
  1  2  1  0
  1 20  1  0
  1 21  1  0
  1 22  1  0
  2  6  1  0
  2  3  1  0
  3  4  2  0
  3 23  1  0
  4  5  1  0
  4 24  1  0
  5 19  1  0
  5  6  2  0
  6  7  1  0
  7  8  2  0
  8  9  1  0
  8 25  1  0
  9 19  1  0
  9 10  1  0
 10 11  1  0
 10 17  2  0
 11 16  1  0
 11 12  2  0
 12 13  1  0
 12 26  1  0
 13 14  2  0
 13 27  1  0
 14 15  1  0
 14 28  1  0
 15 16  2  0
 17 18  1  0
 18 19  2  0
M  END
>  <i_m_ct_stereo_status>  (197) 
1

>  <s_m_source_file>  (197) 
/var/tmp/pbs.5076255.sched01/tmpb5cfx69f/43pm4c6kpw.sdf

>  <i_m_source_file_index>  (197) 
37

>  <i_lp_mmshare_version>  (197) 
48012

>  <i_f3d_flags>  (197) 
0

>  <s_epik_input>  (197) 
W2NIXTFbY0hdbihbQ0gzXSljKGMxMiluW2NIXW4zYzJubmMzLWM0W2NIXVtjSF1bY0hdbm40

>  <s_epik_cmdline>  (197) 
J2VwaWtfcHl0aG9uJywgJy1waHQnLCAnMi4wJywgJy1waCcsICc3LjAnLCAnLXRuJywgJzgnLCAnLW1hJywgJzIwMCcsICctaW1hZScsICc8aW5maWxlLm1hZT4nLCAnLW9tYWUnLCAnPG91dGZpbGUubWFlPic=

>  <r_lp_tautomer_probability>  (197) 
1

>  <r_epik_Ionization_Penalty>  (197) 
9.02542e-06

>  <r_epik_Ionization_Penalty_Charging>  (197) 
0

>  <r_epik_Ionization_Penalty_Neutral>  (197) 
9.02542e-06

>  <r_epik_State_Penalty>  (197) 
-0

>  <r_epik_Charging_Adjusted_Penalty>  (197) 
0

>  <i_epik_Tot_Q>  (197) 
0

>  <i_epik_Tot_abs_Q>  (197) 
0

>  <s_lp_Force_Field>  (197) 
OPLS3e

>  <r_lp_Energy>  (197) 
31.9936

>  <b_lp_Chiralities_Consistent>  (197) 
1

>  <s_lp_Variant>  (197) 
55:0-1

>  <s_i_glide_gridfile>  (197) 
pfpi4k_grid

>  <i_i_glide_lignum>  (197) 
37

>  <i_i_glide_rotatable_bonds>  (197) 
1

>  <r_i_docking_score>  (197) 
-3.59297

>  <r_i_glide_ligand_efficiency>  (197) 
-0.189104

>  <r_i_glide_ligand_efficiency_sa>  (197) 
-0.504605

>  <r_i_glide_ligand_efficiency_ln>  (197) 
-0.910895

>  <r_i_glide_gscore>  (197) 
-3.59297

>  <r_i_glide_lipo>  (197) 
-0.502982

>  <r_i_glide_hbond>  (197) 
0

>  <r_i_glide_metal>  (197) 
-0

>  <r_i_glide_rewards>  (197) 
-1.83806

>  <r_i_glide_evdw>  (197) 
-24.058

>  <r_i_glide_ecoul>  (197) 
-1.06345

>  <r_i_glide_erotb>  (197) 
0.277622

>  <r_i_glide_esite>  (197) 
-0.167138

>  <r_i_glide_emodel>  (197) 
-30.0074

>  <r_i_glide_energy>  (197) 
-25.1214

>  <r_i_glide_einternal>  (197) 
2.69078

>  <r_i_glide_intrahb_reward>  (197) 
-0

>  <i_i_glide_confnum>  (197) 
6

>  <i_i_glide_posenum>  (197) 
9

>  <r_i_glide_eff_state_penalty>  (197) 
0

>  <ligand_id>  (197) 
55

>  <original_smiles>  (197) 
Cn1ccc2c1ncn1c(-c3cccnn3)nnc21

>  <smiles>  (197) 
[H]c1nnc(-c2nnc3c4c([H])c([H])n(C([H])([H])[H])c4nc([H])n23)c([H])c1[H]

$$$$
55:0:2
     RDKit          3D

 28 31  0  0  1  0  0  0  0  0999 V2000
    4.6496   -1.1900   -1.9107 C   0  0  0  0  0  0  0  0  0  0  0  0
    5.1698   -2.3472   -1.2142 N   0  0  0  0  0  0  0  0  0  0  0  0
    6.5206   -2.7180   -1.0061 C   0  0  0  0  0  0  0  0  0  0  0  0
    6.6520   -3.8902   -0.2674 C   0  0  0  0  0  0  0  0  0  0  0  0
    5.3181   -4.2951   -0.0200 C   0  0  0  0  0  0  0  0  0  0  0  0
    4.4793   -3.3463   -0.5946 C   0  0  0  0  0  0  0  0  0  0  0  0
    3.1168   -3.4913   -0.4936 N   0  0  0  0  0  0  0  0  0  0  0  0
    2.6174   -4.5765    0.1604 C   0  0  0  0  0  0  0  0  0  0  0  0
    3.4573   -5.5278    0.7344 N   0  0  0  0  0  0  0  0  0  0  0  0
    3.2056   -6.6805    1.4307 C   0  0  0  0  0  0  0  0  0  0  0  0
    1.9163   -7.3005    1.8180 C   0  0  0  0  0  0  0  0  0  0  0  0
    1.8858   -8.5541    2.4707 C   0  0  0  0  0  0  0  0  0  0  0  0
    0.6337   -9.1031    2.8132 C   0  0  0  0  0  0  0  0  0  0  0  0
   -0.5112   -8.3578    2.4816 C   0  0  0  0  0  0  0  0  0  0  0  0
   -0.4360   -7.1534    1.8678 N   0  0  0  0  0  0  0  0  0  0  0  0
    0.7563   -6.6462    1.5308 N   0  0  0  0  0  0  0  0  0  0  0  0
    4.4465   -7.1876    1.7195 N   0  0  0  0  0  0  0  0  0  0  0  0
    5.4819   -6.3504    1.2117 N   0  0  0  0  0  0  0  0  0  0  0  0
    4.7686   -5.4250    0.6618 C   0  0  0  0  0  0  0  0  0  0  0  0
    5.4598   -0.6025   -2.3282 H   0  0  0  0  0  0  0  0  0  0  0  0
    4.1008   -0.5634   -1.2127 H   0  0  0  0  0  0  0  0  0  0  0  0
    3.9826   -1.5034   -2.7125 H   0  0  0  0  0  0  0  0  0  0  0  0
    7.3072   -2.1101   -1.4156 H   0  0  0  0  0  0  0  0  0  0  0  0
    7.5771   -4.3781    0.0146 H   0  0  0  0  0  0  0  0  0  0  0  0
    1.5533   -4.6940    0.2132 H   0  0  0  0  0  0  0  0  0  0  0  0
    2.7948   -9.0930    2.6964 H   0  0  0  0  0  0  0  0  0  0  0  0
    0.5459  -10.0670    3.2985 H   0  0  0  0  0  0  0  0  0  0  0  0
   -1.4990   -8.7306    2.7031 H   0  0  0  0  0  0  0  0  0  0  0  0
  1  2  1  0
  1 20  1  0
  1 21  1  0
  1 22  1  0
  2  6  1  0
  2  3  1  0
  3  4  2  0
  3 23  1  0
  4  5  1  0
  4 24  1  0
  5 19  1  0
  5  6  2  0
  6  7  1  0
  7  8  2  0
  8  9  1  0
  8 25  1  0
  9 19  1  0
  9 10  1  0
 10 11  1  0
 10 17  2  0
 11 16  1  0
 11 12  2  0
 12 13  1  0
 12 26  1  0
 13 14  2  0
 13 27  1  0
 14 15  1  0
 14 28  1  0
 15 16  2  0
 17 18  1  0
 18 19  2  0
M  END
>  <i_m_ct_stereo_status>  (198) 
1

>  <s_m_source_file>  (198) 
/var/tmp/pbs.5076255.sched01/tmpb5cfx69f/43pm4c6kpw.sdf

>  <i_m_source_file_index>  (198) 
37

>  <i_lp_mmshare_version>  (198) 
48012

>  <i_f3d_flags>  (198) 
0

>  <s_epik_input>  (198) 
W2NIXTFbY0hdbihbQ0gzXSljKGMxMiluW2NIXW4zYzJubmMzLWM0W2NIXVtjSF1bY0hdbm40

>  <s_epik_cmdline>  (198) 
J2VwaWtfcHl0aG9uJywgJy1waHQnLCAnMi4wJywgJy1waCcsICc3LjAnLCAnLXRuJywgJzgnLCAnLW1hJywgJzIwMCcsICctaW1hZScsICc8aW5maWxlLm1hZT4nLCAnLW9tYWUnLCAnPG91dGZpbGUubWFlPic=

>  <r_lp_tautomer_probability>  (198) 
1

>  <r_epik_Ionization_Penalty>  (198) 
9.02542e-06

>  <r_epik_Ionization_Penalty_Charging>  (198) 
0

>  <r_epik_Ionization_Penalty_Neutral>  (198) 
9.02542e-06

>  <r_epik_State_Penalty>  (198) 
-0

>  <r_epik_Charging_Adjusted_Penalty>  (198) 
0

>  <i_epik_Tot_Q>  (198) 
0

>  <i_epik_Tot_abs_Q>  (198) 
0

>  <s_lp_Force_Field>  (198) 
OPLS3e

>  <r_lp_Energy>  (198) 
31.9936

>  <b_lp_Chiralities_Consistent>  (198) 
1

>  <s_lp_Variant>  (198) 
55:0-1

>  <s_i_glide_gridfile>  (198) 
pfpi4k_grid

>  <i_i_glide_lignum>  (198) 
37

>  <i_i_glide_rotatable_bonds>  (198) 
1

>  <r_i_docking_score>  (198) 
-3.49018

>  <r_i_glide_ligand_efficiency>  (198) 
-0.183694

>  <r_i_glide_ligand_efficiency_sa>  (198) 
-0.490169

>  <r_i_glide_ligand_efficiency_ln>  (198) 
-0.884836

>  <r_i_glide_gscore>  (198) 
-3.49018

>  <r_i_glide_lipo>  (198) 
-0.142026

>  <r_i_glide_hbond>  (198) 
0

>  <r_i_glide_metal>  (198) 
-0

>  <r_i_glide_rewards>  (198) 
-1.94205

>  <r_i_glide_evdw>  (198) 
-25.544

>  <r_i_glide_ecoul>  (198) 
-0.977639

>  <r_i_glide_erotb>  (198) 
0.277622

>  <r_i_glide_esite>  (198) 
-0.259878

>  <r_i_glide_emodel>  (198) 
-32.9375

>  <r_i_glide_energy>  (198) 
-26.5216

>  <r_i_glide_einternal>  (198) 
0.0464119

>  <r_i_glide_intrahb_reward>  (198) 
-0

>  <i_i_glide_confnum>  (198) 
1

>  <i_i_glide_posenum>  (198) 
22

>  <r_i_glide_eff_state_penalty>  (198) 
0

>  <ligand_id>  (198) 
55

>  <original_smiles>  (198) 
Cn1ccc2c1ncn1c(-c3cccnn3)nnc21

>  <smiles>  (198) 
[H]c1nnc(-c2nnc3c4c([H])c([H])n(C([H])([H])[H])c4nc([H])n23)c([H])c1[H]

$$$$
56:0:0
     RDKit          3D

 31 33  0  0  1  0  0  0  0  0999 V2000
    6.6622   -4.0833    0.6865 C   0  0  0  0  0  0  0  0  0  0  0  0
    5.2350   -3.7203    0.2329 C   0  0  1  0  0  0  0  0  0  0  0  0
    4.7908   -2.3404    0.6958 C   0  0  0  0  0  0  0  0  0  0  0  0
    4.2817   -1.7365   -0.3884 C   0  0  0  0  0  0  0  0  0  0  0  0
    5.4012   -1.1081   -1.1916 C   0  0  0  0  0  0  0  0  0  0  0  0
    5.9562   -2.3698   -1.9050 C   0  0  1  0  0  0  0  0  0  0  0  0
    7.3627   -2.4928   -1.7835 O   0  0  0  0  0  0  0  0  0  0  0  0
    5.0609   -3.5255   -1.3247 C   0  0  2  0  0  0  0  0  0  0  0  0
    3.7036   -2.7953   -1.3149 C   0  0  2  0  0  0  0  0  0  0  0  0
    3.1544   -2.2715   -2.6767 C   0  0  0  0  0  0  0  0  0  0  0  0
    2.5433   -3.6527   -0.7204 C   0  0  0  0  0  0  0  0  0  0  0  0
    2.8041   -4.3313    0.6331 C   0  0  0  0  0  0  0  0  0  0  0  0
    4.2599   -4.7981    0.7489 C   0  0  0  0  0  0  0  0  0  0  0  0
    7.0539   -4.9057    0.0878 H   0  0  0  0  0  0  0  0  0  0  0  0
    6.6795   -4.4005    1.7283 H   0  0  0  0  0  0  0  0  0  0  0  0
    7.3538   -3.2464    0.6085 H   0  0  0  0  0  0  0  0  0  0  0  0
    5.4965   -1.8252    1.3337 H   0  0  0  0  0  0  0  0  0  0  0  0
    5.0159   -0.3693   -1.8941 H   0  0  0  0  0  0  0  0  0  0  0  0
    6.1251   -0.6143   -0.5424 H   0  0  0  0  0  0  0  0  0  0  0  0
    5.7891   -2.3004   -2.9782 H   0  0  0  0  0  0  0  0  0  0  0  0
    7.6860   -3.0561   -2.4758 H   0  0  0  0  0  0  0  0  0  0  0  0
    5.0762   -4.4493   -1.9042 H   0  0  0  0  0  0  0  0  0  0  0  0
    2.9325   -3.1083   -3.3404 H   0  0  0  0  0  0  0  0  0  0  0  0
    3.7933   -1.5914   -3.2343 H   0  0  0  0  0  0  0  0  0  0  0  0
    2.2191   -1.7302   -2.5185 H   0  0  0  0  0  0  0  0  0  0  0  0
    1.6466   -3.0523   -0.6404 H   0  0  0  0  0  0  0  0  0  0  0  0
    2.2910   -4.4264   -1.4388 H   0  0  0  0  0  0  0  0  0  0  0  0
    2.5764   -3.6335    1.4436 H   0  0  0  0  0  0  0  0  0  0  0  0
    2.1324   -5.1806    0.7684 H   0  0  0  0  0  0  0  0  0  0  0  0
    4.4025   -5.7201    0.1803 H   0  0  0  0  0  0  0  0  0  0  0  0
    4.4617   -5.0419    1.7943 H   0  0  0  0  0  0  0  0  0  0  0  0
  2  1  1  6
  1 14  1  0
  1 15  1  0
  1 16  1  0
  2  8  1  0
  2 13  1  0
  2  3  1  0
  3  4  2  0
  3 17  1  0
  4  9  1  0
  4  5  1  0
  5  6  1  0
  5 18  1  0
  5 19  1  0
  6  7  1  0
  6  8  1  0
  6 20  1  6
  7 21  1  0
  8  9  1  0
  8 22  1  6
  9 10  1  6
  9 11  1  0
 10 23  1  0
 10 24  1  0
 10 25  1  0
 11 12  1  0
 11 26  1  0
 11 27  1  0
 12 13  1  0
 12 28  1  0
 12 29  1  0
 13 30  1  0
 13 31  1  0
M  END
>  <i_m_ct_stereo_status>  (199) 
1

>  <s_m_source_file>  (199) 
/var/tmp/pbs.5076255.sched01/tmpb5cfx69f/43pm4c6kpw.sdf

>  <i_m_source_file_index>  (199) 
38

>  <i_lp_mmshare_version>  (199) 
48012

>  <i_f3d_flags>  (199) 
0

>  <s_epik_input>  (199) 
W0NIM11bQ0BdMTJbQ0BIXTNbQ0BAXShbQ0gzXSkoW0NIMl1bQ0gyXVtDSDJdMilDKD1bQ0hdMSlbQ0gyXVtDQEhdM1tPSF0=

>  <s_epik_cmdline>  (199) 
J2VwaWtfcHl0aG9uJywgJy1waHQnLCAnMi4wJywgJy1waCcsICc3LjAnLCAnLXRuJywgJzgnLCAnLW1hJywgJzIwMCcsICctaW1hZScsICc8aW5maWxlLm1hZT4nLCAnLW9tYWUnLCAnPG91dGZpbGUubWFlPic=

>  <r_lp_tautomer_probability>  (199) 
1

>  <r_epik_Ionization_Penalty>  (199) 
8.27858e-07

>  <r_epik_Ionization_Penalty_Charging>  (199) 
0

>  <r_epik_Ionization_Penalty_Neutral>  (199) 
8.27858e-07

>  <r_epik_State_Penalty>  (199) 
-0

>  <r_epik_Charging_Adjusted_Penalty>  (199) 
0

>  <i_epik_Tot_Q>  (199) 
0

>  <i_epik_Tot_abs_Q>  (199) 
0

>  <s_lp_Force_Field>  (199) 
OPLS3e

>  <r_lp_Energy>  (199) 
80.1224

>  <b_lp_Chiralities_Consistent>  (199) 
1

>  <s_lp_Variant>  (199) 
56:0-1

>  <s_i_glide_gridfile>  (199) 
pfpi4k_grid

>  <i_i_glide_lignum>  (199) 
38

>  <i_i_glide_rotatable_bonds>  (199) 
1

>  <r_i_docking_score>  (199) 
-4.29469

>  <r_i_glide_ligand_efficiency>  (199) 
-0.330361

>  <r_i_glide_ligand_efficiency_sa>  (199) 
-0.776788

>  <r_i_glide_ligand_efficiency_ln>  (199) 
-1.2047

>  <r_i_glide_gscore>  (199) 
-4.29469

>  <r_i_glide_lipo>  (199) 
-0.255845

>  <r_i_glide_hbond>  (199) 
-0.356845

>  <r_i_glide_metal>  (199) 
-0

>  <r_i_glide_rewards>  (199) 
-2.19361

>  <r_i_glide_evdw>  (199) 
-16.5559

>  <r_i_glide_ecoul>  (199) 
-4.40397

>  <r_i_glide_erotb>  (199) 
0

>  <r_i_glide_esite>  (199) 
0

>  <r_i_glide_emodel>  (199) 
-26.0097

>  <r_i_glide_energy>  (199) 
-20.9599

>  <r_i_glide_einternal>  (199) 
0.775223

>  <r_i_glide_intrahb_reward>  (199) 
-0

>  <i_i_glide_confnum>  (199) 
1

>  <i_i_glide_posenum>  (199) 
27

>  <r_i_glide_eff_state_penalty>  (199) 
0

>  <ligand_id>  (199) 
56

>  <original_smiles>  (199) 
CC12C=C3CC(O)C1C3(C)CCC2

>  <smiles>  (199) 
[H]OC1([H])C([H])([H])C2=C([H])C3(C([H])([H])[H])C([H])([H])C([H])([H])C([H])([H])C2(C([H])([H])[H])C13[H]

$$$$
56:0:1
     RDKit          3D

 31 33  0  0  1  0  0  0  0  0999 V2000
    5.2104   -3.8271    0.9159 C   0  0  0  0  0  0  0  0  0  0  0  0
    4.2575   -3.4157   -0.2186 C   0  0  1  0  0  0  0  0  0  0  0  0
    3.7698   -1.9779   -0.0931 C   0  0  0  0  0  0  0  0  0  0  0  0
    3.9360   -1.4323   -1.3027 C   0  0  0  0  0  0  0  0  0  0  0  0
    5.3637   -0.9532   -1.4363 C   0  0  0  0  0  0  0  0  0  0  0  0
    6.0850   -2.2985   -1.7203 C   0  0  1  0  0  0  0  0  0  0  0  0
    7.2167   -2.4855   -0.8994 O   0  0  0  0  0  0  0  0  0  0  0  0
    4.9157   -3.3342   -1.6488 C   0  0  2  0  0  0  0  0  0  0  0  0
    3.8170   -2.5153   -2.3684 C   0  0  2  0  0  0  0  0  0  0  0  0
    4.0882   -2.0504   -3.8313 C   0  0  0  0  0  0  0  0  0  0  0  0
    2.4439   -3.2400   -2.4442 C   0  0  0  0  0  0  0  0  0  0  0  0
    1.9324   -3.8450   -1.1266 C   0  0  0  0  0  0  0  0  0  0  0  0
    3.0636   -4.3769   -0.2374 C   0  0  0  0  0  0  0  0  0  0  0  0
    5.7682   -4.7186    0.6340 H   0  0  0  0  0  0  0  0  0  0  0  0
    4.6598   -4.0623    1.8268 H   0  0  0  0  0  0  0  0  0  0  0  0
    5.9214   -3.0461    1.1797 H   0  0  0  0  0  0  0  0  0  0  0  0
    4.1016   -1.4557    0.7910 H   0  0  0  0  0  0  0  0  0  0  0  0
    5.4387   -0.2517   -2.2661 H   0  0  0  0  0  0  0  0  0  0  0  0
    5.7070   -0.4520   -0.5292 H   0  0  0  0  0  0  0  0  0  0  0  0
    6.4989   -2.3052   -2.7235 H   0  0  0  0  0  0  0  0  0  0  0  0
    7.6091   -3.3182   -1.1198 H   0  0  0  0  0  0  0  0  0  0  0  0
    5.1336   -4.2976   -2.1063 H   0  0  0  0  0  0  0  0  0  0  0  0
    4.1663   -2.9263   -4.4725 H   0  0  0  0  0  0  0  0  0  0  0  0
    4.9836   -1.4584   -3.9967 H   0  0  0  0  0  0  0  0  0  0  0  0
    3.2566   -1.4445   -4.1996 H   0  0  0  0  0  0  0  0  0  0  0  0
    1.6769   -2.5740   -2.8397 H   0  0  0  0  0  0  0  0  0  0  0  0
    2.5363   -4.0320   -3.1855 H   0  0  0  0  0  0  0  0  0  0  0  0
    1.4145   -3.0604   -0.5803 H   0  0  0  0  0  0  0  0  0  0  0  0
    1.1930   -4.6189   -1.3261 H   0  0  0  0  0  0  0  0  0  0  0  0
    3.4088   -5.3483   -0.5926 H   0  0  0  0  0  0  0  0  0  0  0  0
    2.6680   -4.5325    0.7677 H   0  0  0  0  0  0  0  0  0  0  0  0
  2  1  1  1
  1 14  1  0
  1 15  1  0
  1 16  1  0
  2  8  1  0
  2 13  1  0
  2  3  1  0
  3  4  2  0
  3 17  1  0
  4  9  1  0
  4  5  1  0
  5  6  1  0
  5 18  1  0
  5 19  1  0
  6  7  1  0
  6  8  1  0
  6 20  1  6
  7 21  1  0
  8  9  1  0
  8 22  1  6
  9 10  1  6
  9 11  1  0
 10 23  1  0
 10 24  1  0
 10 25  1  0
 11 12  1  0
 11 26  1  0
 11 27  1  0
 12 13  1  0
 12 28  1  0
 12 29  1  0
 13 30  1  0
 13 31  1  0
M  END
>  <i_m_ct_stereo_status>  (200) 
1

>  <s_m_source_file>  (200) 
/var/tmp/pbs.5076255.sched01/tmpb5cfx69f/43pm4c6kpw.sdf

>  <i_m_source_file_index>  (200) 
38

>  <i_lp_mmshare_version>  (200) 
48012

>  <i_f3d_flags>  (200) 
0

>  <s_epik_input>  (200) 
W0NIM11bQ0BdMTJbQ0BIXTNbQ0BAXShbQ0gzXSkoW0NIMl1bQ0gyXVtDSDJdMilDKD1bQ0hdMSlbQ0gyXVtDQEhdM1tPSF0=

>  <s_epik_cmdline>  (200) 
J2VwaWtfcHl0aG9uJywgJy1waHQnLCAnMi4wJywgJy1waCcsICc3LjAnLCAnLXRuJywgJzgnLCAnLW1hJywgJzIwMCcsICctaW1hZScsICc8aW5maWxlLm1hZT4nLCAnLW9tYWUnLCAnPG91dGZpbGUubWFlPic=

>  <r_lp_tautomer_probability>  (200) 
1

>  <r_epik_Ionization_Penalty>  (200) 
8.27858e-07

>  <r_epik_Ionization_Penalty_Charging>  (200) 
0

>  <r_epik_Ionization_Penalty_Neutral>  (200) 
8.27858e-07

>  <r_epik_State_Penalty>  (200) 
-0

>  <r_epik_Charging_Adjusted_Penalty>  (200) 
0

>  <i_epik_Tot_Q>  (200) 
0

>  <i_epik_Tot_abs_Q>  (200) 
0

>  <s_lp_Force_Field>  (200) 
OPLS3e

>  <r_lp_Energy>  (200) 
80.1224

>  <b_lp_Chiralities_Consistent>  (200) 
1

>  <s_lp_Variant>  (200) 
56:0-1

>  <s_i_glide_gridfile>  (200) 
pfpi4k_grid

>  <i_i_glide_lignum>  (200) 
38

>  <i_i_glide_rotatable_bonds>  (200) 
1

>  <r_i_docking_score>  (200) 
-3.62893

>  <r_i_glide_ligand_efficiency>  (200) 
-0.279149

>  <r_i_glide_ligand_efficiency_sa>  (200) 
-0.656372

>  <r_i_glide_ligand_efficiency_ln>  (200) 
-1.01795

>  <r_i_glide_gscore>  (200) 
-3.62893

>  <r_i_glide_lipo>  (200) 
-0.353913

>  <r_i_glide_hbond>  (200) 
-0.13271

>  <r_i_glide_metal>  (200) 
-0

>  <r_i_glide_rewards>  (200) 
-2.19361

>  <r_i_glide_evdw>  (200) 
-15.7708

>  <r_i_glide_ecoul>  (200) 
-1.06776

>  <r_i_glide_erotb>  (200) 
0

>  <r_i_glide_esite>  (200) 
0

>  <r_i_glide_emodel>  (200) 
-21.3561

>  <r_i_glide_energy>  (200) 
-16.8385

>  <r_i_glide_einternal>  (200) 
0.330626

>  <r_i_glide_intrahb_reward>  (200) 
-0

>  <i_i_glide_confnum>  (200) 
2

>  <i_i_glide_posenum>  (200) 
8

>  <r_i_glide_eff_state_penalty>  (200) 
0

>  <ligand_id>  (200) 
56

>  <original_smiles>  (200) 
CC12C=C3CC(O)C1C3(C)CCC2

>  <smiles>  (200) 
[H]OC1([H])C([H])([H])C2=C([H])C3(C([H])([H])[H])C([H])([H])C([H])([H])C([H])([H])C2(C([H])([H])[H])C13[H]

$$$$
56:0:2
     RDKit          3D

 31 33  0  0  1  0  0  0  0  0999 V2000
    5.0533   -3.8173    0.9240 C   0  0  0  0  0  0  0  0  0  0  0  0
    4.1446   -3.4081   -0.2509 C   0  0  1  0  0  0  0  0  0  0  0  0
    3.6545   -1.9731   -0.1531 C   0  0  0  0  0  0  0  0  0  0  0  0
    3.8686   -1.4388   -1.3602 C   0  0  0  0  0  0  0  0  0  0  0  0
    5.2987   -0.9602   -1.4419 C   0  0  0  0  0  0  0  0  0  0  0  0
    6.0322   -2.3001   -1.6940 C   0  0  1  0  0  0  0  0  0  0  0  0
    7.1136   -2.4875   -0.8102 O   0  0  0  0  0  0  0  0  0  0  0  0
    4.8546   -3.3390   -1.6604 C   0  0  2  0  0  0  0  0  0  0  0  0
    3.7845   -2.5251   -2.4217 C   0  0  2  0  0  0  0  0  0  0  0  0
    4.1106   -2.0687   -3.8729 C   0  0  0  0  0  0  0  0  0  0  0  0
    2.4162   -3.2510   -2.5427 C   0  0  0  0  0  0  0  0  0  0  0  0
    1.8567   -3.8503   -1.2484 C   0  0  0  0  0  0  0  0  0  0  0  0
    2.9490   -4.3665   -0.3066 C   0  0  0  0  0  0  0  0  0  0  0  0
    5.6237   -4.7107    0.6666 H   0  0  0  0  0  0  0  0  0  0  0  0
    4.4646   -4.0565    1.8109 H   0  0  0  0  0  0  0  0  0  0  0  0
    5.7462   -3.0381    1.2306 H   0  0  0  0  0  0  0  0  0  0  0  0
    3.9521   -1.4446    0.7398 H   0  0  0  0  0  0  0  0  0  0  0  0
    5.4113   -0.2641   -2.2716 H   0  0  0  0  0  0  0  0  0  0  0  0
    5.6120   -0.4506   -0.5307 H   0  0  0  0  0  0  0  0  0  0  0  0
    6.4915   -2.3177   -2.6793 H   0  0  0  0  0  0  0  0  0  0  0  0
    6.7651   -2.6579    0.0526 H   0  0  0  0  0  0  0  0  0  0  0  0
    5.0941   -4.3090   -2.0985 H   0  0  0  0  0  0  0  0  0  0  0  0
    4.2135   -2.9473   -4.5042 H   0  0  0  0  0  0  0  0  0  0  0  0
    5.0070   -1.4732   -4.0094 H   0  0  0  0  0  0  0  0  0  0  0  0
    3.2843   -1.4746   -4.2781 H   0  0  0  0  0  0  0  0  0  0  0  0
    1.6653   -2.5908   -2.9744 H   0  0  0  0  0  0  0  0  0  0  0  0
    2.5383   -4.0517   -3.2725 H   0  0  0  0  0  0  0  0  0  0  0  0
    1.3253   -3.0648   -0.7278 H   0  0  0  0  0  0  0  0  0  0  0  0
    1.1254   -4.6288   -1.4728 H   0  0  0  0  0  0  0  0  0  0  0  0
    3.3096   -5.3399   -0.6364 H   0  0  0  0  0  0  0  0  0  0  0  0
    2.5162   -4.5148    0.6859 H   0  0  0  0  0  0  0  0  0  0  0  0
  2  1  1  1
  1 14  1  0
  1 15  1  0
  1 16  1  0
  2  8  1  0
  2 13  1  0
  2  3  1  0
  3  4  2  0
  3 17  1  0
  4  9  1  0
  4  5  1  0
  5  6  1  0
  5 18  1  0
  5 19  1  0
  6  7  1  0
  6  8  1  0
  6 20  1  6
  7 21  1  0
  8  9  1  0
  8 22  1  6
  9 10  1  6
  9 11  1  0
 10 23  1  0
 10 24  1  0
 10 25  1  0
 11 12  1  0
 11 26  1  0
 11 27  1  0
 12 13  1  0
 12 28  1  0
 12 29  1  0
 13 30  1  0
 13 31  1  0
M  END
>  <i_m_ct_stereo_status>  (201) 
1

>  <s_m_source_file>  (201) 
/var/tmp/pbs.5076255.sched01/tmpb5cfx69f/43pm4c6kpw.sdf

>  <i_m_source_file_index>  (201) 
38

>  <i_lp_mmshare_version>  (201) 
48012

>  <i_f3d_flags>  (201) 
0

>  <s_epik_input>  (201) 
W0NIM11bQ0BdMTJbQ0BIXTNbQ0BAXShbQ0gzXSkoW0NIMl1bQ0gyXVtDSDJdMilDKD1bQ0hdMSlbQ0gyXVtDQEhdM1tPSF0=

>  <s_epik_cmdline>  (201) 
J2VwaWtfcHl0aG9uJywgJy1waHQnLCAnMi4wJywgJy1waCcsICc3LjAnLCAnLXRuJywgJzgnLCAnLW1hJywgJzIwMCcsICctaW1hZScsICc8aW5maWxlLm1hZT4nLCAnLW9tYWUnLCAnPG91dGZpbGUubWFlPic=

>  <r_lp_tautomer_probability>  (201) 
1

>  <r_epik_Ionization_Penalty>  (201) 
8.27858e-07

>  <r_epik_Ionization_Penalty_Charging>  (201) 
0

>  <r_epik_Ionization_Penalty_Neutral>  (201) 
8.27858e-07

>  <r_epik_State_Penalty>  (201) 
-0

>  <r_epik_Charging_Adjusted_Penalty>  (201) 
0

>  <i_epik_Tot_Q>  (201) 
0

>  <i_epik_Tot_abs_Q>  (201) 
0

>  <s_lp_Force_Field>  (201) 
OPLS3e

>  <r_lp_Energy>  (201) 
80.1224

>  <b_lp_Chiralities_Consistent>  (201) 
1

>  <s_lp_Variant>  (201) 
56:0-1

>  <s_i_glide_gridfile>  (201) 
pfpi4k_grid

>  <i_i_glide_lignum>  (201) 
38

>  <i_i_glide_rotatable_bonds>  (201) 
1

>  <r_i_docking_score>  (201) 
-3.53945

>  <r_i_glide_ligand_efficiency>  (201) 
-0.272265

>  <r_i_glide_ligand_efficiency_sa>  (201) 
-0.640187

>  <r_i_glide_ligand_efficiency_ln>  (201) 
-0.992847

>  <r_i_glide_gscore>  (201) 
-3.53945

>  <r_i_glide_lipo>  (201) 
-0.3283

>  <r_i_glide_hbond>  (201) 
-0.106335

>  <r_i_glide_metal>  (201) 
-0

>  <r_i_glide_rewards>  (201) 
-2.19361

>  <r_i_glide_evdw>  (201) 
-15.5293

>  <r_i_glide_ecoul>  (201) 
-0.898266

>  <r_i_glide_erotb>  (201) 
0

>  <r_i_glide_esite>  (201) 
0

>  <r_i_glide_emodel>  (201) 
-20.933

>  <r_i_glide_energy>  (201) 
-16.4275

>  <r_i_glide_einternal>  (201) 
0.0810132

>  <r_i_glide_intrahb_reward>  (201) 
-0

>  <i_i_glide_confnum>  (201) 
2

>  <i_i_glide_posenum>  (201) 
15

>  <r_i_glide_eff_state_penalty>  (201) 
0

>  <ligand_id>  (201) 
56

>  <original_smiles>  (201) 
CC12C=C3CC(O)C1C3(C)CCC2

>  <smiles>  (201) 
[H]OC1([H])C([H])([H])C2=C([H])C3(C([H])([H])[H])C([H])([H])C([H])([H])C([H])([H])C2(C([H])([H])[H])C13[H]

$$$$
57:0:0
     RDKit          3D

 73 78  0  0  1  0  0  0  0  0999 V2000
    1.8697    0.1496    3.4767 C   0  0  0  0  0  0  0  0  0  0  0  0
    1.8786   -1.3483    3.7314 C   0  0  0  0  0  0  0  0  0  0  0  0
    0.8263   -2.1599    3.6794 C   0  0  0  0  0  0  0  0  0  0  0  0
    1.1001   -3.5550    4.1868 C   0  0  1  0  0  0  0  0  0  0  0  0
    0.9015   -4.5965    3.2627 O   0  0  0  0  0  0  0  0  0  0  0  0
    2.5682   -3.4905    4.6713 C   0  0  2  0  0  0  0  0  0  0  0  0
    2.5038   -3.7683    6.1829 C   0  0  0  0  0  0  0  0  0  0  0  0
    3.0872   -2.0535    4.2919 C   0  0  1  0  0  0  0  0  0  0  0  0
    4.3747   -2.1876    3.3692 C   0  0  2  0  0  0  0  0  0  0  0  0
    5.3561   -1.0422    3.7057 C   0  0  0  0  0  0  0  0  0  0  0  0
    4.1641   -2.0345    1.7898 C   0  0  0  0  0  0  0  0  0  0  0  0
    2.9410   -2.6011    0.9638 C   0  0  0  0  0  0  0  0  0  0  0  0
    3.1584   -3.5178   -0.3191 C   0  0  2  0  0  0  0  0  0  0  0  0
    2.1128   -4.6494   -0.2875 C   0  0  0  0  0  0  0  0  0  0  0  0
    4.6056   -4.0457   -0.3065 C   0  0  0  0  0  0  0  0  0  0  0  0
    5.0729   -5.0567    0.4833 C   0  0  0  0  0  0  0  0  0  0  0  0
    6.5444   -5.2402    0.7373 C   0  0  0  0  0  0  0  0  0  0  0  0
    6.8122   -4.4321    2.0045 C   0  0  0  0  0  0  0  0  0  0  0  0
    5.7919   -4.7018    3.1466 C   0  0  2  0  0  0  0  0  0  0  0  0
    4.8582   -5.9087    2.9378 C   0  0  2  0  0  0  0  0  0  0  0  0
    4.3309   -5.9938    1.4698 C   0  0  0  0  0  0  0  0  0  0  0  0
    3.8398   -5.7028    3.9338 O   0  0  0  0  0  0  0  0  0  0  0  0
    3.6078   -4.3132    3.8790 C   0  0  2  0  0  0  0  0  0  0  0  0
    4.9374   -3.5891    3.8786 C   0  0  2  0  0  0  0  0  0  0  0  0
    5.5417   -3.4874    5.3170 C   0  0  0  0  0  0  0  0  0  0  0  0
    5.5673   -3.2269   -1.2213 C   0  0  0  0  0  0  0  0  0  0  0  0
    5.2492   -1.7354   -1.4407 C   0  0  0  0  0  0  0  0  0  0  0  0
    3.7777   -1.4237   -1.7085 C   0  0  1  0  0  0  0  0  0  0  0  0
    3.6267   -0.7152   -2.9268 O   0  0  0  0  0  0  0  0  0  0  0  0
    2.8915   -2.6836   -1.6369 C   0  0  1  0  0  0  0  0  0  0  0  0
    2.8099   -3.4304   -2.9718 C   0  0  0  0  0  0  0  0  0  0  0  0
    2.5446    0.4311    2.6675 H   0  0  0  0  0  0  0  0  0  0  0  0
    2.1814    0.6758    4.3822 H   0  0  0  0  0  0  0  0  0  0  0  0
    0.8661    0.5077    3.2229 H   0  0  0  0  0  0  0  0  0  0  0  0
   -0.1585   -1.8226    3.4069 H   0  0  0  0  0  0  0  0  0  0  0  0
    0.3875   -3.7299    4.9931 H   0  0  0  0  0  0  0  0  0  0  0  0
    1.5146   -4.4597    2.5533 H   0  0  0  0  0  0  0  0  0  0  0  0
    3.4476   -3.7521    6.7085 H   0  0  0  0  0  0  0  0  0  0  0  0
    2.0600   -4.7475    6.3643 H   0  0  0  0  0  0  0  0  0  0  0  0
    1.8666   -3.0207    6.6608 H   0  0  0  0  0  0  0  0  0  0  0  0
    3.3359   -1.5249    5.2146 H   0  0  0  0  0  0  0  0  0  0  0  0
    6.2925   -1.2117    3.1806 H   0  0  0  0  0  0  0  0  0  0  0  0
    5.5654   -0.9519    4.7715 H   0  0  0  0  0  0  0  0  0  0  0  0
    4.9959   -0.0689    3.3834 H   0  0  0  0  0  0  0  0  0  0  0  0
    4.1336   -0.9653    1.5814 H   0  0  0  0  0  0  0  0  0  0  0  0
    5.1078   -2.2986    1.3368 H   0  0  0  0  0  0  0  0  0  0  0  0
    2.2168   -3.0431    1.6264 H   0  0  0  0  0  0  0  0  0  0  0  0
    2.3663   -1.7193    0.6693 H   0  0  0  0  0  0  0  0  0  0  0  0
    1.2174   -4.3681   -0.8279 H   0  0  0  0  0  0  0  0  0  0  0  0
    1.7431   -4.8586    0.7081 H   0  0  0  0  0  0  0  0  0  0  0  0
    2.4504   -5.5588   -0.7138 H   0  0  0  0  0  0  0  0  0  0  0  0
    6.7799   -6.2908    0.9130 H   0  0  0  0  0  0  0  0  0  0  0  0
    7.2253   -4.9332   -0.0522 H   0  0  0  0  0  0  0  0  0  0  0  0
    7.8199   -4.6998    2.3418 H   0  0  0  0  0  0  0  0  0  0  0  0
    6.8585   -3.3672    1.7834 H   0  0  0  0  0  0  0  0  0  0  0  0
    6.4520   -5.0936    3.9215 H   0  0  0  0  0  0  0  0  0  0  0  0
    5.3904   -6.8323    3.1732 H   0  0  0  0  0  0  0  0  0  0  0  0
    3.2620   -5.9376    1.4687 H   0  0  0  0  0  0  0  0  0  0  0  0
    4.5346   -7.0051    1.1190 H   0  0  0  0  0  0  0  0  0  0  0  0
    3.2483   -4.2432    2.8698 H   0  0  0  0  0  0  0  0  0  0  0  0
    5.4650   -4.4358    5.8562 H   0  0  0  0  0  0  0  0  0  0  0  0
    5.0906   -2.7207    5.9443 H   0  0  0  0  0  0  0  0  0  0  0  0
    6.5957   -3.2348    5.2775 H   0  0  0  0  0  0  0  0  0  0  0  0
    6.5892   -3.2204   -0.8626 H   0  0  0  0  0  0  0  0  0  0  0  0
    5.5996   -3.7406   -2.1816 H   0  0  0  0  0  0  0  0  0  0  0  0
    5.5587   -1.1671   -0.5699 H   0  0  0  0  0  0  0  0  0  0  0  0
    5.8510   -1.3648   -2.2647 H   0  0  0  0  0  0  0  0  0  0  0  0
    3.4504   -0.7153   -0.9485 H   0  0  0  0  0  0  0  0  0  0  0  0
    2.7424   -0.3687   -2.9444 H   0  0  0  0  0  0  0  0  0  0  0  0
    1.8609   -2.3449   -1.6200 H   0  0  0  0  0  0  0  0  0  0  0  0
    3.7422   -3.9424   -3.2270 H   0  0  0  0  0  0  0  0  0  0  0  0
    2.5372   -2.7870   -3.7990 H   0  0  0  0  0  0  0  0  0  0  0  0
    2.0062   -4.1678   -2.9226 H   0  0  0  0  0  0  0  0  0  0  0  0
  1  2  1  0
  1 32  1  0
  1 33  1  0
  1 34  1  0
  2  8  1  0
  2  3  2  0
  3  4  1  0
  3 35  1  0
  4  5  1  0
  4  6  1  0
  4 36  1  1
  5 37  1  0
  6 23  1  0
  6  7  1  1
  6  8  1  0
  7 38  1  0
  7 39  1  0
  7 40  1  0
  8  9  1  0
  8 41  1  1
  9 24  1  0
  9 10  1  1
  9 11  1  0
 10 42  1  0
 10 43  1  0
 10 44  1  0
 11 12  1  0
 11 45  1  0
 11 46  1  0
 12 13  1  0
 12 47  1  0
 12 48  1  0
 13 30  1  0
 13 14  1  1
 13 15  1  0
 14 49  1  0
 14 50  1  0
 14 51  1  0
 15 16  2  3
 15 26  1  0
 16 21  1  0
 16 17  1  0
 17 18  1  0
 17 52  1  0
 17 53  1  0
 18 19  1  0
 18 54  1  0
 18 55  1  0
 19 24  1  0
 19 20  1  0
 19 56  1  1
 20 21  1  0
 20 22  1  0
 20 57  1  1
 21 58  1  0
 21 59  1  0
 22 23  1  0
 23 24  1  0
 23 60  1  6
 24 25  1  1
 25 61  1  0
 25 62  1  0
 25 63  1  0
 26 27  1  0
 26 64  1  0
 26 65  1  0
 27 28  1  0
 27 66  1  0
 27 67  1  0
 28 29  1  0
 28 30  1  0
 28 68  1  1
 29 69  1  0
 30 31  1  0
 30 70  1  1
 31 71  1  0
 31 72  1  0
 31 73  1  0
M  END
>  <i_m_ct_stereo_status>  (202) 
1

>  <s_m_source_file>  (202) 
/var/tmp/pbs.5076255.sched01/tmpb5cfx69f/43pm4c6kpw.sdf

>  <i_m_source_file_index>  (202) 
39

>  <i_lp_mmshare_version>  (202) 
48012

>  <i_f3d_flags>  (202) 
0

>  <s_epik_input>  (202) 
W09IXVtDQEBIXTFbQ0hdPUMoW0NIM10pW0NAQEhdKFtDQEBdMTJbQ0gzXSlbQ0BAXTMoW0NIM10pW0NAXTQoW0NIM10pW0NIXTVbQ0BASF0oT1tDQEBIXTI0KVtDSDJdQyhbQ0gyXVtDSDJdNSk9QzZbQ0BAXShbQ0gzXSkoW0NIMl1bQ0gyXTMpW0NASF0oW0NIM10pW0NASF0oW09IXSlbQ0gyXVtDSDJdNg==

>  <s_epik_cmdline>  (202) 
J2VwaWtfcHl0aG9uJywgJy1waHQnLCAnMi4wJywgJy1waCcsICc3LjAnLCAnLXRuJywgJzgnLCAnLW1hJywgJzIwMCcsICctaW1hZScsICc8aW5maWxlLm1hZT4nLCAnLW9tYWUnLCAnPG91dGZpbGUubWFlPic=

>  <r_lp_tautomer_probability>  (202) 
1

>  <r_epik_Ionization_Penalty>  (202) 
1.16219e-06

>  <r_epik_Ionization_Penalty_Charging>  (202) 
0

>  <r_epik_Ionization_Penalty_Neutral>  (202) 
1.16219e-06

>  <r_epik_State_Penalty>  (202) 
-0

>  <r_epik_Charging_Adjusted_Penalty>  (202) 
0

>  <i_epik_Tot_Q>  (202) 
0

>  <i_epik_Tot_abs_Q>  (202) 
0

>  <s_lp_Force_Field>  (202) 
OPLS3e

>  <r_lp_Energy>  (202) 
120.094

>  <b_lp_Chiralities_Consistent>  (202) 
1

>  <s_lp_Variant>  (202) 
57:0-1

>  <s_i_glide_gridfile>  (202) 
pfpi4k_grid

>  <i_i_glide_lignum>  (202) 
39

>  <i_i_glide_rotatable_bonds>  (202) 
2

>  <r_i_docking_score>  (202) 
-2.04636

>  <r_i_glide_ligand_efficiency>  (202) 
-0.0660116

>  <r_i_glide_ligand_efficiency_sa>  (202) 
-0.207368

>  <r_i_glide_ligand_efficiency_ln>  (202) 
-0.461517

>  <r_i_glide_gscore>  (202) 
-2.04636

>  <r_i_glide_lipo>  (202) 
-0.669615

>  <r_i_glide_hbond>  (202) 
0

>  <r_i_glide_metal>  (202) 
-0

>  <r_i_glide_rewards>  (202) 
-0.500241

>  <r_i_glide_evdw>  (202) 
-12.1659

>  <r_i_glide_ecoul>  (202) 
-1.78808

>  <r_i_glide_erotb>  (202) 
0

>  <r_i_glide_esite>  (202) 
0

>  <r_i_glide_emodel>  (202) 
-13.2478

>  <r_i_glide_energy>  (202) 
-13.9539

>  <r_i_glide_einternal>  (202) 
0.496362

>  <r_i_glide_intrahb_reward>  (202) 
-0

>  <i_i_glide_confnum>  (202) 
2

>  <i_i_glide_posenum>  (202) 
5

>  <r_i_glide_eff_state_penalty>  (202) 
0

>  <ligand_id>  (202) 
57

>  <original_smiles>  (202) 
CC1=CC(O)C2(C)C1C1(C)CCC3(C)C(=C4CCC5C(C4)OC2C51C)CCC(O)C3C

>  <smiles>  (202) 
[H]OC1([H])C([H])=C(C([H])([H])[H])C2([H])C1(C([H])([H])[H])C1([H])OC3([H])C([H])([H])C4=C5C([H])([H])C([H])([H])C([H])(O[H])C([H])(C([H])([H])[H])C5(C([H])([H])[H])C([H])([H])C([H])([H])C2(C([H])([H])[H])C1(C([H])([H])[H])C3([H])C([H])([H])C4([H])[H]

$$$$
57:0:1
     RDKit          3D

 73 78  0  0  1  0  0  0  0  0999 V2000
    1.8882    0.1483    3.4766 C   0  0  0  0  0  0  0  0  0  0  0  0
    1.8922   -1.3403    3.7436 C   0  0  0  0  0  0  0  0  0  0  0  0
    0.8400   -2.1507    3.6822 C   0  0  0  0  0  0  0  0  0  0  0  0
    1.1043   -3.5524    4.1904 C   0  0  1  0  0  0  0  0  0  0  0  0
    0.9179   -4.5574    3.2248 O   0  0  0  0  0  0  0  0  0  0  0  0
    2.5740   -3.4838    4.6824 C   0  0  2  0  0  0  0  0  0  0  0  0
    2.5072   -3.7694    6.1948 C   0  0  0  0  0  0  0  0  0  0  0  0
    3.0985   -2.0431    4.3107 C   0  0  1  0  0  0  0  0  0  0  0  0
    4.3850   -2.1956    3.3724 C   0  0  2  0  0  0  0  0  0  0  0  0
    5.3680   -1.0435    3.7011 C   0  0  0  0  0  0  0  0  0  0  0  0
    4.1638   -2.0383    1.7980 C   0  0  0  0  0  0  0  0  0  0  0  0
    2.9418   -2.5999    0.9736 C   0  0  0  0  0  0  0  0  0  0  0  0
    3.1625   -3.5089   -0.3133 C   0  0  2  0  0  0  0  0  0  0  0  0
    2.1236   -4.6595   -0.2657 C   0  0  0  0  0  0  0  0  0  0  0  0
    4.6065   -4.0514   -0.3075 C   0  0  0  0  0  0  0  0  0  0  0  0
    5.0724   -5.0718    0.4953 C   0  0  0  0  0  0  0  0  0  0  0  0
    6.5402   -5.2547    0.7407 C   0  0  0  0  0  0  0  0  0  0  0  0
    6.8058   -4.4561    2.0085 C   0  0  0  0  0  0  0  0  0  0  0  0
    5.7661   -4.6985    3.1422 C   0  0  2  0  0  0  0  0  0  0  0  0
    4.8438   -5.9104    2.9410 C   0  0  2  0  0  0  0  0  0  0  0  0
    4.3226   -5.9945    1.4711 C   0  0  0  0  0  0  0  0  0  0  0  0
    3.8286   -5.7063    3.9507 O   0  0  0  0  0  0  0  0  0  0  0  0
    3.6035   -4.3148    3.8878 C   0  0  2  0  0  0  0  0  0  0  0  0
    4.9351   -3.5957    3.8835 C   0  0  2  0  0  0  0  0  0  0  0  0
    5.5527   -3.4898    5.3132 C   0  0  0  0  0  0  0  0  0  0  0  0
    5.5662   -3.2393   -1.2150 C   0  0  0  0  0  0  0  0  0  0  0  0
    5.2520   -1.7446   -1.4395 C   0  0  0  0  0  0  0  0  0  0  0  0
    3.7746   -1.4304   -1.7035 C   0  0  1  0  0  0  0  0  0  0  0  0
    3.6308   -0.7279   -2.9233 O   0  0  0  0  0  0  0  0  0  0  0  0
    2.9002   -2.6891   -1.6371 C   0  0  1  0  0  0  0  0  0  0  0  0
    2.8124   -3.4440   -2.9731 C   0  0  0  0  0  0  0  0  0  0  0  0
    2.5610    0.4359    2.6669 H   0  0  0  0  0  0  0  0  0  0  0  0
    2.1969    0.6696    4.3801 H   0  0  0  0  0  0  0  0  0  0  0  0
    0.8866    0.5035    3.2266 H   0  0  0  0  0  0  0  0  0  0  0  0
   -0.1434   -1.8030    3.4229 H   0  0  0  0  0  0  0  0  0  0  0  0
    0.3891   -3.7351    4.9978 H   0  0  0  0  0  0  0  0  0  0  0  0
    1.3395   -5.3553    3.5246 H   0  0  0  0  0  0  0  0  0  0  0  0
    3.4567   -3.7508    6.7155 H   0  0  0  0  0  0  0  0  0  0  0  0
    2.0632   -4.7476    6.3784 H   0  0  0  0  0  0  0  0  0  0  0  0
    1.8763   -3.0155    6.6648 H   0  0  0  0  0  0  0  0  0  0  0  0
    3.3406   -1.5257    5.2352 H   0  0  0  0  0  0  0  0  0  0  0  0
    6.2886   -1.2109    3.1619 H   0  0  0  0  0  0  0  0  0  0  0  0
    5.5739   -0.9550    4.7712 H   0  0  0  0  0  0  0  0  0  0  0  0
    4.9960   -0.0680    3.3857 H   0  0  0  0  0  0  0  0  0  0  0  0
    4.1348   -0.9665    1.5796 H   0  0  0  0  0  0  0  0  0  0  0  0
    5.1037   -2.3040    1.3439 H   0  0  0  0  0  0  0  0  0  0  0  0
    2.2207   -3.0438    1.6248 H   0  0  0  0  0  0  0  0  0  0  0  0
    2.3703   -1.7299    0.6696 H   0  0  0  0  0  0  0  0  0  0  0  0
    1.2272   -4.3824   -0.8281 H   0  0  0  0  0  0  0  0  0  0  0  0
    1.7387   -4.8302    0.7424 H   0  0  0  0  0  0  0  0  0  0  0  0
    2.4687   -5.5907   -0.7018 H   0  0  0  0  0  0  0  0  0  0  0  0
    6.7661   -6.3059    0.9170 H   0  0  0  0  0  0  0  0  0  0  0  0
    7.2186   -4.9437   -0.0472 H   0  0  0  0  0  0  0  0  0  0  0  0
    7.8129   -4.7177    2.3498 H   0  0  0  0  0  0  0  0  0  0  0  0
    6.8462   -3.3935    1.7773 H   0  0  0  0  0  0  0  0  0  0  0  0
    6.4197   -5.0959    3.9111 H   0  0  0  0  0  0  0  0  0  0  0  0
    5.3817   -6.8385    3.1742 H   0  0  0  0  0  0  0  0  0  0  0  0
    3.2475   -5.9364    1.4750 H   0  0  0  0  0  0  0  0  0  0  0  0
    4.5240   -7.0109    1.1251 H   0  0  0  0  0  0  0  0  0  0  0  0
    3.2543   -4.2410    2.8730 H   0  0  0  0  0  0  0  0  0  0  0  0
    5.4657   -4.4357    5.8505 H   0  0  0  0  0  0  0  0  0  0  0  0
    5.1027   -2.7229    5.9448 H   0  0  0  0  0  0  0  0  0  0  0  0
    6.6104   -3.2469    5.2765 H   0  0  0  0  0  0  0  0  0  0  0  0
    6.5901   -3.2306   -0.8579 H   0  0  0  0  0  0  0  0  0  0  0  0
    5.5932   -3.7523   -2.1754 H   0  0  0  0  0  0  0  0  0  0  0  0
    5.5608   -1.1727   -0.5665 H   0  0  0  0  0  0  0  0  0  0  0  0
    5.8469   -1.3748   -2.2688 H   0  0  0  0  0  0  0  0  0  0  0  0
    3.4498   -0.7243   -0.9411 H   0  0  0  0  0  0  0  0  0  0  0  0
    2.7459   -0.3803   -2.9369 H   0  0  0  0  0  0  0  0  0  0  0  0
    1.8682   -2.3589   -1.6128 H   0  0  0  0  0  0  0  0  0  0  0  0
    3.7495   -3.9368   -3.2313 H   0  0  0  0  0  0  0  0  0  0  0  0
    2.5356   -2.7774   -3.7918 H   0  0  0  0  0  0  0  0  0  0  0  0
    1.9994   -4.1612   -2.9194 H   0  0  0  0  0  0  0  0  0  0  0  0
  1  2  1  0
  1 32  1  0
  1 33  1  0
  1 34  1  0
  2  8  1  0
  2  3  2  0
  3  4  1  0
  3 35  1  0
  4  5  1  0
  4  6  1  0
  4 36  1  1
  5 37  1  0
  6 23  1  0
  6  7  1  1
  6  8  1  0
  7 38  1  0
  7 39  1  0
  7 40  1  0
  8  9  1  0
  8 41  1  1
  9 24  1  0
  9 10  1  1
  9 11  1  0
 10 42  1  0
 10 43  1  0
 10 44  1  0
 11 12  1  0
 11 45  1  0
 11 46  1  0
 12 13  1  0
 12 47  1  0
 12 48  1  0
 13 30  1  0
 13 14  1  1
 13 15  1  0
 14 49  1  0
 14 50  1  0
 14 51  1  0
 15 16  2  3
 15 26  1  0
 16 21  1  0
 16 17  1  0
 17 18  1  0
 17 52  1  0
 17 53  1  0
 18 19  1  0
 18 54  1  0
 18 55  1  0
 19 24  1  0
 19 20  1  0
 19 56  1  1
 20 21  1  0
 20 22  1  0
 20 57  1  1
 21 58  1  0
 21 59  1  0
 22 23  1  0
 23 24  1  0
 23 60  1  6
 24 25  1  1
 25 61  1  0
 25 62  1  0
 25 63  1  0
 26 27  1  0
 26 64  1  0
 26 65  1  0
 27 28  1  0
 27 66  1  0
 27 67  1  0
 28 29  1  0
 28 30  1  0
 28 68  1  1
 29 69  1  0
 30 31  1  0
 30 70  1  1
 31 71  1  0
 31 72  1  0
 31 73  1  0
M  END
>  <i_m_ct_stereo_status>  (203) 
1

>  <s_m_source_file>  (203) 
/var/tmp/pbs.5076255.sched01/tmpb5cfx69f/43pm4c6kpw.sdf

>  <i_m_source_file_index>  (203) 
39

>  <i_lp_mmshare_version>  (203) 
48012

>  <i_f3d_flags>  (203) 
0

>  <s_epik_input>  (203) 
W09IXVtDQEBIXTFbQ0hdPUMoW0NIM10pW0NAQEhdKFtDQEBdMTJbQ0gzXSlbQ0BAXTMoW0NIM10pW0NAXTQoW0NIM10pW0NIXTVbQ0BASF0oT1tDQEBIXTI0KVtDSDJdQyhbQ0gyXVtDSDJdNSk9QzZbQ0BAXShbQ0gzXSkoW0NIMl1bQ0gyXTMpW0NASF0oW0NIM10pW0NASF0oW09IXSlbQ0gyXVtDSDJdNg==

>  <s_epik_cmdline>  (203) 
J2VwaWtfcHl0aG9uJywgJy1waHQnLCAnMi4wJywgJy1waCcsICc3LjAnLCAnLXRuJywgJzgnLCAnLW1hJywgJzIwMCcsICctaW1hZScsICc8aW5maWxlLm1hZT4nLCAnLW9tYWUnLCAnPG91dGZpbGUubWFlPic=

>  <r_lp_tautomer_probability>  (203) 
1

>  <r_epik_Ionization_Penalty>  (203) 
1.16219e-06

>  <r_epik_Ionization_Penalty_Charging>  (203) 
0

>  <r_epik_Ionization_Penalty_Neutral>  (203) 
1.16219e-06

>  <r_epik_State_Penalty>  (203) 
-0

>  <r_epik_Charging_Adjusted_Penalty>  (203) 
0

>  <i_epik_Tot_Q>  (203) 
0

>  <i_epik_Tot_abs_Q>  (203) 
0

>  <s_lp_Force_Field>  (203) 
OPLS3e

>  <r_lp_Energy>  (203) 
120.094

>  <b_lp_Chiralities_Consistent>  (203) 
1

>  <s_lp_Variant>  (203) 
57:0-1

>  <s_i_glide_gridfile>  (203) 
pfpi4k_grid

>  <i_i_glide_lignum>  (203) 
39

>  <i_i_glide_rotatable_bonds>  (203) 
2

>  <r_i_docking_score>  (203) 
-1.87038

>  <r_i_glide_ligand_efficiency>  (203) 
-0.060335

>  <r_i_glide_ligand_efficiency_sa>  (203) 
-0.189535

>  <r_i_glide_ligand_efficiency_ln>  (203) 
-0.421829

>  <r_i_glide_gscore>  (203) 
-1.87038

>  <r_i_glide_lipo>  (203) 
-0.670121

>  <r_i_glide_hbond>  (203) 
0

>  <r_i_glide_metal>  (203) 
-0

>  <r_i_glide_rewards>  (203) 
-0.500241

>  <r_i_glide_evdw>  (203) 
-12.3517

>  <r_i_glide_ecoul>  (203) 
-0.549594

>  <r_i_glide_erotb>  (203) 
0

>  <r_i_glide_esite>  (203) 
0

>  <r_i_glide_emodel>  (203) 
-11.8341

>  <r_i_glide_energy>  (203) 
-12.9012

>  <r_i_glide_einternal>  (203) 
0.97942

>  <r_i_glide_intrahb_reward>  (203) 
-0

>  <i_i_glide_confnum>  (203) 
2

>  <i_i_glide_posenum>  (203) 
35

>  <r_i_glide_eff_state_penalty>  (203) 
0

>  <ligand_id>  (203) 
57

>  <original_smiles>  (203) 
CC1=CC(O)C2(C)C1C1(C)CCC3(C)C(=C4CCC5C(C4)OC2C51C)CCC(O)C3C

>  <smiles>  (203) 
[H]OC1([H])C([H])=C(C([H])([H])[H])C2([H])C1(C([H])([H])[H])C1([H])OC3([H])C([H])([H])C4=C5C([H])([H])C([H])([H])C([H])(O[H])C([H])(C([H])([H])[H])C5(C([H])([H])[H])C([H])([H])C([H])([H])C2(C([H])([H])[H])C1(C([H])([H])[H])C3([H])C([H])([H])C4([H])[H]

$$$$
58:0:0
     RDKit          3D

 33 37  0  0  1  0  0  0  0  0999 V2000
    3.4805   -5.3799    1.3363 C   0  0  0  0  0  0  0  0  0  0  0  0
    3.8744   -4.1618    0.7348 C   0  0  0  0  0  0  0  0  0  0  0  0
    5.2183   -3.9656    0.3195 C   0  0  0  0  0  0  0  0  0  0  0  0
    6.1839   -4.9894    0.4826 C   0  0  0  0  0  0  0  0  0  0  0  0
    5.7607   -6.1880    1.0752 C   0  0  0  0  0  0  0  0  0  0  0  0
    4.4568   -6.3766    1.4923 C   0  0  0  0  0  0  0  0  0  0  0  0
    4.3317   -7.6080    2.0465 O   0  0  0  0  0  0  0  0  0  0  0  0
    5.6276   -8.1462    2.0653 C   0  0  0  0  0  0  0  0  0  0  0  0
    6.4850   -7.2993    1.3454 O   0  0  0  0  0  0  0  0  0  0  0  0
    5.6031   -2.6451   -0.3238 C   0  0  1  0  0  0  0  0  0  0  0  0
    6.0812   -2.5978   -1.7773 C   0  0  0  0  0  0  0  0  0  0  0  0
    4.9400   -1.6303   -2.1339 C   0  0  1  0  0  0  0  0  0  0  0  0
    3.7952   -2.1325   -2.9899 C   0  0  0  0  0  0  0  0  0  0  0  0
    2.9549   -2.9435   -1.9966 C   0  0  0  0  0  0  0  0  0  0  0  0
    3.1234   -2.2517   -0.6932 N   0  0  1  0  0  0  0  0  0  0  0  0
    2.8483   -3.0598    0.5171 C   0  0  0  0  0  0  0  0  0  0  0  0
    4.4837   -1.6489   -0.6783 C   0  0  1  0  0  0  0  0  0  0  0  0
    2.4689   -5.5458    1.6800 H   0  0  0  0  0  0  0  0  0  0  0  0
    7.2032   -4.8619    0.1513 H   0  0  0  0  0  0  0  0  0  0  0  0
    5.9719   -8.1667    3.0996 H   0  0  0  0  0  0  0  0  0  0  0  0
    5.6423   -9.1619    1.6663 H   0  0  0  0  0  0  0  0  0  0  0  0
    6.3425   -2.1551    0.3091 H   0  0  0  0  0  0  0  0  0  0  0  0
    7.0709   -2.1581   -1.8912 H   0  0  0  0  0  0  0  0  0  0  0  0
    6.0140   -3.5555   -2.2999 H   0  0  0  0  0  0  0  0  0  0  0  0
    5.3229   -0.6521   -2.4249 H   0  0  0  0  0  0  0  0  0  0  0  0
    3.2086   -1.2926   -3.3674 H   0  0  0  0  0  0  0  0  0  0  0  0
    4.1218   -2.7309   -3.8436 H   0  0  0  0  0  0  0  0  0  0  0  0
    1.9057   -3.0170   -2.2863 H   0  0  0  0  0  0  0  0  0  0  0  0
    3.3664   -3.9481   -1.9288 H   0  0  0  0  0  0  0  0  0  0  0  0
    1.8536   -3.4913    0.4369 H   0  0  0  0  0  0  0  0  0  0  0  0
    2.8501   -2.3985    1.3852 H   0  0  0  0  0  0  0  0  0  0  0  0
    4.5604   -0.6925   -0.1525 H   0  0  0  0  0  0  0  0  0  0  0  0
    2.4287   -1.5032   -0.7181 H   0  0  0  0  0  0  0  0  0  0  0  0
  1  6  2  0
  1  2  1  0
  1 18  1  0
  2 16  1  0
  2  3  2  0
  3  4  1  0
  3 10  1  0
  4  5  2  0
  4 19  1  0
  5  9  1  0
  5  6  1  0
  6  7  1  0
  7  8  1  0
  8  9  1  0
  8 20  1  0
  8 21  1  0
 10 17  1  0
 10 11  1  0
 10 22  1  1
 11 12  1  0
 11 23  1  0
 11 24  1  0
 12 17  1  0
 12 13  1  0
 12 25  1  6
 13 14  1  0
 13 26  1  0
 13 27  1  0
 14 15  1  0
 14 28  1  0
 14 29  1  0
 15 16  1  0
 15 17  1  0
 15 33  1  6
 16 30  1  0
 16 31  1  0
 17 32  1  1
M  CHG  1  15   1
M  END
>  <i_m_ct_stereo_status>  (204) 
1

>  <s_m_source_file>  (204) 
/var/tmp/pbs.5076255.sched01/tmpb5cfx69f/43pm4c6kpw.sdf

>  <i_m_source_file_index>  (204) 
40

>  <i_lp_mmshare_version>  (204) 
48012

>  <i_f3d_flags>  (204) 
0

>  <s_epik_input>  (204) 
TzFbQ0gyXU9jKFtjSF0yKWMxW2NIXWMoYzIzKVtDQEBIXTRbQ0BIXTVbQ0BASF0oW0NIMl00KVtDSDJdW0NIMl1ONVtDSDJdMw==

>  <s_epik_cmdline>  (204) 
J2VwaWtfcHl0aG9uJywgJy1waHQnLCAnMi4wJywgJy1waCcsICc3LjAnLCAnLXRuJywgJzgnLCAnLW1hJywgJzIwMCcsICctaW1hZScsICc8aW5maWxlLm1hZT4nLCAnLW9tYWUnLCAnPG91dGZpbGUubWFlPic=

>  <r_lp_tautomer_probability>  (204) 
1

>  <r_epik_Ionization_Penalty>  (204) 
0.00505384

>  <r_epik_Ionization_Penalty_Charging>  (204) 
0.00505384

>  <r_epik_Ionization_Penalty_Neutral>  (204) 
0

>  <r_epik_State_Penalty>  (204) 
0.0036767

>  <r_epik_Charging_Adjusted_Penalty>  (204) 
0.00873054

>  <i_epik_Tot_Q>  (204) 
1

>  <i_epik_Tot_abs_Q>  (204) 
1

>  <s_epik_Chemistry_Notes>  (204) 
This compound contains an acetal/aminal-like group ( X-CH(R)-Y where X, Y are N, S, or O) that may be acid/base labile, releasing an aldehyde.

>  <s_lp_Force_Field>  (204) 
OPLS3e

>  <r_lp_Energy>  (204) 
49.9142

>  <b_lp_Chiralities_Consistent>  (204) 
1

>  <s_lp_Variant>  (204) 
58:0-1

>  <s_i_glide_gridfile>  (204) 
pfpi4k_grid

>  <i_i_glide_lignum>  (204) 
40

>  <i_i_glide_rotatable_bonds>  (204) 
0

>  <r_i_docking_score>  (204) 
-4.47755

>  <r_i_glide_ligand_efficiency>  (204) 
-0.263385

>  <r_i_glide_ligand_efficiency_sa>  (204) 
-0.677238

>  <r_i_glide_ligand_efficiency_ln>  (204) 
-1.16809

>  <r_i_glide_gscore>  (204) 
-4.47755

>  <r_i_glide_lipo>  (204) 
-0.41831

>  <r_i_glide_hbond>  (204) 
-0.197498

>  <r_i_glide_metal>  (204) 
-0

>  <r_i_glide_rewards>  (204) 
-1.89698

>  <r_i_glide_evdw>  (204) 
-19.4728

>  <r_i_glide_ecoul>  (204) 
-6.01315

>  <r_i_glide_erotb>  (204) 
0

>  <r_i_glide_esite>  (204) 
-0.089149

>  <r_i_glide_emodel>  (204) 
-33.3177

>  <r_i_glide_energy>  (204) 
-25.486

>  <r_i_glide_einternal>  (204) 
0

>  <r_i_glide_intrahb_reward>  (204) 
-0

>  <i_i_glide_confnum>  (204) 
1

>  <i_i_glide_posenum>  (204) 
5

>  <r_i_glide_eff_state_penalty>  (204) 
0

>  <ligand_id>  (204) 
58

>  <original_smiles>  (204) 
c1c2c(cc3c1OCO3)C1CC3CCN(C2)C31

>  <smiles>  (204) 
[H]c1c2c(c([H])c3c1C1([H])C([H])([H])C4([H])C([H])([H])C([H])([H])[N+]([H])(C3([H])[H])C14[H])OC([H])([H])O2

$$$$
58:0:1
     RDKit          3D

 33 37  0  0  1  0  0  0  0  0999 V2000
    2.6543   -3.8144    1.4339 C   0  0  0  0  0  0  0  0  0  0  0  0
    3.5050   -3.2678    0.4341 C   0  0  0  0  0  0  0  0  0  0  0  0
    4.4064   -4.0920   -0.2723 C   0  0  0  0  0  0  0  0  0  0  0  0
    4.4713   -5.4867   -0.0353 C   0  0  0  0  0  0  0  0  0  0  0  0
    3.6058   -6.0167    0.9483 C   0  0  0  0  0  0  0  0  0  0  0  0
    2.7358   -5.2083    1.6591 C   0  0  0  0  0  0  0  0  0  0  0  0
    2.0437   -5.9630    2.5507 O   0  0  0  0  0  0  0  0  0  0  0  0
    2.6017   -7.2527    2.4498 C   0  0  0  0  0  0  0  0  0  0  0  0
    3.4859   -7.2960    1.3579 O   0  0  0  0  0  0  0  0  0  0  0  0
    5.2795   -3.4489   -1.3353 C   0  0  1  0  0  0  0  0  0  0  0  0
    5.1187   -3.8361   -2.8013 C   0  0  0  0  0  0  0  0  0  0  0  0
    4.7759   -2.4137   -3.1697 C   0  0  1  0  0  0  0  0  0  0  0  0
    3.4232   -2.0440   -3.6250 C   0  0  0  0  0  0  0  0  0  0  0  0
    2.7292   -1.9935   -2.2987 C   0  0  0  0  0  0  0  0  0  0  0  0
    3.7095   -1.4988   -1.3019 N   0  0  1  0  0  0  0  0  0  0  0  0
    3.4237   -1.7796    0.1249 C   0  0  0  0  0  0  0  0  0  0  0  0
    5.0228   -1.9901   -1.7316 C   0  0  1  0  0  0  0  0  0  0  0  0
    1.9726   -3.2027    2.0052 H   0  0  0  0  0  0  0  0  0  0  0  0
    5.1234   -6.1347   -0.6085 H   0  0  0  0  0  0  0  0  0  0  0  0
    3.1818   -7.4382    3.3492 H   0  0  0  0  0  0  0  0  0  0  0  0
    1.8283   -8.0091    2.3609 H   0  0  0  0  0  0  0  0  0  0  0  0
    6.3173   -3.5955   -1.0482 H   0  0  0  0  0  0  0  0  0  0  0  0
    6.0740   -4.0843   -3.2550 H   0  0  0  0  0  0  0  0  0  0  0  0
    4.3249   -4.5400   -3.0450 H   0  0  0  0  0  0  0  0  0  0  0  0
    5.4662   -2.0993   -3.8945 H   0  0  0  0  0  0  0  0  0  0  0  0
    3.4534   -1.0557   -4.0912 H   0  0  0  0  0  0  0  0  0  0  0  0
    2.9837   -2.7446   -4.3379 H   0  0  0  0  0  0  0  0  0  0  0  0
    1.9066   -1.3192   -2.3669 H   0  0  0  0  0  0  0  0  0  0  0  0
    2.3467   -2.9823   -2.0485 H   0  0  0  0  0  0  0  0  0  0  0  0
    2.4713   -1.3875    0.4645 H   0  0  0  0  0  0  0  0  0  0  0  0
    4.1669   -1.2752    0.7291 H   0  0  0  0  0  0  0  0  0  0  0  0
    5.8745   -1.3435   -1.5579 H   0  0  0  0  0  0  0  0  0  0  0  0
    3.7289   -0.4966   -1.4073 H   0  0  0  0  0  0  0  0  0  0  0  0
  1  6  2  0
  1  2  1  0
  1 18  1  0
  2 16  1  0
  2  3  2  0
  3  4  1  0
  3 10  1  0
  4  5  2  0
  4 19  1  0
  5  9  1  0
  5  6  1  0
  6  7  1  0
  7  8  1  0
  8  9  1  0
  8 20  1  0
  8 21  1  0
 10 17  1  0
 10 11  1  0
 10 22  1  1
 11 12  1  0
 11 23  1  0
 11 24  1  0
 12 17  1  0
 12 13  1  0
 12 25  1  6
 13 14  1  0
 13 26  1  0
 13 27  1  0
 14 15  1  0
 14 28  1  0
 14 29  1  0
 15 16  1  0
 15 17  1  0
 15 33  1  1
 16 30  1  0
 16 31  1  0
 17 32  1  6
M  CHG  1  15   1
M  END
>  <i_m_ct_stereo_status>  (205) 
1

>  <s_m_source_file>  (205) 
/var/tmp/pbs.5076255.sched01/tmpb5cfx69f/43pm4c6kpw.sdf

>  <i_m_source_file_index>  (205) 
40

>  <i_lp_mmshare_version>  (205) 
48012

>  <i_f3d_flags>  (205) 
0

>  <s_epik_input>  (205) 
TzFbQ0gyXU9jKFtjSF0yKWMxW2NIXWMoYzIzKVtDQEBIXTRbQ0BIXTVbQ0BASF0oW0NIMl00KVtDSDJdW0NIMl1ONVtDSDJdMw==

>  <s_epik_cmdline>  (205) 
J2VwaWtfcHl0aG9uJywgJy1waHQnLCAnMi4wJywgJy1waCcsICc3LjAnLCAnLXRuJywgJzgnLCAnLW1hJywgJzIwMCcsICctaW1hZScsICc8aW5maWxlLm1hZT4nLCAnLW9tYWUnLCAnPG91dGZpbGUubWFlPic=

>  <r_lp_tautomer_probability>  (205) 
1

>  <r_epik_Ionization_Penalty>  (205) 
0.00505384

>  <r_epik_Ionization_Penalty_Charging>  (205) 
0.00505384

>  <r_epik_Ionization_Penalty_Neutral>  (205) 
0

>  <r_epik_State_Penalty>  (205) 
0.0036767

>  <r_epik_Charging_Adjusted_Penalty>  (205) 
0.00873054

>  <i_epik_Tot_Q>  (205) 
1

>  <i_epik_Tot_abs_Q>  (205) 
1

>  <s_epik_Chemistry_Notes>  (205) 
This compound contains an acetal/aminal-like group ( X-CH(R)-Y where X, Y are N, S, or O) that may be acid/base labile, releasing an aldehyde.

>  <s_lp_Force_Field>  (205) 
OPLS3e

>  <r_lp_Energy>  (205) 
49.9142

>  <b_lp_Chiralities_Consistent>  (205) 
1

>  <s_lp_Variant>  (205) 
58:0-1

>  <s_i_glide_gridfile>  (205) 
pfpi4k_grid

>  <i_i_glide_lignum>  (205) 
40

>  <i_i_glide_rotatable_bonds>  (205) 
0

>  <r_i_docking_score>  (205) 
-3.51656

>  <r_i_glide_ligand_efficiency>  (205) 
-0.206856

>  <r_i_glide_ligand_efficiency_sa>  (205) 
-0.531886

>  <r_i_glide_ligand_efficiency_ln>  (205) 
-0.917392

>  <r_i_glide_gscore>  (205) 
-3.51656

>  <r_i_glide_lipo>  (205) 
-0.473775

>  <r_i_glide_hbond>  (205) 
0

>  <r_i_glide_metal>  (205) 
-0

>  <r_i_glide_rewards>  (205) 
-1.83898

>  <r_i_glide_evdw>  (205) 
-10.3922

>  <r_i_glide_ecoul>  (205) 
-3.99662

>  <r_i_glide_erotb>  (205) 
0

>  <r_i_glide_esite>  (205) 
-0.0846976

>  <r_i_glide_emodel>  (205) 
-20.3208

>  <r_i_glide_energy>  (205) 
-14.3888

>  <r_i_glide_einternal>  (205) 
0

>  <r_i_glide_intrahb_reward>  (205) 
-0

>  <i_i_glide_confnum>  (205) 
2

>  <i_i_glide_posenum>  (205) 
1

>  <r_i_glide_eff_state_penalty>  (205) 
0

>  <ligand_id>  (205) 
58

>  <original_smiles>  (205) 
c1c2c(cc3c1OCO3)C1CC3CCN(C2)C31

>  <smiles>  (205) 
[H]c1c2c(c([H])c3c1C1([H])C([H])([H])C4([H])C([H])([H])C([H])([H])[N+]([H])(C3([H])[H])C14[H])OC([H])([H])O2

$$$$
59:0:0
     RDKit          3D

 49 55  0  0  1  0  0  0  0  0999 V2000
    4.5834    0.0643   -2.4628 C   0  0  0  0  0  0  0  0  0  0  0  0
    4.2242   -1.0863   -2.9729 C   0  0  0  0  0  0  0  0  0  0  0  0
    3.7073   -1.1055   -4.3965 C   0  0  0  0  0  0  0  0  0  0  0  0
    4.3128   -2.4161   -2.1926 C   0  0  2  0  0  0  0  0  0  0  0  0
    2.9024   -3.2485   -2.2306 C   0  0  0  0  0  0  0  0  0  0  0  0
    2.1334   -3.4823   -0.8339 C   0  0  2  0  0  0  0  0  0  0  0  0
    2.6745   -2.4114    0.0640 C   0  0  2  0  0  0  0  0  0  0  0  0
    3.7274   -1.5638   -0.2579 O   0  0  0  0  0  0  0  0  0  0  0  0
    4.8399   -2.3369   -0.6859 C   0  0  1  0  0  0  0  0  0  0  0  0
    4.7983   -3.7642   -0.2464 C   0  0  1  0  0  0  0  0  0  0  0  0
    6.0510   -4.5685    0.1731 C   0  0  0  0  0  0  0  0  0  0  0  0
    3.5862   -3.4721    0.5700 C   0  0  2  0  0  0  0  0  0  0  0  0
    2.7006   -4.4903    0.2926 C   0  0  2  0  0  0  0  0  0  0  0  0
    2.6343   -5.9268    0.8212 C   0  0  2  0  0  0  0  0  0  0  0  0
    3.5980   -6.2479    1.8864 O   0  0  0  0  0  0  0  0  0  0  0  0
    3.4748   -5.0756    2.7843 C   0  0  1  0  0  0  0  0  0  0  0  0
    4.9413   -4.4247    2.9696 C   0  0  0  0  0  0  0  0  0  0  0  0
    5.8705   -5.2032    3.1667 O   0  0  0  0  0  0  0  0  0  0  0  0
    5.4521   -2.9045    3.0043 C   0  0  2  0  0  0  0  0  0  0  0  0
    4.7614   -1.7257    2.5641 O   0  0  0  0  0  0  0  0  0  0  0  0
    6.0008   -1.9331    1.8401 C   0  0  2  0  0  0  0  0  0  0  0  0
    5.9767   -1.6982    0.2217 C   0  0  1  0  0  0  0  0  0  0  0  0
    7.2090   -1.9314   -0.4785 O   0  0  0  0  0  0  0  0  0  0  0  0
    8.4032   -1.9132    0.2850 C   0  0  0  0  0  0  0  0  0  0  0  0
    2.3729   -4.7747    1.7414 C   0  0  1  0  0  0  0  0  0  0  0  0
    4.5207    0.9525   -3.0747 H   0  0  0  0  0  0  0  0  0  0  0  0
    4.9152    0.1109   -1.4282 H   0  0  0  0  0  0  0  0  0  0  0  0
    2.6670   -1.4303   -4.4662 H   0  0  0  0  0  0  0  0  0  0  0  0
    4.3726   -1.7212   -4.9901 H   0  0  0  0  0  0  0  0  0  0  0  0
    3.7412   -0.0855   -4.7932 H   0  0  0  0  0  0  0  0  0  0  0  0
    5.0447   -2.9915   -2.7560 H   0  0  0  0  0  0  0  0  0  0  0  0
    2.1754   -2.8085   -2.9170 H   0  0  0  0  0  0  0  0  0  0  0  0
    3.1284   -4.2101   -2.6779 H   0  0  0  0  0  0  0  0  0  0  0  0
    1.0601   -3.4604   -0.9372 H   0  0  0  0  0  0  0  0  0  0  0  0
    1.9917   -2.0616    0.8452 H   0  0  0  0  0  0  0  0  0  0  0  0
    4.5604   -4.4607   -1.0553 H   0  0  0  0  0  0  0  0  0  0  0  0
    6.6594   -4.1354    0.9560 H   0  0  0  0  0  0  0  0  0  0  0  0
    6.6926   -4.6044   -0.7042 H   0  0  0  0  0  0  0  0  0  0  0  0
    5.8149   -5.6026    0.4587 H   0  0  0  0  0  0  0  0  0  0  0  0
    3.5808   -3.0130    1.5126 H   0  0  0  0  0  0  0  0  0  0  0  0
    1.7282   -6.5228    0.7799 H   0  0  0  0  0  0  0  0  0  0  0  0
    3.0523   -5.3676    3.7458 H   0  0  0  0  0  0  0  0  0  0  0  0
    6.0029   -2.7091    3.9250 H   0  0  0  0  0  0  0  0  0  0  0  0
    6.7175   -1.2315    2.2340 H   0  0  0  0  0  0  0  0  0  0  0  0
    5.8920   -0.6131    0.1919 H   0  0  0  0  0  0  0  0  0  0  0  0
    9.2720   -2.0810   -0.3513 H   0  0  0  0  0  0  0  0  0  0  0  0
    8.3852   -2.7385    0.9908 H   0  0  0  0  0  0  0  0  0  0  0  0
    8.5281   -0.9671    0.8134 H   0  0  0  0  0  0  0  0  0  0  0  0
    1.3992   -4.5208    2.1187 H   0  0  0  0  0  0  0  0  0  0  0  0
  1  2  2  0
  1 26  1  0
  1 27  1  0
  2  3  1  0
  2  4  1  0
  3 28  1  0
  3 29  1  0
  3 30  1  0
  4  9  1  0
  4  5  1  0
  4 31  1  6
  5  6  1  0
  5 32  1  0
  5 33  1  0
 13  6  1  6
  6  7  1  0
  6 34  1  6
  7 12  1  0
  7  8  1  0
  7 35  1  1
  9  8  1  1
  9 22  1  0
  9 10  1  0
 10 11  1  0
 10 12  1  0
 10 36  1  6
 11 37  1  0
 11 38  1  0
 11 39  1  0
 12 13  1  0
 12 40  1  1
 13 25  1  0
 13 14  1  0
 14 25  1  0
 14 15  1  0
 14 41  1  6
 15 16  1  0
 16 17  1  0
 16 25  1  0
 16 42  1  1
 17 18  2  0
 17 19  1  0
 19 21  1  0
 19 20  1  0
 19 43  1  1
 20 21  1  0
 21 22  1  0
 21 44  1  1
 22 23  1  0
 22 45  1  1
 23 24  1  0
 24 46  1  0
 24 47  1  0
 24 48  1  0
 25 49  1  1
M  END
>  <i_m_ct_stereo_status>  (206) 
1

>  <s_m_source_file>  (206) 
/var/tmp/pbs.5076255.sched01/tmpb5cfx69f/43pm4c6kpw.sdf

>  <i_m_source_file_index>  (206) 
41

>  <i_lp_mmshare_version>  (206) 
48012

>  <i_f3d_flags>  (206) 
0

>  <s_epik_input>  (206) 
W0NIMl09QyhbQ0gzXSlbQ0BASF0oW0NAQF0xMjMpW0NIMl1bQ0BIXTRbQ0BdNShbQ0hdKFtDQEhdNE8xKVtDQEBIXTJbQ0gzXSlbQ0BASF02W0NASF01W0NAQEhdKE82KUMoPU8pW0NASF03W0NASF0oTzcpW0NASF0zT1tDSDNd

>  <s_epik_cmdline>  (206) 
J2VwaWtfcHl0aG9uJywgJy1waHQnLCAnMi4wJywgJy1waCcsICc3LjAnLCAnLXRuJywgJzgnLCAnLW1hJywgJzIwMCcsICctaW1hZScsICc8aW5maWxlLm1hZT4nLCAnLW9tYWUnLCAnPG91dGZpbGUubWFlPic=

>  <r_lp_tautomer_probability>  (206) 
1

>  <r_epik_Ionization_Penalty>  (206) 
1.87254e-10

>  <r_epik_Ionization_Penalty_Charging>  (206) 
0

>  <r_epik_Ionization_Penalty_Neutral>  (206) 
1.87254e-10

>  <r_epik_State_Penalty>  (206) 
-0

>  <r_epik_Charging_Adjusted_Penalty>  (206) 
0

>  <i_epik_Tot_Q>  (206) 
0

>  <i_epik_Tot_abs_Q>  (206) 
0

>  <s_lp_Force_Field>  (206) 
OPLS3e

>  <r_lp_Energy>  (206) 
242.02

>  <b_lp_Chiralities_Consistent>  (206) 
1

>  <s_lp_Variant>  (206) 
59:0-1

>  <s_i_glide_gridfile>  (206) 
pfpi4k_grid

>  <i_i_glide_lignum>  (206) 
41

>  <i_i_glide_rotatable_bonds>  (206) 
2

>  <r_i_docking_score>  (206) 
-2.47967

>  <r_i_glide_ligand_efficiency>  (206) 
-0.099187

>  <r_i_glide_ligand_efficiency_sa>  (206) 
-0.290024

>  <r_i_glide_ligand_efficiency_ln>  (206) 
-0.587757

>  <r_i_glide_gscore>  (206) 
-2.47967

>  <r_i_glide_lipo>  (206) 
-0.402748

>  <r_i_glide_hbond>  (206) 
-0.16

>  <r_i_glide_metal>  (206) 
-0

>  <r_i_glide_rewards>  (206) 
-1.08033

>  <r_i_glide_evdw>  (206) 
-14.0171

>  <r_i_glide_ecoul>  (206) 
-1.97207

>  <r_i_glide_erotb>  (206) 
0.160076

>  <r_i_glide_esite>  (206) 
0

>  <r_i_glide_emodel>  (206) 
-14.8985

>  <r_i_glide_energy>  (206) 
-15.9892

>  <r_i_glide_einternal>  (206) 
4.6681

>  <r_i_glide_intrahb_reward>  (206) 
-0

>  <i_i_glide_confnum>  (206) 
2

>  <i_i_glide_posenum>  (206) 
2

>  <r_i_glide_eff_state_penalty>  (206) 
0

>  <ligand_id>  (206) 
59

>  <original_smiles>  (206) 
C=C(C)C1CC2C3OC14C(C)C3C21C2OC(C(=O)C3OC3C4OC)C21

>  <smiles>  (206) 
[H]C([H])=C(C([H])([H])[H])C1([H])C([H])([H])C2([H])C3([H])OC14C([H])(OC([H])([H])[H])C1([H])OC1([H])C(=O)C1([H])OC5([H])C1([H])C52C3([H])C4([H])C([H])([H])[H]

$$$$
59:0:1
     RDKit          3D

 49 55  0  0  1  0  0  0  0  0999 V2000
    3.8538   -2.2995    6.0903 C   0  0  0  0  0  0  0  0  0  0  0  0
    2.6481   -2.2143    5.4785 C   0  0  0  0  0  0  0  0  0  0  0  0
    1.3892   -2.1852    6.3256 C   0  0  0  0  0  0  0  0  0  0  0  0
    2.4269   -2.1179    3.9488 C   0  0  2  0  0  0  0  0  0  0  0  0
    1.4697   -3.3214    3.3226 C   0  0  0  0  0  0  0  0  0  0  0  0
    2.1614   -4.3604    2.2759 C   0  0  2  0  0  0  0  0  0  0  0  0
    3.6149   -4.2261    2.5874 C   0  0  2  0  0  0  0  0  0  0  0  0
    4.1759   -3.2898    3.4433 O   0  0  0  0  0  0  0  0  0  0  0  0
    3.7333   -1.9885    3.0692 C   0  0  1  0  0  0  0  0  0  0  0  0
    3.2241   -1.8931    1.6642 C   0  0  1  0  0  0  0  0  0  0  0  0
    3.4298   -0.6415    0.7520 C   0  0  0  0  0  0  0  0  0  0  0  0
    3.6627   -3.2997    1.4196 C   0  0  2  0  0  0  0  0  0  0  0  0
    2.5862   -3.9076    0.7797 C   0  0  2  0  0  0  0  0  0  0  0  0
    2.1576   -3.8839   -0.6965 C   0  0  2  0  0  0  0  0  0  0  0  0
    3.0248   -3.1279   -1.5942 O   0  0  0  0  0  0  0  0  0  0  0  0
    4.3403   -3.6810   -1.2013 C   0  0  1  0  0  0  0  0  0  0  0  0
    5.2930   -2.4045   -0.8342 C   0  0  0  0  0  0  0  0  0  0  0  0
    5.2875   -1.4868   -1.6184 O   0  0  0  0  0  0  0  0  0  0  0  0
    6.3423   -2.1444    0.3584 C   0  0  2  0  0  0  0  0  0  0  0  0
    6.5346   -2.8668    1.5800 O   0  0  0  0  0  0  0  0  0  0  0  0
    6.1743   -1.4755    1.8354 C   0  0  2  0  0  0  0  0  0  0  0  0
    5.1245   -1.2446    3.0466 C   0  0  1  0  0  0  0  0  0  0  0  0
    4.9065    0.1619    3.1326 O   0  0  0  0  0  0  0  0  0  0  0  0
    4.5353    0.6636    4.4076 C   0  0  0  0  0  0  0  0  0  0  0  0
    3.4153   -4.5485   -0.3095 C   0  0  1  0  0  0  0  0  0  0  0  0
    3.8863   -2.3340    7.1676 H   0  0  0  0  0  0  0  0  0  0  0  0
    4.7784   -2.3418    5.5378 H   0  0  0  0  0  0  0  0  0  0  0  0
    0.7218   -3.0267    6.1284 H   0  0  0  0  0  0  0  0  0  0  0  0
    0.8450   -1.2542    6.1577 H   0  0  0  0  0  0  0  0  0  0  0  0
    1.6536   -2.2287    7.3767 H   0  0  0  0  0  0  0  0  0  0  0  0
    1.8740   -1.1832    3.8195 H   0  0  0  0  0  0  0  0  0  0  0  0
    0.9972   -3.8883    4.1328 H   0  0  0  0  0  0  0  0  0  0  0  0
    0.6247   -2.8496    2.8177 H   0  0  0  0  0  0  0  0  0  0  0  0
    1.8469   -5.4008    2.3691 H   0  0  0  0  0  0  0  0  0  0  0  0
    4.2058   -5.1390    2.4430 H   0  0  0  0  0  0  0  0  0  0  0  0
    2.1395   -1.8053    1.6097 H   0  0  0  0  0  0  0  0  0  0  0  0
    4.4424   -0.2771    0.6138 H   0  0  0  0  0  0  0  0  0  0  0  0
    2.8927    0.2088    1.1859 H   0  0  0  0  0  0  0  0  0  0  0  0
    3.0075   -0.7941   -0.2487 H   0  0  0  0  0  0  0  0  0  0  0  0
    4.6364   -3.5949    1.2036 H   0  0  0  0  0  0  0  0  0  0  0  0
    1.5032   -4.6382   -1.1153 H   0  0  0  0  0  0  0  0  0  0  0  0
    4.7768   -4.3009   -1.9852 H   0  0  0  0  0  0  0  0  0  0  0  0
    7.3100   -1.8760   -0.0697 H   0  0  0  0  0  0  0  0  0  0  0  0
    7.0300   -0.8670    2.0513 H   0  0  0  0  0  0  0  0  0  0  0  0
    5.6759   -1.5309    3.9368 H   0  0  0  0  0  0  0  0  0  0  0  0
    4.2473    1.7063    4.3226 H   0  0  0  0  0  0  0  0  0  0  0  0
    5.3666    0.5940    5.1101 H   0  0  0  0  0  0  0  0  0  0  0  0
    3.6811    0.1432    4.8307 H   0  0  0  0  0  0  0  0  0  0  0  0
    3.5168   -5.6403   -0.2995 H   0  0  0  0  0  0  0  0  0  0  0  0
  1  2  2  0
  1 26  1  0
  1 27  1  0
  2  3  1  0
  2  4  1  0
  3 28  1  0
  3 29  1  0
  3 30  1  0
  4  9  1  0
  4  5  1  0
  4 31  1  1
  5  6  1  0
  5 32  1  0
  5 33  1  0
 13  6  1  1
  6  7  1  0
  6 34  1  6
  7 12  1  0
  7  8  1  0
  7 35  1  6
  9  8  1  6
  9 22  1  0
  9 10  1  0
 10 11  1  0
 10 12  1  0
 10 36  1  1
 11 37  1  0
 11 38  1  0
 11 39  1  0
 12 13  1  0
 12 40  1  6
 13 25  1  0
 13 14  1  0
 14 25  1  0
 14 15  1  0
 14 41  1  1
 15 16  1  0
 16 17  1  0
 16 25  1  0
 16 42  1  6
 17 18  2  0
 17 19  1  0
 19 21  1  0
 19 20  1  0
 19 43  1  6
 20 21  1  0
 21 22  1  0
 21 44  1  6
 22 23  1  0
 22 45  1  1
 23 24  1  0
 24 46  1  0
 24 47  1  0
 24 48  1  0
 25 49  1  1
M  END
>  <i_m_ct_stereo_status>  (207) 
1

>  <s_m_source_file>  (207) 
/var/tmp/pbs.5076255.sched01/tmpb5cfx69f/43pm4c6kpw.sdf

>  <i_m_source_file_index>  (207) 
41

>  <i_lp_mmshare_version>  (207) 
48012

>  <i_f3d_flags>  (207) 
0

>  <s_epik_input>  (207) 
W0NIMl09QyhbQ0gzXSlbQ0BASF0oW0NAQF0xMjMpW0NIMl1bQ0BIXTRbQ0BdNShbQ0hdKFtDQEhdNE8xKVtDQEBIXTJbQ0gzXSlbQ0BASF02W0NASF01W0NAQEhdKE82KUMoPU8pW0NASF03W0NASF0oTzcpW0NASF0zT1tDSDNd

>  <s_epik_cmdline>  (207) 
J2VwaWtfcHl0aG9uJywgJy1waHQnLCAnMi4wJywgJy1waCcsICc3LjAnLCAnLXRuJywgJzgnLCAnLW1hJywgJzIwMCcsICctaW1hZScsICc8aW5maWxlLm1hZT4nLCAnLW9tYWUnLCAnPG91dGZpbGUubWFlPic=

>  <r_lp_tautomer_probability>  (207) 
1

>  <r_epik_Ionization_Penalty>  (207) 
1.87254e-10

>  <r_epik_Ionization_Penalty_Charging>  (207) 
0

>  <r_epik_Ionization_Penalty_Neutral>  (207) 
1.87254e-10

>  <r_epik_State_Penalty>  (207) 
-0

>  <r_epik_Charging_Adjusted_Penalty>  (207) 
0

>  <i_epik_Tot_Q>  (207) 
0

>  <i_epik_Tot_abs_Q>  (207) 
0

>  <s_lp_Force_Field>  (207) 
OPLS3e

>  <r_lp_Energy>  (207) 
242.02

>  <b_lp_Chiralities_Consistent>  (207) 
1

>  <s_lp_Variant>  (207) 
59:0-1

>  <s_i_glide_gridfile>  (207) 
pfpi4k_grid

>  <i_i_glide_lignum>  (207) 
41

>  <i_i_glide_rotatable_bonds>  (207) 
2

>  <r_i_docking_score>  (207) 
-2.43789

>  <r_i_glide_ligand_efficiency>  (207) 
-0.0975157

>  <r_i_glide_ligand_efficiency_sa>  (207) 
-0.285138

>  <r_i_glide_ligand_efficiency_ln>  (207) 
-0.577854

>  <r_i_glide_gscore>  (207) 
-2.43789

>  <r_i_glide_lipo>  (207) 
-0.417059

>  <r_i_glide_hbond>  (207) 
-0.036489

>  <r_i_glide_metal>  (207) 
-0

>  <r_i_glide_rewards>  (207) 
-1.0609

>  <r_i_glide_evdw>  (207) 
-18.1581

>  <r_i_glide_ecoul>  (207) 
-1.07282

>  <r_i_glide_erotb>  (207) 
0.160076

>  <r_i_glide_esite>  (207) 
-0.0146955

>  <r_i_glide_emodel>  (207) 
-19.973

>  <r_i_glide_energy>  (207) 
-19.2309

>  <r_i_glide_einternal>  (207) 
1.92982

>  <r_i_glide_intrahb_reward>  (207) 
-0

>  <i_i_glide_confnum>  (207) 
3

>  <i_i_glide_posenum>  (207) 
24

>  <r_i_glide_eff_state_penalty>  (207) 
0

>  <ligand_id>  (207) 
59

>  <original_smiles>  (207) 
C=C(C)C1CC2C3OC14C(C)C3C21C2OC(C(=O)C3OC3C4OC)C21

>  <smiles>  (207) 
[H]C([H])=C(C([H])([H])[H])C1([H])C([H])([H])C2([H])C3([H])OC14C([H])(OC([H])([H])[H])C1([H])OC1([H])C(=O)C1([H])OC5([H])C1([H])C52C3([H])C4([H])C([H])([H])[H]

$$$$
59:0:2
     RDKit          3D

 49 55  0  0  1  0  0  0  0  0999 V2000
    5.1607   -3.6400    6.3342 C   0  0  0  0  0  0  0  0  0  0  0  0
    3.8652   -3.9754    6.0418 C   0  0  0  0  0  0  0  0  0  0  0  0
    3.0170   -4.6122    7.1183 C   0  0  0  0  0  0  0  0  0  0  0  0
    3.1732   -3.7279    4.6884 C   0  0  2  0  0  0  0  0  0  0  0  0
    2.5508   -5.1030    3.9738 C   0  0  0  0  0  0  0  0  0  0  0  0
    3.2248   -5.5967    2.5817 C   0  0  2  0  0  0  0  0  0  0  0  0
    4.5602   -4.9238    2.5899 C   0  0  2  0  0  0  0  0  0  0  0  0
    4.9863   -3.9873    3.5181 O   0  0  0  0  0  0  0  0  0  0  0  0
    4.0172   -2.9436    3.6026 C   0  0  1  0  0  0  0  0  0  0  0  0
    3.1048   -2.8372    2.4421 C   0  0  1  0  0  0  0  0  0  0  0  0
    2.5787   -1.4790    1.8784 C   0  0  0  0  0  0  0  0  0  0  0  0
    3.9100   -3.8805    1.7352 C   0  0  2  0  0  0  0  0  0  0  0  0
    3.0011   -4.7814    1.2117 C   0  0  2  0  0  0  0  0  0  0  0  0
    2.1625   -4.7138   -0.0609 C   0  0  2  0  0  0  0  0  0  0  0  0
    2.3785   -3.5206   -0.8781 O   0  0  0  0  0  0  0  0  0  0  0  0
    3.8600   -3.5083   -0.9674 C   0  0  1  0  0  0  0  0  0  0  0  0
    4.3779   -2.0509   -0.4825 C   0  0  0  0  0  0  0  0  0  0  0  0
    3.8143   -1.0785   -0.9889 O   0  0  0  0  0  0  0  0  0  0  0  0
    5.5770   -1.5493    0.4722 C   0  0  2  0  0  0  0  0  0  0  0  0
    6.3728   -2.3450    1.3692 O   0  0  0  0  0  0  0  0  0  0  0  0
    5.6639   -1.2858    2.0583 C   0  0  2  0  0  0  0  0  0  0  0  0
    4.9466   -1.6738    3.4810 C   0  0  1  0  0  0  0  0  0  0  0  0
    4.2323   -0.5854    4.0657 O   0  0  0  0  0  0  0  0  0  0  0  0
    5.0281    0.4958    4.5167 C   0  0  0  0  0  0  0  0  0  0  0  0
    3.6381   -4.8231   -0.1691 C   0  0  1  0  0  0  0  0  0  0  0  0
    5.5361   -3.8233    7.3263 H   0  0  0  0  0  0  0  0  0  0  0  0
    5.8192   -3.2014    5.6112 H   0  0  0  0  0  0  0  0  0  0  0  0
    2.6746   -5.6100    6.8352 H   0  0  0  0  0  0  0  0  0  0  0  0
    2.1490   -3.9905    7.3476 H   0  0  0  0  0  0  0  0  0  0  0  0
    3.5943   -4.7281    8.0324 H   0  0  0  0  0  0  0  0  0  0  0  0
    2.3178   -3.0938    4.9347 H   0  0  0  0  0  0  0  0  0  0  0  0
    2.5854   -5.9338    4.6863 H   0  0  0  0  0  0  0  0  0  0  0  0
    1.4786   -4.9709    3.7925 H   0  0  0  0  0  0  0  0  0  0  0  0
    3.3089   -6.6739    2.4543 H   0  0  0  0  0  0  0  0  0  0  0  0
    5.3529   -5.4736    2.0814 H   0  0  0  0  0  0  0  0  0  0  0  0
    2.0960   -3.1991    2.6440 H   0  0  0  0  0  0  0  0  0  0  0  0
    3.3223   -0.7259    1.6335 H   0  0  0  0  0  0  0  0  0  0  0  0
    1.9447   -1.0060    2.6341 H   0  0  0  0  0  0  0  0  0  0  0  0
    1.9525   -1.6274    0.9922 H   0  0  0  0  0  0  0  0  0  0  0  0
    4.8171   -3.6893    1.2460 H   0  0  0  0  0  0  0  0  0  0  0  0
    1.6781   -5.5888   -0.5020 H   0  0  0  0  0  0  0  0  0  0  0  0
    4.1810   -3.7231   -1.9817 H   0  0  0  0  0  0  0  0  0  0  0  0
    6.2005   -0.8363   -0.0657 H   0  0  0  0  0  0  0  0  0  0  0  0
    6.3505   -0.4711    2.2611 H   0  0  0  0  0  0  0  0  0  0  0  0
    5.7821   -1.8546    4.1587 H   0  0  0  0  0  0  0  0  0  0  0  0
    4.3768    1.2287    4.9934 H   0  0  0  0  0  0  0  0  0  0  0  0
    5.5213    0.9795    3.6804 H   0  0  0  0  0  0  0  0  0  0  0  0
    5.7916    0.1941    5.2351 H   0  0  0  0  0  0  0  0  0  0  0  0
    4.1479   -5.7416   -0.4787 H   0  0  0  0  0  0  0  0  0  0  0  0
  1  2  2  0
  1 26  1  0
  1 27  1  0
  2  3  1  0
  2  4  1  0
  3 28  1  0
  3 29  1  0
  3 30  1  0
  4  9  1  0
  4  5  1  0
  4 31  1  1
  5  6  1  0
  5 32  1  0
  5 33  1  0
 13  6  1  1
  6  7  1  0
  6 34  1  6
  7 12  1  0
  7  8  1  0
  7 35  1  6
  9  8  1  6
  9 22  1  0
  9 10  1  0
 10 11  1  0
 10 12  1  0
 10 36  1  1
 11 37  1  0
 11 38  1  0
 11 39  1  0
 12 13  1  0
 12 40  1  6
 13 25  1  0
 13 14  1  0
 14 25  1  0
 14 15  1  0
 14 41  1  6
 15 16  1  0
 16 17  1  0
 16 25  1  0
 16 42  1  6
 17 18  2  0
 17 19  1  0
 19 21  1  0
 19 20  1  0
 19 43  1  6
 20 21  1  0
 21 22  1  0
 21 44  1  6
 22 23  1  0
 22 45  1  1
 23 24  1  0
 24 46  1  0
 24 47  1  0
 24 48  1  0
 25 49  1  6
M  END
>  <i_m_ct_stereo_status>  (208) 
1

>  <s_m_source_file>  (208) 
/var/tmp/pbs.5076255.sched01/tmpb5cfx69f/43pm4c6kpw.sdf

>  <i_m_source_file_index>  (208) 
41

>  <i_lp_mmshare_version>  (208) 
48012

>  <i_f3d_flags>  (208) 
0

>  <s_epik_input>  (208) 
W0NIMl09QyhbQ0gzXSlbQ0BASF0oW0NAQF0xMjMpW0NIMl1bQ0BIXTRbQ0BdNShbQ0hdKFtDQEhdNE8xKVtDQEBIXTJbQ0gzXSlbQ0BASF02W0NASF01W0NAQEhdKE82KUMoPU8pW0NASF03W0NASF0oTzcpW0NASF0zT1tDSDNd

>  <s_epik_cmdline>  (208) 
J2VwaWtfcHl0aG9uJywgJy1waHQnLCAnMi4wJywgJy1waCcsICc3LjAnLCAnLXRuJywgJzgnLCAnLW1hJywgJzIwMCcsICctaW1hZScsICc8aW5maWxlLm1hZT4nLCAnLW9tYWUnLCAnPG91dGZpbGUubWFlPic=

>  <r_lp_tautomer_probability>  (208) 
1

>  <r_epik_Ionization_Penalty>  (208) 
1.87254e-10

>  <r_epik_Ionization_Penalty_Charging>  (208) 
0

>  <r_epik_Ionization_Penalty_Neutral>  (208) 
1.87254e-10

>  <r_epik_State_Penalty>  (208) 
-0

>  <r_epik_Charging_Adjusted_Penalty>  (208) 
0

>  <i_epik_Tot_Q>  (208) 
0

>  <i_epik_Tot_abs_Q>  (208) 
0

>  <s_lp_Force_Field>  (208) 
OPLS3e

>  <r_lp_Energy>  (208) 
242.02

>  <b_lp_Chiralities_Consistent>  (208) 
1

>  <s_lp_Variant>  (208) 
59:0-1

>  <s_i_glide_gridfile>  (208) 
pfpi4k_grid

>  <i_i_glide_lignum>  (208) 
41

>  <i_i_glide_rotatable_bonds>  (208) 
2

>  <r_i_docking_score>  (208) 
-1.92684

>  <r_i_glide_ligand_efficiency>  (208) 
-0.0770736

>  <r_i_glide_ligand_efficiency_sa>  (208) 
-0.225364

>  <r_i_glide_ligand_efficiency_ln>  (208) 
-0.456719

>  <r_i_glide_gscore>  (208) 
-1.92684

>  <r_i_glide_lipo>  (208) 
-0.387702

>  <r_i_glide_hbond>  (208) 
0

>  <r_i_glide_metal>  (208) 
-0

>  <r_i_glide_rewards>  (208) 
-1.0609

>  <r_i_glide_evdw>  (208) 
-15.859

>  <r_i_glide_ecoul>  (208) 
1.18724

>  <r_i_glide_erotb>  (208) 
0.160076

>  <r_i_glide_esite>  (208) 
-0.023453

>  <r_i_glide_emodel>  (208) 
-15.4271

>  <r_i_glide_energy>  (208) 
-14.6717

>  <r_i_glide_einternal>  (208) 
1.19348

>  <r_i_glide_intrahb_reward>  (208) 
-0

>  <i_i_glide_confnum>  (208) 
3

>  <i_i_glide_posenum>  (208) 
1

>  <r_i_glide_eff_state_penalty>  (208) 
0

>  <ligand_id>  (208) 
59

>  <original_smiles>  (208) 
C=C(C)C1CC2C3OC14C(C)C3C21C2OC(C(=O)C3OC3C4OC)C21

>  <smiles>  (208) 
[H]C([H])=C(C([H])([H])[H])C1([H])C([H])([H])C2([H])C3([H])OC14C([H])(OC([H])([H])[H])C1([H])OC1([H])C(=O)C1([H])OC5([H])C1([H])C52C3([H])C4([H])C([H])([H])[H]

$$$$
60:0:0
     RDKit          3D

 46 50  0  0  1  0  0  0  0  0999 V2000
    5.8804   -0.6661    2.4955 C   0  0  0  0  0  0  0  0  0  0  0  0
    5.1300   -1.6613    1.9885 C   0  0  0  0  0  0  0  0  0  0  0  0
    5.7609   -2.8044    1.2682 C   0  0  0  0  0  0  0  0  0  0  0  0
    6.9099   -3.1721    1.4776 O   0  0  0  0  0  0  0  0  0  0  0  0
    4.9369   -3.5746    0.1990 C   0  0  2  0  0  0  0  0  0  0  0  0
    5.3972   -3.0191   -1.1835 C   0  0  0  0  0  0  0  0  0  0  0  0
    6.4987   -2.4710   -1.3339 O   0  0  0  0  0  0  0  0  0  0  0  0
    4.4258   -3.2337   -2.3159 C   0  0  2  0  0  0  0  0  0  0  0  0
    5.0266   -3.9563   -3.5135 C   0  0  0  0  0  0  0  0  0  0  0  0
    3.9274   -1.8285   -2.7089 C   0  0  0  0  0  0  0  0  0  0  0  0
    4.4371   -0.8281   -3.2043 O   0  0  0  0  0  0  0  0  0  0  0  0
    2.6499   -2.0480   -2.3058 O   0  0  0  0  0  0  0  0  0  0  0  0
    2.9431   -3.4278   -2.0064 C   0  0  2  0  0  0  0  0  0  0  0  0
    2.6160   -3.8504   -0.6813 O   0  0  0  0  0  0  0  0  0  0  0  0
    3.4018   -3.3444    0.4051 C   0  0  2  0  0  0  0  0  0  0  0  0
    3.0734   -1.8766    0.7202 C   0  0  0  0  0  0  0  0  0  0  0  0
    3.6237   -1.7298    2.1331 C   0  0  2  0  0  0  0  0  0  0  0  0
    3.0827   -0.5660    2.7385 O   0  0  0  0  0  0  0  0  0  0  0  0
    3.2104   -3.0418    2.8613 C   0  0  1  0  0  0  0  0  0  0  0  0
    2.0554   -2.9117    3.6799 O   0  0  0  0  0  0  0  0  0  0  0  0
    2.8798   -4.0105    1.7042 C   0  0  2  0  0  0  0  0  0  0  0  0
    3.2677   -5.4858    1.9363 C   0  0  1  0  0  0  0  0  0  0  0  0
    2.3842   -6.4586    1.1295 C   0  0  0  0  0  0  0  0  0  0  0  0
    4.7709   -5.6985    1.6913 C   0  0  0  0  0  0  0  0  0  0  0  0
    5.2932   -5.0808    0.3710 C   0  0  1  0  0  0  0  0  0  0  0  0
    4.8422   -5.8526   -0.7213 O   0  0  0  0  0  0  0  0  0  0  0  0
    5.4417    0.1635    3.0338 H   0  0  0  0  0  0  0  0  0  0  0  0
    6.9485   -0.6757    2.3736 H   0  0  0  0  0  0  0  0  0  0  0  0
    6.0718   -3.6904   -3.6610 H   0  0  0  0  0  0  0  0  0  0  0  0
    4.4722   -3.7548   -4.4341 H   0  0  0  0  0  0  0  0  0  0  0  0
    4.9881   -5.0321   -3.3524 H   0  0  0  0  0  0  0  0  0  0  0  0
    2.4808   -4.0799   -2.7531 H   0  0  0  0  0  0  0  0  0  0  0  0
    3.5094   -1.1518    0.0203 H   0  0  0  0  0  0  0  0  0  0  0  0
    1.9954   -1.7652    0.7759 H   0  0  0  0  0  0  0  0  0  0  0  0
    2.3297   -0.2986    2.2395 H   0  0  0  0  0  0  0  0  0  0  0  0
    4.0323   -3.4252    3.4677 H   0  0  0  0  0  0  0  0  0  0  0  0
    1.4171   -2.4296    3.1890 H   0  0  0  0  0  0  0  0  0  0  0  0
    1.8076   -3.9977    1.5880 H   0  0  0  0  0  0  0  0  0  0  0  0
    3.0625   -5.7249    2.9822 H   0  0  0  0  0  0  0  0  0  0  0  0
    2.4270   -6.2295    0.0669 H   0  0  0  0  0  0  0  0  0  0  0  0
    1.3357   -6.4071    1.4309 H   0  0  0  0  0  0  0  0  0  0  0  0
    2.7165   -7.4881    1.2858 H   0  0  0  0  0  0  0  0  0  0  0  0
    5.3072   -5.2735    2.5407 H   0  0  0  0  0  0  0  0  0  0  0  0
    5.0087   -6.7599    1.7099 H   0  0  0  0  0  0  0  0  0  0  0  0
    6.3724   -5.2098    0.3659 H   0  0  0  0  0  0  0  0  0  0  0  0
    3.9307   -5.6501   -0.8592 H   0  0  0  0  0  0  0  0  0  0  0  0
  1  2  2  0
  1 27  1  0
  1 28  1  0
  2 17  1  0
  2  3  1  0
  3  4  2  0
  5  3  1  1
  5 15  1  0
  5 25  1  0
  5  6  1  0
  6  7  2  0
  6  8  1  0
  8 13  1  0
  8  9  1  6
  8 10  1  0
  9 29  1  0
  9 30  1  0
  9 31  1  0
 10 11  2  0
 10 12  1  0
 12 13  1  0
 13 14  1  0
 13 32  1  6
 15 14  1  6
 15 21  1  0
 15 16  1  0
 16 17  1  0
 16 33  1  0
 16 34  1  0
 17 18  1  1
 17 19  1  0
 18 35  1  0
 19 20  1  0
 19 21  1  0
 19 36  1  1
 20 37  1  0
 21 22  1  0
 21 38  1  6
 22 23  1  0
 22 24  1  0
 22 39  1  1
 23 40  1  0
 23 41  1  0
 23 42  1  0
 24 25  1  0
 24 43  1  0
 24 44  1  0
 25 26  1  0
 25 45  1  1
 26 46  1  0
M  END
>  <i_m_ct_stereo_status>  (209) 
1

>  <s_m_source_file>  (209) 
/var/tmp/pbs.5076255.sched01/tmpb5cfx69f/43pm4c6kpw.sdf

>  <i_m_source_file_index>  (209) 
42

>  <i_lp_mmshare_version>  (209) 
48012

>  <i_f3d_flags>  (209) 
0

>  <s_epik_input>  (209) 
Tz1DMUMoPVtDSDJdKVtDQF0oW0NIMl0yKShbT0hdKVtDQEBIXShbT0hdKVtDQEhdKFtDQEBIXShbQ0gzXSlbQ0gyXVtDQEhdM1tPSF0pW0NAQF0yKFtDQEBdMTM0KU9bQ0BASF01W0NAQF0oQzQ9TykoW0NIM10pQyg9TylPNQ==

>  <s_epik_cmdline>  (209) 
J2VwaWtfcHl0aG9uJywgJy1waHQnLCAnMi4wJywgJy1waCcsICc3LjAnLCAnLXRuJywgJzgnLCAnLW1hJywgJzIwMCcsICctaW1hZScsICc8aW5maWxlLm1hZT4nLCAnLW9tYWUnLCAnPG91dGZpbGUubWFlPic=

>  <r_lp_tautomer_probability>  (209) 
1

>  <r_epik_Ionization_Penalty>  (209) 
7.92513e-05

>  <r_epik_Ionization_Penalty_Charging>  (209) 
0

>  <r_epik_Ionization_Penalty_Neutral>  (209) 
7.92513e-05

>  <r_epik_State_Penalty>  (209) 
-0

>  <r_epik_Charging_Adjusted_Penalty>  (209) 
0

>  <i_epik_Tot_Q>  (209) 
0

>  <i_epik_Tot_abs_Q>  (209) 
0

>  <s_epik_Chemistry_Notes>  (209) 
This compound has an ester and may undergo hydrolysis at high or low pH. This compound contains an acetal/aminal-like group ( X-CH(R)-Y where X, Y are N, S, or O) that may be acid/base labile, releasing an aldehyde.

>  <s_lp_Force_Field>  (209) 
OPLS3e

>  <r_lp_Energy>  (209) 
40.5961

>  <b_lp_Chiralities_Consistent>  (209) 
1

>  <s_lp_Variant>  (209) 
60:0-1

>  <s_i_glide_gridfile>  (209) 
pfpi4k_grid

>  <i_i_glide_lignum>  (209) 
42

>  <i_i_glide_rotatable_bonds>  (209) 
3

>  <r_i_docking_score>  (209) 
-4.03752

>  <r_i_glide_ligand_efficiency>  (209) 
-0.155289

>  <r_i_glide_ligand_efficiency_sa>  (209) 
-0.460044

>  <r_i_glide_ligand_efficiency_ln>  (209) 
-0.948198

>  <r_i_glide_gscore>  (209) 
-4.03752

>  <r_i_glide_lipo>  (209) 
-0.329963

>  <r_i_glide_hbond>  (209) 
-0.0639112

>  <r_i_glide_metal>  (209) 
-0

>  <r_i_glide_rewards>  (209) 
-1.65634

>  <r_i_glide_evdw>  (209) 
-19.0819

>  <r_i_glide_ecoul>  (209) 
-6.83637

>  <r_i_glide_erotb>  (209) 
0

>  <r_i_glide_esite>  (209) 
-0.00775119

>  <r_i_glide_emodel>  (209) 
-36.8984

>  <r_i_glide_energy>  (209) 
-25.9183

>  <r_i_glide_einternal>  (209) 
0.892927

>  <r_i_glide_intrahb_reward>  (209) 
-0.5

>  <i_i_glide_confnum>  (209) 
2

>  <i_i_glide_posenum>  (209) 
36

>  <r_i_glide_eff_state_penalty>  (209) 
0

>  <ligand_id>  (209) 
60

>  <original_smiles>  (209) 
C=C1C(=O)C23C(=O)C4(C)C(=O)OC4OC24CC1(O)C(O)C4C(C)CC3O

>  <smiles>  (209) 
[H]OC1([H])C([H])([H])C([H])(C([H])([H])[H])C2([H])C([H])(O[H])C3(O[H])C(=C([H])[H])C(=O)C14C(=O)C1(C([H])([H])[H])C(=O)OC1([H])OC42C3([H])[H]

$$$$
60:0:1
     RDKit          3D

 46 50  0  0  1  0  0  0  0  0999 V2000
    5.7790   -0.6362    2.5117 C   0  0  0  0  0  0  0  0  0  0  0  0
    5.0425   -1.6359    1.9966 C   0  0  0  0  0  0  0  0  0  0  0  0
    5.7080   -2.7608    1.2960 C   0  0  0  0  0  0  0  0  0  0  0  0
    6.8605   -3.1021    1.5474 O   0  0  0  0  0  0  0  0  0  0  0  0
    4.9435   -3.5535    0.2050 C   0  0  2  0  0  0  0  0  0  0  0  0
    5.3934   -2.9841   -1.1798 C   0  0  0  0  0  0  0  0  0  0  0  0
    6.5068   -2.4399   -1.3051 O   0  0  0  0  0  0  0  0  0  0  0  0
    4.4333   -3.2359   -2.3175 C   0  0  2  0  0  0  0  0  0  0  0  0
    5.0606   -3.9444   -3.5001 C   0  0  0  0  0  0  0  0  0  0  0  0
    3.8976   -1.8223   -2.7180 C   0  0  0  0  0  0  0  0  0  0  0  0
    4.3701   -0.8142   -3.2256 O   0  0  0  0  0  0  0  0  0  0  0  0
    2.6293   -2.0802   -2.3099 O   0  0  0  0  0  0  0  0  0  0  0  0
    2.9672   -3.4477   -2.0114 C   0  0  2  0  0  0  0  0  0  0  0  0
    2.6434   -3.9029   -0.6932 O   0  0  0  0  0  0  0  0  0  0  0  0
    3.3894   -3.3662    0.3977 C   0  0  2  0  0  0  0  0  0  0  0  0
    3.0008   -1.9104    0.6966 C   0  0  0  0  0  0  0  0  0  0  0  0
    3.5363   -1.7345    2.1128 C   0  0  2  0  0  0  0  0  0  0  0  0
    2.9696   -0.5818    2.7171 O   0  0  0  0  0  0  0  0  0  0  0  0
    3.1605   -3.0629    2.8319 C   0  0  1  0  0  0  0  0  0  0  0  0
    1.9780   -2.9748    3.6028 O   0  0  0  0  0  0  0  0  0  0  0  0
    2.8617   -4.0472    1.6753 C   0  0  2  0  0  0  0  0  0  0  0  0
    3.2947   -5.5056    1.9276 C   0  0  1  0  0  0  0  0  0  0  0  0
    2.4451   -6.5154    1.1204 C   0  0  0  0  0  0  0  0  0  0  0  0
    4.7976   -5.6820    1.7030 C   0  0  0  0  0  0  0  0  0  0  0  0
    5.3238   -5.0565    0.3791 C   0  0  1  0  0  0  0  0  0  0  0  0
    4.9092   -5.8422   -0.6963 O   0  0  0  0  0  0  0  0  0  0  0  0
    5.3358    0.1993    3.0267 H   0  0  0  0  0  0  0  0  0  0  0  0
    6.8579   -0.6575    2.4118 H   0  0  0  0  0  0  0  0  0  0  0  0
    6.1036   -3.6727   -3.6540 H   0  0  0  0  0  0  0  0  0  0  0  0
    4.5130   -3.7732   -4.4233 H   0  0  0  0  0  0  0  0  0  0  0  0
    5.0119   -5.0224   -3.3204 H   0  0  0  0  0  0  0  0  0  0  0  0
    2.5093   -4.1099   -2.7549 H   0  0  0  0  0  0  0  0  0  0  0  0
    3.4101   -1.1721    0.0033 H   0  0  0  0  0  0  0  0  0  0  0  0
    1.9180   -1.8442    0.7338 H   0  0  0  0  0  0  0  0  0  0  0  0
    2.9805    0.1210    2.0895 H   0  0  0  0  0  0  0  0  0  0  0  0
    3.9767   -3.4122    3.4657 H   0  0  0  0  0  0  0  0  0  0  0  0
    1.9092   -3.7592    4.1142 H   0  0  0  0  0  0  0  0  0  0  0  0
    1.7901   -4.0630    1.5576 H   0  0  0  0  0  0  0  0  0  0  0  0
    3.0806   -5.7456    2.9653 H   0  0  0  0  0  0  0  0  0  0  0  0
    2.4961   -6.3018    0.0597 H   0  0  0  0  0  0  0  0  0  0  0  0
    1.3920   -6.4944    1.4049 H   0  0  0  0  0  0  0  0  0  0  0  0
    2.8042   -7.5392    1.2901 H   0  0  0  0  0  0  0  0  0  0  0  0
    5.3146   -5.2274    2.5489 H   0  0  0  0  0  0  0  0  0  0  0  0
    5.0689   -6.7344    1.7371 H   0  0  0  0  0  0  0  0  0  0  0  0
    6.4098   -5.1590    0.3878 H   0  0  0  0  0  0  0  0  0  0  0  0
    3.9949   -5.6757   -0.8735 H   0  0  0  0  0  0  0  0  0  0  0  0
  1  2  2  0
  1 27  1  0
  1 28  1  0
  2 17  1  0
  2  3  1  0
  3  4  2  0
  5  3  1  1
  5 15  1  0
  5 25  1  0
  5  6  1  0
  6  7  2  0
  6  8  1  0
  8 13  1  0
  8  9  1  6
  8 10  1  0
  9 29  1  0
  9 30  1  0
  9 31  1  0
 10 11  2  0
 10 12  1  0
 12 13  1  0
 13 14  1  0
 13 32  1  6
 15 14  1  6
 15 21  1  0
 15 16  1  0
 16 17  1  0
 16 33  1  0
 16 34  1  0
 17 18  1  1
 17 19  1  0
 18 35  1  0
 19 20  1  0
 19 21  1  0
 19 36  1  1
 20 37  1  0
 21 22  1  0
 21 38  1  6
 22 23  1  0
 22 24  1  0
 22 39  1  1
 23 40  1  0
 23 41  1  0
 23 42  1  0
 24 25  1  0
 24 43  1  0
 24 44  1  0
 25 26  1  0
 25 45  1  1
 26 46  1  0
M  END
>  <i_m_ct_stereo_status>  (210) 
1

>  <s_m_source_file>  (210) 
/var/tmp/pbs.5076255.sched01/tmpb5cfx69f/43pm4c6kpw.sdf

>  <i_m_source_file_index>  (210) 
42

>  <i_lp_mmshare_version>  (210) 
48012

>  <i_f3d_flags>  (210) 
0

>  <s_epik_input>  (210) 
Tz1DMUMoPVtDSDJdKVtDQF0oW0NIMl0yKShbT0hdKVtDQEBIXShbT0hdKVtDQEhdKFtDQEBIXShbQ0gzXSlbQ0gyXVtDQEhdM1tPSF0pW0NAQF0yKFtDQEBdMTM0KU9bQ0BASF01W0NAQF0oQzQ9TykoW0NIM10pQyg9TylPNQ==

>  <s_epik_cmdline>  (210) 
J2VwaWtfcHl0aG9uJywgJy1waHQnLCAnMi4wJywgJy1waCcsICc3LjAnLCAnLXRuJywgJzgnLCAnLW1hJywgJzIwMCcsICctaW1hZScsICc8aW5maWxlLm1hZT4nLCAnLW9tYWUnLCAnPG91dGZpbGUubWFlPic=

>  <r_lp_tautomer_probability>  (210) 
1

>  <r_epik_Ionization_Penalty>  (210) 
7.92513e-05

>  <r_epik_Ionization_Penalty_Charging>  (210) 
0

>  <r_epik_Ionization_Penalty_Neutral>  (210) 
7.92513e-05

>  <r_epik_State_Penalty>  (210) 
-0

>  <r_epik_Charging_Adjusted_Penalty>  (210) 
0

>  <i_epik_Tot_Q>  (210) 
0

>  <i_epik_Tot_abs_Q>  (210) 
0

>  <s_epik_Chemistry_Notes>  (210) 
This compound has an ester and may undergo hydrolysis at high or low pH. This compound contains an acetal/aminal-like group ( X-CH(R)-Y where X, Y are N, S, or O) that may be acid/base labile, releasing an aldehyde.

>  <s_lp_Force_Field>  (210) 
OPLS3e

>  <r_lp_Energy>  (210) 
40.5961

>  <b_lp_Chiralities_Consistent>  (210) 
1

>  <s_lp_Variant>  (210) 
60:0-1

>  <s_i_glide_gridfile>  (210) 
pfpi4k_grid

>  <i_i_glide_lignum>  (210) 
42

>  <i_i_glide_rotatable_bonds>  (210) 
3

>  <r_i_docking_score>  (210) 
-3.71754

>  <r_i_glide_ligand_efficiency>  (210) 
-0.142982

>  <r_i_glide_ligand_efficiency_sa>  (210) 
-0.423585

>  <r_i_glide_ligand_efficiency_ln>  (210) 
-0.873052

>  <r_i_glide_gscore>  (210) 
-3.71754

>  <r_i_glide_lipo>  (210) 
-0.342921

>  <r_i_glide_hbond>  (210) 
-0.0739329

>  <r_i_glide_metal>  (210) 
-0

>  <r_i_glide_rewards>  (210) 
-1.63506

>  <r_i_glide_evdw>  (210) 
-18.8967

>  <r_i_glide_ecoul>  (210) 
-4.7471

>  <r_i_glide_erotb>  (210) 
0

>  <r_i_glide_esite>  (210) 
-0.00872975

>  <r_i_glide_emodel>  (210) 
-34.2228

>  <r_i_glide_energy>  (210) 
-23.6438

>  <r_i_glide_einternal>  (210) 
0.688877

>  <r_i_glide_intrahb_reward>  (210) 
-0.5

>  <i_i_glide_confnum>  (210) 
2

>  <i_i_glide_posenum>  (210) 
19

>  <r_i_glide_eff_state_penalty>  (210) 
0

>  <ligand_id>  (210) 
60

>  <original_smiles>  (210) 
C=C1C(=O)C23C(=O)C4(C)C(=O)OC4OC24CC1(O)C(O)C4C(C)CC3O

>  <smiles>  (210) 
[H]OC1([H])C([H])([H])C([H])(C([H])([H])[H])C2([H])C([H])(O[H])C3(O[H])C(=C([H])[H])C(=O)C14C(=O)C1(C([H])([H])[H])C(=O)OC1([H])OC42C3([H])[H]

$$$$
60:0:2
     RDKit          3D

 46 50  0  0  1  0  0  0  0  0999 V2000
    3.2865    0.3549    2.7663 C   0  0  0  0  0  0  0  0  0  0  0  0
    3.4596   -0.9146    2.3360 C   0  0  0  0  0  0  0  0  0  0  0  0
    4.8255   -1.4629    2.1675 C   0  0  0  0  0  0  0  0  0  0  0  0
    5.7755   -1.0320    2.8356 O   0  0  0  0  0  0  0  0  0  0  0  0
    5.0740   -2.5956    1.1137 C   0  0  2  0  0  0  0  0  0  0  0  0
    5.6107   -1.9211   -0.1872 C   0  0  0  0  0  0  0  0  0  0  0  0
    6.2247   -0.8540   -0.0956 O   0  0  0  0  0  0  0  0  0  0  0  0
    5.4358   -2.6994   -1.4692 C   0  0  2  0  0  0  0  0  0  0  0  0
    6.7309   -2.9414   -2.2196 C   0  0  0  0  0  0  0  0  0  0  0  0
    4.4056   -1.8749   -2.3229 C   0  0  0  0  0  0  0  0  0  0  0  0
    4.4075   -0.7961   -2.9106 O   0  0  0  0  0  0  0  0  0  0  0  0
    3.4227   -2.8052   -2.2166 O   0  0  0  0  0  0  0  0  0  0  0  0
    4.3351   -3.7216   -1.5557 C   0  0  2  0  0  0  0  0  0  0  0  0
    3.8680   -4.2559   -0.3155 O   0  0  0  0  0  0  0  0  0  0  0  0
    3.7297   -3.3512    0.7776 C   0  0  2  0  0  0  0  0  0  0  0  0
    2.5799   -2.3645    0.5752 C   0  0  0  0  0  0  0  0  0  0  0  0
    2.3378   -1.8855    2.0125 C   0  0  2  0  0  0  0  0  0  0  0  0
    1.0759   -1.2460    2.1199 O   0  0  0  0  0  0  0  0  0  0  0  0
    2.4865   -3.1724    2.8782 C   0  0  1  0  0  0  0  0  0  0  0  0
    1.2621   -3.7652    3.2724 O   0  0  0  0  0  0  0  0  0  0  0  0
    3.1938   -4.1903    1.9453 C   0  0  2  0  0  0  0  0  0  0  0  0
    4.2280   -5.1108    2.6352 C   0  0  1  0  0  0  0  0  0  0  0  0
    4.4350   -6.4490    1.8797 C   0  0  0  0  0  0  0  0  0  0  0  0
    5.5478   -4.3848    2.9147 C   0  0  0  0  0  0  0  0  0  0  0  0
    6.1066   -3.5985    1.6969 C   0  0  1  0  0  0  0  0  0  0  0  0
    6.6070   -4.5199    0.7508 O   0  0  0  0  0  0  0  0  0  0  0  0
    2.3132    0.7898    2.9048 H   0  0  0  0  0  0  0  0  0  0  0  0
    4.1430    0.9806    2.9898 H   0  0  0  0  0  0  0  0  0  0  0  0
    7.4589   -2.1430   -2.1322 H   0  0  0  0  0  0  0  0  0  0  0  0
    6.5699   -3.1371   -3.2761 H   0  0  0  0  0  0  0  0  0  0  0  0
    7.2141   -3.8325   -1.8109 H   0  0  0  0  0  0  0  0  0  0  0  0
    4.6296   -4.5428   -2.2227 H   0  0  0  0  0  0  0  0  0  0  0  0
    2.8011   -1.5248   -0.0826 H   0  0  0  0  0  0  0  0  0  0  0  0
    1.7390   -2.9002    0.1610 H   0  0  0  0  0  0  0  0  0  0  0  0
    0.9580   -0.7247    1.3451 H   0  0  0  0  0  0  0  0  0  0  0  0
    3.0648   -2.9724    3.7798 H   0  0  0  0  0  0  0  0  0  0  0  0
    1.4488   -4.4322    3.8939 H   0  0  0  0  0  0  0  0  0  0  0  0
    2.4198   -4.8263    1.5164 H   0  0  0  0  0  0  0  0  0  0  0  0
    3.8110   -5.4051    3.5950 H   0  0  0  0  0  0  0  0  0  0  0  0
    4.7855   -6.3239    0.8572 H   0  0  0  0  0  0  0  0  0  0  0  0
    3.5107   -7.0271    1.8339 H   0  0  0  0  0  0  0  0  0  0  0  0
    5.1746   -7.0649    2.4077 H   0  0  0  0  0  0  0  0  0  0  0  0
    5.3837   -3.6850    3.7348 H   0  0  0  0  0  0  0  0  0  0  0  0
    6.3006   -5.0780    3.2844 H   0  0  0  0  0  0  0  0  0  0  0  0
    6.9704   -3.0339    2.0298 H   0  0  0  0  0  0  0  0  0  0  0  0
    5.9004   -5.0853    0.4882 H   0  0  0  0  0  0  0  0  0  0  0  0
  1  2  2  0
  1 27  1  0
  1 28  1  0
  2 17  1  0
  2  3  1  0
  3  4  2  0
  5  3  1  1
  5 15  1  0
  5 25  1  0
  5  6  1  0
  6  7  2  0
  6  8  1  0
  8 13  1  0
  8  9  1  6
  8 10  1  0
  9 29  1  0
  9 30  1  0
  9 31  1  0
 10 11  2  0
 10 12  1  0
 12 13  1  0
 13 14  1  0
 13 32  1  6
 15 14  1  6
 15 21  1  0
 15 16  1  0
 16 17  1  0
 16 33  1  0
 16 34  1  0
 17 18  1  6
 17 19  1  0
 18 35  1  0
 19 20  1  0
 19 21  1  0
 19 36  1  1
 20 37  1  0
 21 22  1  0
 21 38  1  6
 22 23  1  0
 22 24  1  0
 22 39  1  1
 23 40  1  0
 23 41  1  0
 23 42  1  0
 24 25  1  0
 24 43  1  0
 24 44  1  0
 25 26  1  0
 25 45  1  1
 26 46  1  0
M  END
>  <i_m_ct_stereo_status>  (211) 
1

>  <s_m_source_file>  (211) 
/var/tmp/pbs.5076255.sched01/tmpb5cfx69f/43pm4c6kpw.sdf

>  <i_m_source_file_index>  (211) 
42

>  <i_lp_mmshare_version>  (211) 
48012

>  <i_f3d_flags>  (211) 
0

>  <s_epik_input>  (211) 
Tz1DMUMoPVtDSDJdKVtDQF0oW0NIMl0yKShbT0hdKVtDQEBIXShbT0hdKVtDQEhdKFtDQEBIXShbQ0gzXSlbQ0gyXVtDQEhdM1tPSF0pW0NAQF0yKFtDQEBdMTM0KU9bQ0BASF01W0NAQF0oQzQ9TykoW0NIM10pQyg9TylPNQ==

>  <s_epik_cmdline>  (211) 
J2VwaWtfcHl0aG9uJywgJy1waHQnLCAnMi4wJywgJy1waCcsICc3LjAnLCAnLXRuJywgJzgnLCAnLW1hJywgJzIwMCcsICctaW1hZScsICc8aW5maWxlLm1hZT4nLCAnLW9tYWUnLCAnPG91dGZpbGUubWFlPic=

>  <r_lp_tautomer_probability>  (211) 
1

>  <r_epik_Ionization_Penalty>  (211) 
7.92513e-05

>  <r_epik_Ionization_Penalty_Charging>  (211) 
0

>  <r_epik_Ionization_Penalty_Neutral>  (211) 
7.92513e-05

>  <r_epik_State_Penalty>  (211) 
-0

>  <r_epik_Charging_Adjusted_Penalty>  (211) 
0

>  <i_epik_Tot_Q>  (211) 
0

>  <i_epik_Tot_abs_Q>  (211) 
0

>  <s_epik_Chemistry_Notes>  (211) 
This compound has an ester and may undergo hydrolysis at high or low pH. This compound contains an acetal/aminal-like group ( X-CH(R)-Y where X, Y are N, S, or O) that may be acid/base labile, releasing an aldehyde.

>  <s_lp_Force_Field>  (211) 
OPLS3e

>  <r_lp_Energy>  (211) 
40.5961

>  <b_lp_Chiralities_Consistent>  (211) 
1

>  <s_lp_Variant>  (211) 
60:0-1

>  <s_i_glide_gridfile>  (211) 
pfpi4k_grid

>  <i_i_glide_lignum>  (211) 
42

>  <i_i_glide_rotatable_bonds>  (211) 
3

>  <r_i_docking_score>  (211) 
-2.75823

>  <r_i_glide_ligand_efficiency>  (211) 
-0.106086

>  <r_i_glide_ligand_efficiency_sa>  (211) 
-0.314279

>  <r_i_glide_ligand_efficiency_ln>  (211) 
-0.647762

>  <r_i_glide_gscore>  (211) 
-2.75823

>  <r_i_glide_lipo>  (211) 
-0.179943

>  <r_i_glide_hbond>  (211) 
-0.0315186

>  <r_i_glide_metal>  (211) 
-0

>  <r_i_glide_rewards>  (211) 
-1.516

>  <r_i_glide_evdw>  (211) 
-22.4007

>  <r_i_glide_ecoul>  (211) 
0.911856

>  <r_i_glide_erotb>  (211) 
0

>  <r_i_glide_esite>  (211) 
-0.047512

>  <r_i_glide_emodel>  (211) 
-30.5271

>  <r_i_glide_energy>  (211) 
-21.4888

>  <r_i_glide_einternal>  (211) 
0.484135

>  <r_i_glide_intrahb_reward>  (211) 
-0.5

>  <i_i_glide_confnum>  (211) 
2

>  <i_i_glide_posenum>  (211) 
34

>  <r_i_glide_eff_state_penalty>  (211) 
0

>  <ligand_id>  (211) 
60

>  <original_smiles>  (211) 
C=C1C(=O)C23C(=O)C4(C)C(=O)OC4OC24CC1(O)C(O)C4C(C)CC3O

>  <smiles>  (211) 
[H]OC1([H])C([H])([H])C([H])(C([H])([H])[H])C2([H])C([H])(O[H])C3(O[H])C(=C([H])[H])C(=O)C14C(=O)C1(C([H])([H])[H])C(=O)OC1([H])OC42C3([H])[H]

$$$$
61:0:0
     RDKit          3D

 33 36  0  0  1  0  0  0  0  0999 V2000
    3.1509   -3.0776   -3.6213 C   0  0  0  0  0  0  0  0  0  0  0  0
    4.2082   -2.8109   -2.5759 C   0  0  0  0  0  0  0  0  0  0  0  0
    5.4092   -3.4031   -2.4254 C   0  0  0  0  0  0  0  0  0  0  0  0
    6.1176   -2.6295   -1.3483 C   0  0  2  0  0  0  0  0  0  0  0  0
    7.2844   -2.9258   -0.3972 C   0  0  2  0  0  0  0  0  0  0  0  0
    7.2677   -4.2788    0.3222 C   0  0  0  0  0  0  0  0  0  0  0  0
    6.0731   -5.0049    0.0819 O   0  0  0  0  0  0  0  0  0  0  0  0
    4.9470   -4.5474    0.7174 C   0  0  0  0  0  0  0  0  0  0  0  0
    4.3109   -5.4593    1.5858 C   0  0  0  0  0  0  0  0  0  0  0  0
    3.1489   -5.0908    2.2825 C   0  0  0  0  0  0  0  0  0  0  0  0
    2.6141   -3.8024    2.1102 C   0  0  0  0  0  0  0  0  0  0  0  0
    3.2253   -2.8978    1.2280 C   0  0  0  0  0  0  0  0  0  0  0  0
    4.3897   -3.2543    0.5053 C   0  0  0  0  0  0  0  0  0  0  0  0
    4.9847   -2.1897   -0.4394 C   0  0  2  0  0  0  0  0  0  0  0  0
    3.9714   -1.7382   -1.5175 C   0  0  0  0  0  0  0  0  0  0  0  0
    5.8141   -1.2808    0.4484 C   0  0  0  0  0  0  0  0  0  0  0  0
    5.4105   -0.2508    0.9869 O   0  0  0  0  0  0  0  0  0  0  0  0
    7.0469   -1.8104    0.5430 N   0  0  0  0  0  0  0  0  0  0  0  0
    2.2199   -3.3649   -3.1301 H   0  0  0  0  0  0  0  0  0  0  0  0
    3.4449   -3.8706   -4.3116 H   0  0  0  0  0  0  0  0  0  0  0  0
    2.9551   -2.1642   -4.1890 H   0  0  0  0  0  0  0  0  0  0  0  0
    5.8417   -4.1896   -3.0308 H   0  0  0  0  0  0  0  0  0  0  0  0
    6.4770   -1.7845   -1.9453 H   0  0  0  0  0  0  0  0  0  0  0  0
    8.2480   -2.7784   -0.8852 H   0  0  0  0  0  0  0  0  0  0  0  0
    8.0942   -4.8786   -0.0647 H   0  0  0  0  0  0  0  0  0  0  0  0
    7.4593   -4.1723    1.3936 H   0  0  0  0  0  0  0  0  0  0  0  0
    4.7322   -6.4458    1.7236 H   0  0  0  0  0  0  0  0  0  0  0  0
    2.6803   -5.7944    2.9511 H   0  0  0  0  0  0  0  0  0  0  0  0
    1.7224   -3.5167    2.6464 H   0  0  0  0  0  0  0  0  0  0  0  0
    2.7896   -1.9175    1.0986 H   0  0  0  0  0  0  0  0  0  0  0  0
    4.2163   -0.7638   -1.9379 H   0  0  0  0  0  0  0  0  0  0  0  0
    2.9367   -1.7121   -1.1849 H   0  0  0  0  0  0  0  0  0  0  0  0
    7.7595   -1.4032    1.1313 H   0  0  0  0  0  0  0  0  0  0  0  0
  1  2  1  0
  1 19  1  0
  1 20  1  0
  1 21  1  0
  2 15  1  0
  2  3  2  0
  3  4  1  0
  3 22  1  0
  4 14  1  0
  4  5  1  0
  4 23  1  6
  5 18  1  0
  5  6  1  0
  5 24  1  6
  6  7  1  0
  6 25  1  0
  6 26  1  0
  7  8  1  0
  8 13  2  0
  8  9  1  0
  9 10  2  0
  9 27  1  0
 10 11  1  0
 10 28  1  0
 11 12  2  0
 11 29  1  0
 12 13  1  0
 12 30  1  0
 13 14  1  0
 14 15  1  6
 14 16  1  0
 15 31  1  0
 15 32  1  0
 16 17  2  0
 16 18  1  0
 18 33  1  0
M  END
>  <i_m_ct_stereo_status>  (212) 
1

>  <s_m_source_file>  (212) 
/var/tmp/pbs.5076255.sched01/tmpb5cfx69f/43pm4c6kpw.sdf

>  <i_m_source_file_index>  (212) 
43

>  <i_lp_mmshare_version>  (212) 
48012

>  <i_f3d_flags>  (212) 
0

>  <s_epik_input>  (212) 
W0NIM11DKFtDSDJdMSk9W0NIXVtDQEBIXShbQ0BAXTEyMylbQ0BASF0oW05IXUMzPU8pW0NIMl1PYzRjMltjSF1bY0hdW2NIXVtjSF00

>  <s_epik_cmdline>  (212) 
J2VwaWtfcHl0aG9uJywgJy1waHQnLCAnMi4wJywgJy1waCcsICc3LjAnLCAnLXRuJywgJzgnLCAnLW1hJywgJzIwMCcsICctaW1hZScsICc8aW5maWxlLm1hZT4nLCAnLW9tYWUnLCAnPG91dGZpbGUubWFlPic=

>  <r_lp_tautomer_probability>  (212) 
1

>  <r_epik_Ionization_Penalty>  (212) 
4.1196e-08

>  <r_epik_Ionization_Penalty_Charging>  (212) 
0

>  <r_epik_Ionization_Penalty_Neutral>  (212) 
4.1196e-08

>  <r_epik_State_Penalty>  (212) 
-0

>  <r_epik_Charging_Adjusted_Penalty>  (212) 
0

>  <i_epik_Tot_Q>  (212) 
0

>  <i_epik_Tot_abs_Q>  (212) 
0

>  <s_lp_Force_Field>  (212) 
OPLS3e

>  <r_lp_Energy>  (212) 
32.2522

>  <b_lp_Chiralities_Consistent>  (212) 
1

>  <s_lp_Variant>  (212) 
61:0-1

>  <s_i_glide_gridfile>  (212) 
pfpi4k_grid

>  <i_i_glide_lignum>  (212) 
43

>  <i_i_glide_rotatable_bonds>  (212) 
0

>  <r_i_docking_score>  (212) 
-4.05497

>  <r_i_glide_ligand_efficiency>  (212) 
-0.225276

>  <r_i_glide_ligand_efficiency_sa>  (212) 
-0.590391

>  <r_i_glide_ligand_efficiency_ln>  (212) 
-1.04231

>  <r_i_glide_gscore>  (212) 
-4.05497

>  <r_i_glide_lipo>  (212) 
-0.760196

>  <r_i_glide_hbond>  (212) 
-0.0985651

>  <r_i_glide_metal>  (212) 
-0

>  <r_i_glide_rewards>  (212) 
-1.9041

>  <r_i_glide_evdw>  (212) 
-25.8045

>  <r_i_glide_ecoul>  (212) 
0.0279049

>  <r_i_glide_erotb>  (212) 
0

>  <r_i_glide_esite>  (212) 
-0.00607236

>  <r_i_glide_emodel>  (212) 
-32.5508

>  <r_i_glide_energy>  (212) 
-25.7765

>  <r_i_glide_einternal>  (212) 
0

>  <r_i_glide_intrahb_reward>  (212) 
-0

>  <i_i_glide_confnum>  (212) 
2

>  <i_i_glide_posenum>  (212) 
21

>  <r_i_glide_eff_state_penalty>  (212) 
0

>  <ligand_id>  (212) 
61

>  <original_smiles>  (212) 
CC1=CC2C3COc4ccccc4C2(C1)C(=O)N3

>  <smiles>  (212) 
[H]C1=C(C([H])([H])[H])C([H])([H])C23C(=O)N([H])C([H])(C([H])([H])Oc4c([H])c([H])c([H])c([H])c42)C13[H]

$$$$
61:0:1
     RDKit          3D

 33 36  0  0  1  0  0  0  0  0999 V2000
    4.0624   -7.2036    1.2682 C   0  0  0  0  0  0  0  0  0  0  0  0
    3.5681   -8.1667    2.3234 C   0  0  0  0  0  0  0  0  0  0  0  0
    3.3169   -9.4868    2.2134 C   0  0  0  0  0  0  0  0  0  0  0  0
    3.0611   -9.9764    3.6101 C   0  0  2  0  0  0  0  0  0  0  0  0
    2.3262  -11.1851    4.1952 C   0  0  2  0  0  0  0  0  0  0  0  0
    0.9656  -11.5303    3.5850 C   0  0  0  0  0  0  0  0  0  0  0  0
    0.5238  -10.5716    2.6450 O   0  0  0  0  0  0  0  0  0  0  0  0
    0.0926   -9.3818    3.1644 C   0  0  0  0  0  0  0  0  0  0  0  0
   -1.2386   -9.0261    2.8710 C   0  0  0  0  0  0  0  0  0  0  0  0
   -1.7740   -7.8218    3.3521 C   0  0  0  0  0  0  0  0  0  0  0  0
   -0.9720   -6.9691    4.1267 C   0  0  0  0  0  0  0  0  0  0  0  0
    0.3620   -7.3036    4.4003 C   0  0  0  0  0  0  0  0  0  0  0  0
    0.9249   -8.5045    3.9157 C   0  0  0  0  0  0  0  0  0  0  0  0
    2.4006   -8.7833    4.2719 C   0  0  2  0  0  0  0  0  0  0  0  0
    3.3304   -7.6654    3.7466 C   0  0  0  0  0  0  0  0  0  0  0  0
    2.3783   -9.3512    5.6793 C   0  0  0  0  0  0  0  0  0  0  0  0
    2.4958   -8.6818    6.7078 O   0  0  0  0  0  0  0  0  0  0  0  0
    2.1880  -10.6774    5.5794 N   0  0  0  0  0  0  0  0  0  0  0  0
    3.3497   -6.3838    1.1613 H   0  0  0  0  0  0  0  0  0  0  0  0
    4.2105   -7.6851    0.2972 H   0  0  0  0  0  0  0  0  0  0  0  0
    5.0142   -6.7752    1.5894 H   0  0  0  0  0  0  0  0  0  0  0  0
    3.4155  -10.1172    1.3362 H   0  0  0  0  0  0  0  0  0  0  0  0
    4.0928  -10.0942    3.9686 H   0  0  0  0  0  0  0  0  0  0  0  0
    2.9581  -12.0736    4.2082 H   0  0  0  0  0  0  0  0  0  0  0  0
    1.0552  -12.4620    3.0270 H   0  0  0  0  0  0  0  0  0  0  0  0
    0.2141  -11.7180    4.3592 H   0  0  0  0  0  0  0  0  0  0  0  0
   -1.8527   -9.7002    2.2908 H   0  0  0  0  0  0  0  0  0  0  0  0
   -2.7982   -7.5670    3.1367 H   0  0  0  0  0  0  0  0  0  0  0  0
   -1.3778   -6.0519    4.5171 H   0  0  0  0  0  0  0  0  0  0  0  0
    0.9592   -6.6308    4.9952 H   0  0  0  0  0  0  0  0  0  0  0  0
    4.2799   -7.6469    4.2804 H   0  0  0  0  0  0  0  0  0  0  0  0
    2.9118   -6.6620    3.7712 H   0  0  0  0  0  0  0  0  0  0  0  0
    2.0417  -11.2937    6.3802 H   0  0  0  0  0  0  0  0  0  0  0  0
  1  2  1  0
  1 19  1  0
  1 20  1  0
  1 21  1  0
  2 15  1  0
  2  3  2  0
  3  4  1  0
  3 22  1  0
  4 14  1  0
  4  5  1  0
  4 23  1  1
  5 18  1  0
  5  6  1  0
  5 24  1  1
  6  7  1  0
  6 25  1  0
  6 26  1  0
  7  8  1  0
  8 13  2  0
  8  9  1  0
  9 10  2  0
  9 27  1  0
 10 11  1  0
 10 28  1  0
 11 12  2  0
 11 29  1  0
 12 13  1  0
 12 30  1  0
 13 14  1  0
 14 15  1  1
 14 16  1  0
 15 31  1  0
 15 32  1  0
 16 17  2  0
 16 18  1  0
 18 33  1  0
M  END
>  <i_m_ct_stereo_status>  (213) 
1

>  <s_m_source_file>  (213) 
/var/tmp/pbs.5076255.sched01/tmpb5cfx69f/43pm4c6kpw.sdf

>  <i_m_source_file_index>  (213) 
43

>  <i_lp_mmshare_version>  (213) 
48012

>  <i_f3d_flags>  (213) 
0

>  <s_epik_input>  (213) 
W0NIM11DKFtDSDJdMSk9W0NIXVtDQEBIXShbQ0BAXTEyMylbQ0BASF0oW05IXUMzPU8pW0NIMl1PYzRjMltjSF1bY0hdW2NIXVtjSF00

>  <s_epik_cmdline>  (213) 
J2VwaWtfcHl0aG9uJywgJy1waHQnLCAnMi4wJywgJy1waCcsICc3LjAnLCAnLXRuJywgJzgnLCAnLW1hJywgJzIwMCcsICctaW1hZScsICc8aW5maWxlLm1hZT4nLCAnLW9tYWUnLCAnPG91dGZpbGUubWFlPic=

>  <r_lp_tautomer_probability>  (213) 
1

>  <r_epik_Ionization_Penalty>  (213) 
4.1196e-08

>  <r_epik_Ionization_Penalty_Charging>  (213) 
0

>  <r_epik_Ionization_Penalty_Neutral>  (213) 
4.1196e-08

>  <r_epik_State_Penalty>  (213) 
-0

>  <r_epik_Charging_Adjusted_Penalty>  (213) 
0

>  <i_epik_Tot_Q>  (213) 
0

>  <i_epik_Tot_abs_Q>  (213) 
0

>  <s_lp_Force_Field>  (213) 
OPLS3e

>  <r_lp_Energy>  (213) 
32.2522

>  <b_lp_Chiralities_Consistent>  (213) 
1

>  <s_lp_Variant>  (213) 
61:0-1

>  <s_i_glide_gridfile>  (213) 
pfpi4k_grid

>  <i_i_glide_lignum>  (213) 
43

>  <i_i_glide_rotatable_bonds>  (213) 
0

>  <r_i_docking_score>  (213) 
-3.74975

>  <r_i_glide_ligand_efficiency>  (213) 
-0.208319

>  <r_i_glide_ligand_efficiency_sa>  (213) 
-0.545952

>  <r_i_glide_ligand_efficiency_ln>  (213) 
-0.963854

>  <r_i_glide_gscore>  (213) 
-3.74975

>  <r_i_glide_lipo>  (213) 
-0.2329

>  <r_i_glide_hbond>  (213) 
-0.16

>  <r_i_glide_metal>  (213) 
-0

>  <r_i_glide_rewards>  (213) 
-1.76397

>  <r_i_glide_evdw>  (213) 
-20.9102

>  <r_i_glide_ecoul>  (213) 
-2.92083

>  <r_i_glide_erotb>  (213) 
0

>  <r_i_glide_esite>  (213) 
-0.109249

>  <r_i_glide_emodel>  (213) 
-30.0341

>  <r_i_glide_energy>  (213) 
-23.8311

>  <r_i_glide_einternal>  (213) 
0

>  <r_i_glide_intrahb_reward>  (213) 
-0

>  <i_i_glide_confnum>  (213) 
1

>  <i_i_glide_posenum>  (213) 
16

>  <r_i_glide_eff_state_penalty>  (213) 
0

>  <ligand_id>  (213) 
61

>  <original_smiles>  (213) 
CC1=CC2C3COc4ccccc4C2(C1)C(=O)N3

>  <smiles>  (213) 
[H]C1=C(C([H])([H])[H])C([H])([H])C23C(=O)N([H])C([H])(C([H])([H])Oc4c([H])c([H])c([H])c([H])c42)C13[H]

$$$$
61:0:2
     RDKit          3D

 33 36  0  0  1  0  0  0  0  0999 V2000
    2.7650   -1.6879   -3.1111 C   0  0  0  0  0  0  0  0  0  0  0  0
    3.7197   -2.2403   -2.0881 C   0  0  0  0  0  0  0  0  0  0  0  0
    3.7125   -3.4523   -1.5042 C   0  0  0  0  0  0  0  0  0  0  0  0
    5.0051   -3.5612   -0.7577 C   0  0  2  0  0  0  0  0  0  0  0  0
    5.4908   -4.4201    0.4136 C   0  0  2  0  0  0  0  0  0  0  0  0
    4.5318   -4.6100    1.5943 C   0  0  0  0  0  0  0  0  0  0  0  0
    3.3703   -3.8099    1.4819 O   0  0  0  0  0  0  0  0  0  0  0  0
    3.5404   -2.4672    1.6921 C   0  0  0  0  0  0  0  0  0  0  0  0
    2.7825   -1.9008    2.7408 C   0  0  0  0  0  0  0  0  0  0  0  0
    2.8702   -0.5338    3.0290 C   0  0  0  0  0  0  0  0  0  0  0  0
    3.7145    0.2824    2.2642 C   0  0  0  0  0  0  0  0  0  0  0  0
    4.4645   -0.2642    1.2094 C   0  0  0  0  0  0  0  0  0  0  0  0
    4.3835   -1.6367    0.8907 C   0  0  0  0  0  0  0  0  0  0  0  0
    5.2317   -2.1377   -0.2989 C   0  0  2  0  0  0  0  0  0  0  0  0
    4.8874   -1.3889   -1.6098 C   0  0  0  0  0  0  0  0  0  0  0  0
    6.6238   -2.3588    0.2643 C   0  0  0  0  0  0  0  0  0  0  0  0
    7.5277   -1.5334    0.2243 O   0  0  0  0  0  0  0  0  0  0  0  0
    6.6632   -3.5989    0.7899 N   0  0  0  0  0  0  0  0  0  0  0  0
    2.3178   -0.7782   -2.7072 H   0  0  0  0  0  0  0  0  0  0  0  0
    1.9644   -2.3903   -3.3554 H   0  0  0  0  0  0  0  0  0  0  0  0
    3.2901   -1.4077   -4.0283 H   0  0  0  0  0  0  0  0  0  0  0  0
    2.9996   -4.2481   -1.6455 H   0  0  0  0  0  0  0  0  0  0  0  0
    5.6835   -3.8194   -1.5817 H   0  0  0  0  0  0  0  0  0  0  0  0
    5.8432   -5.3949    0.0707 H   0  0  0  0  0  0  0  0  0  0  0  0
    4.2067   -5.6508    1.6115 H   0  0  0  0  0  0  0  0  0  0  0  0
    5.0385   -4.4392    2.5453 H   0  0  0  0  0  0  0  0  0  0  0  0
    2.1358   -2.5344    3.3341 H   0  0  0  0  0  0  0  0  0  0  0  0
    2.2983   -0.1067    3.8394 H   0  0  0  0  0  0  0  0  0  0  0  0
    3.7815    1.3359    2.4900 H   0  0  0  0  0  0  0  0  0  0  0  0
    5.1045    0.3876    0.6283 H   0  0  0  0  0  0  0  0  0  0  0  0
    5.6982   -1.4615   -2.3309 H   0  0  0  0  0  0  0  0  0  0  0  0
    4.6196   -0.3357   -1.4905 H   0  0  0  0  0  0  0  0  0  0  0  0
    7.4788   -3.9694    1.2604 H   0  0  0  0  0  0  0  0  0  0  0  0
  1  2  1  0
  1 19  1  0
  1 20  1  0
  1 21  1  0
  2 15  1  0
  2  3  2  0
  3  4  1  0
  3 22  1  0
  4 14  1  0
  4  5  1  0
  4 23  1  6
  5 18  1  0
  5  6  1  0
  5 24  1  6
  6  7  1  0
  6 25  1  0
  6 26  1  0
  7  8  1  0
  8 13  2  0
  8  9  1  0
  9 10  2  0
  9 27  1  0
 10 11  1  0
 10 28  1  0
 11 12  2  0
 11 29  1  0
 12 13  1  0
 12 30  1  0
 13 14  1  0
 14 15  1  6
 14 16  1  0
 15 31  1  0
 15 32  1  0
 16 17  2  0
 16 18  1  0
 18 33  1  0
M  END
>  <i_m_ct_stereo_status>  (214) 
1

>  <s_m_source_file>  (214) 
/var/tmp/pbs.5076255.sched01/tmpb5cfx69f/43pm4c6kpw.sdf

>  <i_m_source_file_index>  (214) 
43

>  <i_lp_mmshare_version>  (214) 
48012

>  <i_f3d_flags>  (214) 
0

>  <s_epik_input>  (214) 
W0NIM11DKFtDSDJdMSk9W0NIXVtDQEBIXShbQ0BAXTEyMylbQ0BASF0oW05IXUMzPU8pW0NIMl1PYzRjMltjSF1bY0hdW2NIXVtjSF00

>  <s_epik_cmdline>  (214) 
J2VwaWtfcHl0aG9uJywgJy1waHQnLCAnMi4wJywgJy1waCcsICc3LjAnLCAnLXRuJywgJzgnLCAnLW1hJywgJzIwMCcsICctaW1hZScsICc8aW5maWxlLm1hZT4nLCAnLW9tYWUnLCAnPG91dGZpbGUubWFlPic=

>  <r_lp_tautomer_probability>  (214) 
1

>  <r_epik_Ionization_Penalty>  (214) 
4.1196e-08

>  <r_epik_Ionization_Penalty_Charging>  (214) 
0

>  <r_epik_Ionization_Penalty_Neutral>  (214) 
4.1196e-08

>  <r_epik_State_Penalty>  (214) 
-0

>  <r_epik_Charging_Adjusted_Penalty>  (214) 
0

>  <i_epik_Tot_Q>  (214) 
0

>  <i_epik_Tot_abs_Q>  (214) 
0

>  <s_lp_Force_Field>  (214) 
OPLS3e

>  <r_lp_Energy>  (214) 
32.2522

>  <b_lp_Chiralities_Consistent>  (214) 
1

>  <s_lp_Variant>  (214) 
61:0-1

>  <s_i_glide_gridfile>  (214) 
pfpi4k_grid

>  <i_i_glide_lignum>  (214) 
43

>  <i_i_glide_rotatable_bonds>  (214) 
0

>  <r_i_docking_score>  (214) 
-3.48689

>  <r_i_glide_ligand_efficiency>  (214) 
-0.193716

>  <r_i_glide_ligand_efficiency_sa>  (214) 
-0.50768

>  <r_i_glide_ligand_efficiency_ln>  (214) 
-0.896287

>  <r_i_glide_gscore>  (214) 
-3.48689

>  <r_i_glide_lipo>  (214) 
-0.287178

>  <r_i_glide_hbond>  (214) 
-0.0761402

>  <r_i_glide_metal>  (214) 
-0

>  <r_i_glide_rewards>  (214) 
-1.86002

>  <r_i_glide_evdw>  (214) 
-19.908

>  <r_i_glide_ecoul>  (214) 
-1.78765

>  <r_i_glide_erotb>  (214) 
0

>  <r_i_glide_esite>  (214) 
0

>  <r_i_glide_emodel>  (214) 
-27.4386

>  <r_i_glide_energy>  (214) 
-21.6957

>  <r_i_glide_einternal>  (214) 
0

>  <r_i_glide_intrahb_reward>  (214) 
-0

>  <i_i_glide_confnum>  (214) 
2

>  <i_i_glide_posenum>  (214) 
7

>  <r_i_glide_eff_state_penalty>  (214) 
0

>  <ligand_id>  (214) 
61

>  <original_smiles>  (214) 
CC1=CC2C3COc4ccccc4C2(C1)C(=O)N3

>  <smiles>  (214) 
[H]C1=C(C([H])([H])[H])C([H])([H])C23C(=O)N([H])C([H])(C([H])([H])Oc4c([H])c([H])c([H])c([H])c42)C13[H]

$$$$
63:0:0
     RDKit          3D

 64 70  0  0  1  0  0  0  0  0999 V2000
    4.5203   -8.2856    2.1344 C   0  0  0  0  0  0  0  0  0  0  0  0
    4.6371   -6.9931    1.7853 C   0  0  0  0  0  0  0  0  0  0  0  0
    4.1231   -6.5002    0.5290 C   0  0  0  0  0  0  0  0  0  0  0  0
    4.5690   -5.2614    0.2241 C   0  0  0  0  0  0  0  0  0  0  0  0
    6.0851   -4.9990    0.4967 C   0  0  1  0  0  0  0  0  0  0  0  0
    6.7458   -3.7410    0.1989 O   0  0  0  0  0  0  0  0  0  0  0  0
    6.5838   -2.9325   -0.9894 C   0  0  1  0  0  0  0  0  0  0  0  0
    5.5664   -3.4620   -2.0341 C   0  0  0  0  0  0  0  0  0  0  0  0
    4.3194   -2.6576   -1.6469 C   0  0  2  0  0  0  0  0  0  0  0  0
    3.1249   -2.7790   -2.6056 C   0  0  0  0  0  0  0  0  0  0  0  0
    4.9437   -1.2597   -1.6460 C   0  0  0  0  0  0  0  0  0  0  0  0
    5.8982   -1.5963   -0.5065 C   0  0  1  0  0  0  0  0  0  0  0  0
    4.8866   -2.0274    0.5190 C   0  0  0  0  0  0  0  0  0  0  0  0
    4.0606   -2.8512   -0.1363 C   0  0  0  0  0  0  0  0  0  0  0  0
    3.5276   -4.1597    0.4480 C   0  0  1  0  0  0  0  0  0  0  0  0
    2.3362   -4.4807   -0.2625 O   0  0  0  0  0  0  0  0  0  0  0  0
    3.1298   -4.1860    1.9983 C   0  0  2  0  0  0  0  0  0  0  0  0
    2.3964   -2.8819    2.4651 C   0  0  0  0  0  0  0  0  0  0  0  0
    2.4159   -2.5286    3.9728 C   0  0  0  0  0  0  0  0  0  0  0  0
    3.2300   -3.4921    4.8531 C   0  0  2  0  0  0  0  0  0  0  0  0
    4.5381   -3.7736    4.1256 C   0  0  1  0  0  0  0  0  0  0  0  0
    5.5595   -4.1892    5.0114 O   0  0  0  0  0  0  0  0  0  0  0  0
    4.0746   -4.8540    3.1217 C   0  0  1  0  0  0  0  0  0  0  0  0
    3.1714   -5.6320    3.9331 O   0  0  0  0  0  0  0  0  0  0  0  0
    2.6060   -4.8976    5.0140 C   0  0  0  0  0  0  0  0  0  0  0  0
    3.0314   -5.5863    6.3308 C   0  0  0  0  0  0  0  0  0  0  0  0
    1.0690   -4.9766    4.8952 C   0  0  0  0  0  0  0  0  0  0  0  0
    5.1862   -5.9091    2.7135 C   0  0  2  0  0  0  0  0  0  0  0  0
    6.3906   -5.2502    1.9970 C   0  0  1  0  0  0  0  0  0  0  0  0
    7.6861   -6.0663    2.1847 C   0  0  0  0  0  0  0  0  0  0  0  0
    4.8538   -8.6330    3.1009 H   0  0  0  0  0  0  0  0  0  0  0  0
    4.0793   -9.0120    1.4668 H   0  0  0  0  0  0  0  0  0  0  0  0
    3.0637   -6.6837    0.4499 H   0  0  0  0  0  0  0  0  0  0  0  0
    6.5966   -5.7663   -0.0817 H   0  0  0  0  0  0  0  0  0  0  0  0
    7.5511   -2.7487   -1.4648 H   0  0  0  0  0  0  0  0  0  0  0  0
    5.8873   -3.1969   -3.0424 H   0  0  0  0  0  0  0  0  0  0  0  0
    5.4148   -4.5415   -2.0520 H   0  0  0  0  0  0  0  0  0  0  0  0
    3.3703   -2.3752   -3.5851 H   0  0  0  0  0  0  0  0  0  0  0  0
    2.2635   -2.2309   -2.2295 H   0  0  0  0  0  0  0  0  0  0  0  0
    2.8295   -3.8159   -2.7556 H   0  0  0  0  0  0  0  0  0  0  0  0
    5.4152   -0.9769   -2.5886 H   0  0  0  0  0  0  0  0  0  0  0  0
    4.2314   -0.4780   -1.3755 H   0  0  0  0  0  0  0  0  0  0  0  0
    6.5551   -0.7958   -0.1693 H   0  0  0  0  0  0  0  0  0  0  0  0
    5.1407   -2.0734    1.5630 H   0  0  0  0  0  0  0  0  0  0  0  0
    2.5979   -4.7626   -1.1317 H   0  0  0  0  0  0  0  0  0  0  0  0
    2.3169   -4.9166    2.0007 H   0  0  0  0  0  0  0  0  0  0  0  0
    2.7610   -2.0090    1.9316 H   0  0  0  0  0  0  0  0  0  0  0  0
    1.3597   -2.9527    2.1487 H   0  0  0  0  0  0  0  0  0  0  0  0
    2.8638   -1.5395    4.0666 H   0  0  0  0  0  0  0  0  0  0  0  0
    1.4022   -2.4036    4.3514 H   0  0  0  0  0  0  0  0  0  0  0  0
    3.3853   -3.0219    5.8248 H   0  0  0  0  0  0  0  0  0  0  0  0
    4.9176   -2.8856    3.6218 H   0  0  0  0  0  0  0  0  0  0  0  0
    5.7316   -3.4827    5.6169 H   0  0  0  0  0  0  0  0  0  0  0  0
    2.6847   -5.0278    7.2009 H   0  0  0  0  0  0  0  0  0  0  0  0
    4.1134   -5.6902    6.4208 H   0  0  0  0  0  0  0  0  0  0  0  0
    2.6155   -6.5925    6.4042 H   0  0  0  0  0  0  0  0  0  0  0  0
    0.5772   -4.3608    5.6452 H   0  0  0  0  0  0  0  0  0  0  0  0
    0.7234   -6.0010    5.0346 H   0  0  0  0  0  0  0  0  0  0  0  0
    0.7177   -4.6628    3.9141 H   0  0  0  0  0  0  0  0  0  0  0  0
    5.5441   -6.3952    3.6234 H   0  0  0  0  0  0  0  0  0  0  0  0
    6.5734   -4.2861    2.4702 H   0  0  0  0  0  0  0  0  0  0  0  0
    7.5992   -7.0704    1.7664 H   0  0  0  0  0  0  0  0  0  0  0  0
    7.9277   -6.1734    3.2436 H   0  0  0  0  0  0  0  0  0  0  0  0
    8.5361   -5.5798    1.7034 H   0  0  0  0  0  0  0  0  0  0  0  0
  1  2  2  0
  1 31  1  0
  1 32  1  0
  2 28  1  0
  2  3  1  0
  3  4  2  0
  3 33  1  0
  4 15  1  0
  4  5  1  0
  5 29  1  0
  5  6  1  0
  5 34  1  6
  6  7  1  0
  7 12  1  0
  7  8  1  0
  7 35  1  6
  8  9  1  0
  8 36  1  0
  8 37  1  0
  9 14  1  0
  9 10  1  6
  9 11  1  0
 10 38  1  0
 10 39  1  0
 10 40  1  0
 11 12  1  0
 11 41  1  0
 11 42  1  0
 12 13  1  0
 12 43  1  1
 13 14  2  0
 13 44  1  0
 14 15  1  0
 15 16  1  6
 15 17  1  0
 16 45  1  0
 17 23  1  0
 17 18  1  0
 17 46  1  6
 18 19  1  0
 18 47  1  0
 18 48  1  0
 19 20  1  0
 19 49  1  0
 19 50  1  0
 20 25  1  0
 20 21  1  0
 20 51  1  1
 21 22  1  0
 21 23  1  0
 21 52  1  6
 22 53  1  0
 23 24  1  1
 23 28  1  0
 24 25  1  0
 25 26  1  0
 25 27  1  0
 26 54  1  0
 26 55  1  0
 26 56  1  0
 27 57  1  0
 27 58  1  0
 27 59  1  0
 28 29  1  0
 28 60  1  1
 29 30  1  0
 29 61  1  1
 30 62  1  0
 30 63  1  0
 30 64  1  0
M  END
>  <i_m_ct_stereo_status>  (215) 
1

>  <s_m_source_file>  (215) 
/var/tmp/pbs.5076255.sched01/tmprva83imr/861x3d95ot.sdf

>  <i_m_source_file_index>  (215) 
2

>  <i_lp_mmshare_version>  (215) 
48012

>  <i_f3d_flags>  (215) 
0

>  <s_epik_input>  (215) 
W0NIXTE9QzJbQ0BAXShbQ0gyXTMpKFtDSDNdKVtDSDJdW0NAQEhdMVtDQEhdM09bQ0BASF0oW0NASF0oW0NIM10pW0NAQEhdNEMoPVtDSDJdKVtDSF09NSlDNVtDQEBdMihbT0hdKVtDQEBIXShbQ0BAXTQ2NylbQ0gyXVtDSDJdW0NASF0oW0NASF02W09IXSlDKE83KShbQ0gzXSlbQ0gzXQ==

>  <s_epik_cmdline>  (215) 
J2VwaWtfcHl0aG9uJywgJy1waHQnLCAnMi4wJywgJy1waCcsICc3LjAnLCAnLXRuJywgJzgnLCAnLW1hJywgJzIwMCcsICctaW1hZScsICc8aW5maWxlLm1hZT4nLCAnLW9tYWUnLCAnPG91dGZpbGUubWFlPic=

>  <r_lp_tautomer_probability>  (215) 
1

>  <r_epik_Ionization_Penalty>  (215) 
1.85421e-07

>  <r_epik_Ionization_Penalty_Charging>  (215) 
0

>  <r_epik_Ionization_Penalty_Neutral>  (215) 
1.85421e-07

>  <r_epik_State_Penalty>  (215) 
-0

>  <r_epik_Charging_Adjusted_Penalty>  (215) 
0

>  <i_epik_Tot_Q>  (215) 
0

>  <i_epik_Tot_abs_Q>  (215) 
0

>  <s_lp_Force_Field>  (215) 
OPLS3e

>  <r_lp_Energy>  (215) 
151.165

>  <b_lp_Chiralities_Consistent>  (215) 
1

>  <s_lp_Variant>  (215) 
63:0-1

>  <s_i_glide_gridfile>  (215) 
pfpi4k_grid

>  <i_i_glide_lignum>  (215) 
2

>  <i_i_glide_rotatable_bonds>  (215) 
2

>  <r_i_docking_score>  (215) 
-3.45481

>  <r_i_glide_ligand_efficiency>  (215) 
-0.11516

>  <r_i_glide_ligand_efficiency_sa>  (215) 
-0.35783

>  <r_i_glide_ligand_efficiency_ln>  (215) 
-0.78497

>  <r_i_glide_gscore>  (215) 
-3.45481

>  <r_i_glide_lipo>  (215) 
-0.60808

>  <r_i_glide_hbond>  (215) 
-0.32

>  <r_i_glide_metal>  (215) 
-0

>  <r_i_glide_rewards>  (215) 
-0.609915

>  <r_i_glide_evdw>  (215) 
-28.8554

>  <r_i_glide_ecoul>  (215) 
-3.16027

>  <r_i_glide_erotb>  (215) 
0

>  <r_i_glide_esite>  (215) 
0

>  <r_i_glide_emodel>  (215) 
-38.5143

>  <r_i_glide_energy>  (215) 
-32.0157

>  <r_i_glide_einternal>  (215) 
0.420264

>  <r_i_glide_intrahb_reward>  (215) 
-0

>  <i_i_glide_confnum>  (215) 
2

>  <i_i_glide_posenum>  (215) 
38

>  <r_i_glide_eff_state_penalty>  (215) 
0

>  <ligand_id>  (215) 
63

>  <original_smiles>  (215) 
C=C1C=C2C3OC4CC5(C)CC4C=C5C2(O)C2CCC4C(O)C2(OC4(C)C)C1C3C

>  <smiles>  (215) 
[H]OC12C3=C([H])C(=C([H])[H])C([H])(C([H])(C([H])([H])[H])C3([H])OC3([H])C([H])([H])C4(C([H])([H])[H])C1=C([H])C3([H])C4([H])[H])C13OC(C([H])([H])[H])(C([H])([H])[H])C([H])(C([H])([H])C([H])([H])C21[H])C3([H])O[H]

$$$$
63:0:1
     RDKit          3D

 64 70  0  0  1  0  0  0  0  0999 V2000
    4.0338   -7.3114    2.4871 C   0  0  0  0  0  0  0  0  0  0  0  0
    4.1746   -6.1386    1.8439 C   0  0  0  0  0  0  0  0  0  0  0  0
    3.6079   -5.9225    0.5335 C   0  0  0  0  0  0  0  0  0  0  0  0
    4.0760   -4.8028   -0.0589 C   0  0  0  0  0  0  0  0  0  0  0  0
    5.6108   -4.5503    0.0740 C   0  0  1  0  0  0  0  0  0  0  0  0
    6.2937   -3.4266   -0.5391 O   0  0  0  0  0  0  0  0  0  0  0  0
    6.0889   -2.9092   -1.8723 C   0  0  1  0  0  0  0  0  0  0  0  0
    5.0083   -3.6211   -2.7203 C   0  0  0  0  0  0  0  0  0  0  0  0
    3.8051   -2.6971   -2.4720 C   0  0  2  0  0  0  0  0  0  0  0  0
    2.5597   -2.9641   -3.3217 C   0  0  0  0  0  0  0  0  0  0  0  0
    4.4675   -1.3645   -2.8231 C   0  0  0  0  0  0  0  0  0  0  0  0
    5.4620   -1.4768   -1.6772 C   0  0  1  0  0  0  0  0  0  0  0  0
    4.5003   -1.6148   -0.5342 C   0  0  0  0  0  0  0  0  0  0  0  0
    3.6223   -2.5303   -0.9483 C   0  0  0  0  0  0  0  0  0  0  0  0
    3.0816   -3.6416   -0.0593 C   0  0  1  0  0  0  0  0  0  0  0  0
    1.8752   -4.0875   -0.6659 O   0  0  0  0  0  0  0  0  0  0  0  0
    2.7724   -3.2889    1.4779 C   0  0  2  0  0  0  0  0  0  0  0  0
    2.1213   -1.8715    1.6790 C   0  0  0  0  0  0  0  0  0  0  0  0
    2.2437   -1.1938    3.0628 C   0  0  0  0  0  0  0  0  0  0  0  0
    3.0697   -1.9730    4.0954 C   0  0  2  0  0  0  0  0  0  0  0  0
    4.3187   -2.4722    3.3862 C   0  0  1  0  0  0  0  0  0  0  0  0
    5.3790   -2.7225    4.2865 O   0  0  0  0  0  0  0  0  0  0  0  0
    3.7593   -3.7288    2.6790 C   0  0  1  0  0  0  0  0  0  0  0  0
    2.8868   -4.2634    3.6956 O   0  0  0  0  0  0  0  0  0  0  0  0
    2.4066   -3.2747    4.6022 C   0  0  0  0  0  0  0  0  0  0  0  0
    2.8801   -3.6659    6.0206 C   0  0  0  0  0  0  0  0  0  0  0  0
    0.8638   -3.3066    4.5788 C   0  0  0  0  0  0  0  0  0  0  0  0
    4.8132   -4.8984    2.4719 C   0  0  2  0  0  0  0  0  0  0  0  0
    5.9973   -4.4715    1.5693 C   0  0  1  0  0  0  0  0  0  0  0  0
    7.2677   -5.2955    1.8558 C   0  0  0  0  0  0  0  0  0  0  0  0
    4.4153   -7.4433    3.4863 H   0  0  0  0  0  0  0  0  0  0  0  0
    3.5297   -8.1457    2.0239 H   0  0  0  0  0  0  0  0  0  0  0  0
    2.5406   -6.0876    0.5341 H   0  0  0  0  0  0  0  0  0  0  0  0
    6.0584   -5.4568   -0.3289 H   0  0  0  0  0  0  0  0  0  0  0  0
    7.0291   -2.8726   -2.4240 H   0  0  0  0  0  0  0  0  0  0  0  0
    5.2740   -3.5994   -3.7788 H   0  0  0  0  0  0  0  0  0  0  0  0
    4.8524   -4.6704   -2.4810 H   0  0  0  0  0  0  0  0  0  0  0  0
    2.7648   -2.8033   -4.3763 H   0  0  0  0  0  0  0  0  0  0  0  0
    1.7588   -2.2907   -3.0300 H   0  0  0  0  0  0  0  0  0  0  0  0
    2.2015   -3.9842   -3.2238 H   0  0  0  0  0  0  0  0  0  0  0  0
    4.9185   -1.3262   -3.8155 H   0  0  0  0  0  0  0  0  0  0  0  0
    3.7990   -0.5068   -2.7123 H   0  0  0  0  0  0  0  0  0  0  0  0
    6.1519   -0.6568   -1.5579 H   0  0  0  0  0  0  0  0  0  0  0  0
    4.8187   -1.4304    0.4774 H   0  0  0  0  0  0  0  0  0  0  0  0
    2.0975   -4.3693   -1.5437 H   0  0  0  0  0  0  0  0  0  0  0  0
    1.9353   -3.9604    1.6793 H   0  0  0  0  0  0  0  0  0  0  0  0
    2.4928   -1.1629    0.9429 H   0  0  0  0  0  0  0  0  0  0  0  0
    1.0580   -1.9329    1.4457 H   0  0  0  0  0  0  0  0  0  0  0  0
    2.7233   -0.2283    2.9081 H   0  0  0  0  0  0  0  0  0  0  0  0
    1.2544   -0.9473    3.4430 H   0  0  0  0  0  0  0  0  0  0  0  0
    3.2996   -1.3041    4.9227 H   0  0  0  0  0  0  0  0  0  0  0  0
    4.6964   -1.7401    2.6745 H   0  0  0  0  0  0  0  0  0  0  0  0
    5.0709   -3.3536    4.9215 H   0  0  0  0  0  0  0  0  0  0  0  0
    2.6002   -2.9060    6.7514 H   0  0  0  0  0  0  0  0  0  0  0  0
    3.9584   -3.7986    6.0890 H   0  0  0  0  0  0  0  0  0  0  0  0
    2.4304   -4.6068    6.3411 H   0  0  0  0  0  0  0  0  0  0  0  0
    0.4364   -2.5155    5.1940 H   0  0  0  0  0  0  0  0  0  0  0  0
    0.4888   -4.2560    4.9621 H   0  0  0  0  0  0  0  0  0  0  0  0
    0.4669   -3.2017    3.5704 H   0  0  0  0  0  0  0  0  0  0  0  0
    5.2088   -5.1878    3.4484 H   0  0  0  0  0  0  0  0  0  0  0  0
    6.2453   -3.4366    1.8016 H   0  0  0  0  0  0  0  0  0  0  0  0
    7.1182   -6.3618    1.6786 H   0  0  0  0  0  0  0  0  0  0  0  0
    7.5679   -5.1839    2.8960 H   0  0  0  0  0  0  0  0  0  0  0  0
    8.1043   -4.9644    1.2380 H   0  0  0  0  0  0  0  0  0  0  0  0
  1  2  2  0
  1 31  1  0
  1 32  1  0
  2 28  1  0
  2  3  1  0
  3  4  2  0
  3 33  1  0
  4 15  1  0
  4  5  1  0
  5 29  1  0
  5  6  1  0
  5 34  1  6
  6  7  1  0
  7 12  1  0
  7  8  1  0
  7 35  1  6
  8  9  1  0
  8 36  1  0
  8 37  1  0
  9 14  1  0
  9 10  1  6
  9 11  1  0
 10 38  1  0
 10 39  1  0
 10 40  1  0
 11 12  1  0
 11 41  1  0
 11 42  1  0
 12 13  1  0
 12 43  1  1
 13 14  2  0
 13 44  1  0
 14 15  1  0
 15 16  1  6
 15 17  1  0
 16 45  1  0
 17 23  1  0
 17 18  1  0
 17 46  1  1
 18 19  1  0
 18 47  1  0
 18 48  1  0
 19 20  1  0
 19 49  1  0
 19 50  1  0
 20 25  1  0
 20 21  1  0
 20 51  1  1
 21 22  1  0
 21 23  1  0
 21 52  1  6
 22 53  1  0
 23 24  1  1
 23 28  1  0
 24 25  1  0
 25 26  1  0
 25 27  1  0
 26 54  1  0
 26 55  1  0
 26 56  1  0
 27 57  1  0
 27 58  1  0
 27 59  1  0
 28 29  1  0
 28 60  1  1
 29 30  1  0
 29 61  1  1
 30 62  1  0
 30 63  1  0
 30 64  1  0
M  END
>  <i_m_ct_stereo_status>  (216) 
1

>  <s_m_source_file>  (216) 
/var/tmp/pbs.5076255.sched01/tmprva83imr/861x3d95ot.sdf

>  <i_m_source_file_index>  (216) 
2

>  <i_lp_mmshare_version>  (216) 
48012

>  <i_f3d_flags>  (216) 
0

>  <s_epik_input>  (216) 
W0NIXTE9QzJbQ0BAXShbQ0gyXTMpKFtDSDNdKVtDSDJdW0NAQEhdMVtDQEhdM09bQ0BASF0oW0NASF0oW0NIM10pW0NAQEhdNEMoPVtDSDJdKVtDSF09NSlDNVtDQEBdMihbT0hdKVtDQEBIXShbQ0BAXTQ2NylbQ0gyXVtDSDJdW0NASF0oW0NASF02W09IXSlDKE83KShbQ0gzXSlbQ0gzXQ==

>  <s_epik_cmdline>  (216) 
J2VwaWtfcHl0aG9uJywgJy1waHQnLCAnMi4wJywgJy1waCcsICc3LjAnLCAnLXRuJywgJzgnLCAnLW1hJywgJzIwMCcsICctaW1hZScsICc8aW5maWxlLm1hZT4nLCAnLW9tYWUnLCAnPG91dGZpbGUubWFlPic=

>  <r_lp_tautomer_probability>  (216) 
1

>  <r_epik_Ionization_Penalty>  (216) 
1.85421e-07

>  <r_epik_Ionization_Penalty_Charging>  (216) 
0

>  <r_epik_Ionization_Penalty_Neutral>  (216) 
1.85421e-07

>  <r_epik_State_Penalty>  (216) 
-0

>  <r_epik_Charging_Adjusted_Penalty>  (216) 
0

>  <i_epik_Tot_Q>  (216) 
0

>  <i_epik_Tot_abs_Q>  (216) 
0

>  <s_lp_Force_Field>  (216) 
OPLS3e

>  <r_lp_Energy>  (216) 
151.165

>  <b_lp_Chiralities_Consistent>  (216) 
1

>  <s_lp_Variant>  (216) 
63:0-1

>  <s_i_glide_gridfile>  (216) 
pfpi4k_grid

>  <i_i_glide_lignum>  (216) 
2

>  <i_i_glide_rotatable_bonds>  (216) 
2

>  <r_i_docking_score>  (216) 
-3.25363

>  <r_i_glide_ligand_efficiency>  (216) 
-0.108454

>  <r_i_glide_ligand_efficiency_sa>  (216) 
-0.336993

>  <r_i_glide_ligand_efficiency_ln>  (216) 
-0.739261

>  <r_i_glide_gscore>  (216) 
-3.25363

>  <r_i_glide_lipo>  (216) 
-0.616474

>  <r_i_glide_hbond>  (216) 
-0.151035

>  <r_i_glide_metal>  (216) 
-0

>  <r_i_glide_rewards>  (216) 
-0.609915

>  <r_i_glide_evdw>  (216) 
-27.6654

>  <r_i_glide_ecoul>  (216) 
-3.28628

>  <r_i_glide_erotb>  (216) 
0

>  <r_i_glide_esite>  (216) 
0

>  <r_i_glide_emodel>  (216) 
-37.1919

>  <r_i_glide_energy>  (216) 
-30.9516

>  <r_i_glide_einternal>  (216) 
0.0206962

>  <r_i_glide_intrahb_reward>  (216) 
-0

>  <i_i_glide_confnum>  (216) 
1

>  <i_i_glide_posenum>  (216) 
19

>  <r_i_glide_eff_state_penalty>  (216) 
0

>  <ligand_id>  (216) 
63

>  <original_smiles>  (216) 
C=C1C=C2C3OC4CC5(C)CC4C=C5C2(O)C2CCC4C(O)C2(OC4(C)C)C1C3C

>  <smiles>  (216) 
[H]OC12C3=C([H])C(=C([H])[H])C([H])(C([H])(C([H])([H])[H])C3([H])OC3([H])C([H])([H])C4(C([H])([H])[H])C1=C([H])C3([H])C4([H])[H])C13OC(C([H])([H])[H])(C([H])([H])[H])C([H])(C([H])([H])C([H])([H])C21[H])C3([H])O[H]

$$$$
63:0:2
     RDKit          3D

 64 70  0  0  1  0  0  0  0  0999 V2000
    4.1530   -7.6235    2.4103 C   0  0  0  0  0  0  0  0  0  0  0  0
    4.2744   -6.4033    1.8582 C   0  0  0  0  0  0  0  0  0  0  0  0
    3.7179   -6.1029    0.5630 C   0  0  0  0  0  0  0  0  0  0  0  0
    4.1637   -4.9300    0.0614 C   0  0  0  0  0  0  0  0  0  0  0  0
    5.6938   -4.6587    0.2154 C   0  0  1  0  0  0  0  0  0  0  0  0
    6.3496   -3.4709   -0.2973 O   0  0  0  0  0  0  0  0  0  0  0  0
    6.1448   -2.8582   -1.5896 C   0  0  1  0  0  0  0  0  0  0  0  0
    5.0788   -3.5286   -2.4961 C   0  0  0  0  0  0  0  0  0  0  0  0
    3.8608   -2.6442   -2.1908 C   0  0  2  0  0  0  0  0  0  0  0  0
    2.6218   -2.8690   -3.0663 C   0  0  0  0  0  0  0  0  0  0  0  0
    4.5063   -1.2744   -2.4288 C   0  0  0  0  0  0  0  0  0  0  0  0
    5.4957   -1.4555   -1.2876 C   0  0  1  0  0  0  0  0  0  0  0  0
    4.5231   -1.7007   -0.1718 C   0  0  0  0  0  0  0  0  0  0  0  0
    3.6635   -2.6028   -0.6571 C   0  0  0  0  0  0  0  0  0  0  0  0
    3.1486   -3.7924    0.1436 C   0  0  1  0  0  0  0  0  0  0  0  0
    1.9564   -4.2261   -0.4866 O   0  0  0  0  0  0  0  0  0  0  0  0
    2.8131   -3.5629    1.6963 C   0  0  2  0  0  0  0  0  0  0  0  0
    2.1240   -2.1799    1.9909 C   0  0  0  0  0  0  0  0  0  0  0  0
    2.2227   -1.6036    3.4258 C   0  0  0  0  0  0  0  0  0  0  0  0
    3.0580   -2.4418    4.4055 C   0  0  2  0  0  0  0  0  0  0  0  0
    4.3217   -2.8614    3.6765 C   0  0  1  0  0  0  0  0  0  0  0  0
    5.3683   -3.1617    4.5824 O   0  0  0  0  0  0  0  0  0  0  0  0
    3.7971   -4.0709    2.8690 C   0  0  1  0  0  0  0  0  0  0  0  0
    2.9223   -4.6982    3.8272 O   0  0  0  0  0  0  0  0  0  0  0  0
    2.4231   -3.7923    4.8093 C   0  0  0  0  0  0  0  0  0  0  0  0
    2.8986   -4.2810    6.1965 C   0  0  0  0  0  0  0  0  0  0  0  0
    0.8825   -3.8545    4.7735 C   0  0  0  0  0  0  0  0  0  0  0  0
    4.8804   -5.1974    2.5837 C   0  0  2  0  0  0  0  0  0  0  0  0
    6.0628   -4.6833    1.7211 C   0  0  1  0  0  0  0  0  0  0  0  0
    7.3496   -5.4940    1.9729 C   0  0  0  0  0  0  0  0  0  0  0  0
    4.5274   -7.8230    3.3997 H   0  0  0  0  0  0  0  0  0  0  0  0
    3.6712   -8.4307    1.8793 H   0  0  0  0  0  0  0  0  0  0  0  0
    2.6522   -6.2879    0.5463 H   0  0  0  0  0  0  0  0  0  0  0  0
    6.1633   -5.5095   -0.2783 H   0  0  0  0  0  0  0  0  0  0  0  0
    7.0875   -2.7632   -2.1296 H   0  0  0  0  0  0  0  0  0  0  0  0
    5.3526   -3.4192   -3.5461 H   0  0  0  0  0  0  0  0  0  0  0  0
    4.9405   -4.5996   -2.3423 H   0  0  0  0  0  0  0  0  0  0  0  0
    2.8262   -2.6236   -4.1068 H   0  0  0  0  0  0  0  0  0  0  0  0
    1.8009   -2.2453   -2.7277 H   0  0  0  0  0  0  0  0  0  0  0  0
    2.2803   -3.8983   -3.0450 H   0  0  0  0  0  0  0  0  0  0  0  0
    4.9593   -1.1520   -3.4140 H   0  0  0  0  0  0  0  0  0  0  0  0
    3.8160   -0.4444   -2.2627 H   0  0  0  0  0  0  0  0  0  0  0  0
    6.1794   -0.6325   -1.0875 H   0  0  0  0  0  0  0  0  0  0  0  0
    4.8241   -1.5866    0.8557 H   0  0  0  0  0  0  0  0  0  0  0  0
    2.1896   -4.4690   -1.3763 H   0  0  0  0  0  0  0  0  0  0  0  0
    1.9847   -4.2623    1.8416 H   0  0  0  0  0  0  0  0  0  0  0  0
    2.4858   -1.4032    1.3190 H   0  0  0  0  0  0  0  0  0  0  0  0
    1.0641   -2.2571    1.7457 H   0  0  0  0  0  0  0  0  0  0  0  0
    2.6862   -0.6195    3.3538 H   0  0  0  0  0  0  0  0  0  0  0  0
    1.2298   -1.4052    3.8267 H   0  0  0  0  0  0  0  0  0  0  0  0
    3.2755   -1.8358    5.2831 H   0  0  0  0  0  0  0  0  0  0  0  0
    4.6989   -2.0724    3.0262 H   0  0  0  0  0  0  0  0  0  0  0  0
    6.0932   -3.5119    4.0943 H   0  0  0  0  0  0  0  0  0  0  0  0
    2.6017   -3.5866    6.9832 H   0  0  0  0  0  0  0  0  0  0  0  0
    3.9801   -4.3922    6.2573 H   0  0  0  0  0  0  0  0  0  0  0  0
    2.4725   -5.2540    6.4435 H   0  0  0  0  0  0  0  0  0  0  0  0
    0.4353   -3.1216    5.4440 H   0  0  0  0  0  0  0  0  0  0  0  0
    0.5273   -4.8385    5.0806 H   0  0  0  0  0  0  0  0  0  0  0  0
    0.4920   -3.6823    3.7722 H   0  0  0  0  0  0  0  0  0  0  0  0
    5.2678   -5.5526    3.5386 H   0  0  0  0  0  0  0  0  0  0  0  0
    6.2812   -3.6614    2.0267 H   0  0  0  0  0  0  0  0  0  0  0  0
    7.2243   -6.5446    1.7047 H   0  0  0  0  0  0  0  0  0  0  0  0
    7.6387   -5.4612    3.0244 H   0  0  0  0  0  0  0  0  0  0  0  0
    8.1833   -5.0991    1.3902 H   0  0  0  0  0  0  0  0  0  0  0  0
  1  2  2  0
  1 31  1  0
  1 32  1  0
  2 28  1  0
  2  3  1  0
  3  4  2  0
  3 33  1  0
  4 15  1  0
  4  5  1  0
  5 29  1  0
  5  6  1  0
  5 34  1  6
  6  7  1  0
  7 12  1  0
  7  8  1  0
  7 35  1  6
  8  9  1  0
  8 36  1  0
  8 37  1  0
  9 14  1  0
  9 10  1  6
  9 11  1  0
 10 38  1  0
 10 39  1  0
 10 40  1  0
 11 12  1  0
 11 41  1  0
 11 42  1  0
 12 13  1  0
 12 43  1  1
 13 14  2  0
 13 44  1  0
 14 15  1  0
 15 16  1  6
 15 17  1  0
 16 45  1  0
 17 23  1  0
 17 18  1  0
 17 46  1  1
 18 19  1  0
 18 47  1  0
 18 48  1  0
 19 20  1  0
 19 49  1  0
 19 50  1  0
 20 25  1  0
 20 21  1  0
 20 51  1  1
 21 22  1  0
 21 23  1  0
 21 52  1  6
 22 53  1  0
 23 24  1  1
 23 28  1  0
 24 25  1  0
 25 26  1  0
 25 27  1  0
 26 54  1  0
 26 55  1  0
 26 56  1  0
 27 57  1  0
 27 58  1  0
 27 59  1  0
 28 29  1  0
 28 60  1  1
 29 30  1  0
 29 61  1  1
 30 62  1  0
 30 63  1  0
 30 64  1  0
M  END
>  <i_m_ct_stereo_status>  (217) 
1

>  <s_m_source_file>  (217) 
/var/tmp/pbs.5076255.sched01/tmprva83imr/861x3d95ot.sdf

>  <i_m_source_file_index>  (217) 
2

>  <i_lp_mmshare_version>  (217) 
48012

>  <i_f3d_flags>  (217) 
0

>  <s_epik_input>  (217) 
W0NIXTE9QzJbQ0BAXShbQ0gyXTMpKFtDSDNdKVtDSDJdW0NAQEhdMVtDQEhdM09bQ0BASF0oW0NASF0oW0NIM10pW0NAQEhdNEMoPVtDSDJdKVtDSF09NSlDNVtDQEBdMihbT0hdKVtDQEBIXShbQ0BAXTQ2NylbQ0gyXVtDSDJdW0NASF0oW0NASF02W09IXSlDKE83KShbQ0gzXSlbQ0gzXQ==

>  <s_epik_cmdline>  (217) 
J2VwaWtfcHl0aG9uJywgJy1waHQnLCAnMi4wJywgJy1waCcsICc3LjAnLCAnLXRuJywgJzgnLCAnLW1hJywgJzIwMCcsICctaW1hZScsICc8aW5maWxlLm1hZT4nLCAnLW9tYWUnLCAnPG91dGZpbGUubWFlPic=

>  <r_lp_tautomer_probability>  (217) 
1

>  <r_epik_Ionization_Penalty>  (217) 
1.85421e-07

>  <r_epik_Ionization_Penalty_Charging>  (217) 
0

>  <r_epik_Ionization_Penalty_Neutral>  (217) 
1.85421e-07

>  <r_epik_State_Penalty>  (217) 
-0

>  <r_epik_Charging_Adjusted_Penalty>  (217) 
0

>  <i_epik_Tot_Q>  (217) 
0

>  <i_epik_Tot_abs_Q>  (217) 
0

>  <s_lp_Force_Field>  (217) 
OPLS3e

>  <r_lp_Energy>  (217) 
151.165

>  <b_lp_Chiralities_Consistent>  (217) 
1

>  <s_lp_Variant>  (217) 
63:0-1

>  <s_i_glide_gridfile>  (217) 
pfpi4k_grid

>  <i_i_glide_lignum>  (217) 
2

>  <i_i_glide_rotatable_bonds>  (217) 
2

>  <r_i_docking_score>  (217) 
-3.17829

>  <r_i_glide_ligand_efficiency>  (217) 
-0.105943

>  <r_i_glide_ligand_efficiency_sa>  (217) 
-0.32919

>  <r_i_glide_ligand_efficiency_ln>  (217) 
-0.722142

>  <r_i_glide_gscore>  (217) 
-3.17829

>  <r_i_glide_lipo>  (217) 
-0.519592

>  <r_i_glide_hbond>  (217) 
-0.175097

>  <r_i_glide_metal>  (217) 
-0

>  <r_i_glide_rewards>  (217) 
-0.609915

>  <r_i_glide_evdw>  (217) 
-28.309

>  <r_i_glide_ecoul>  (217) 
-3.05489

>  <r_i_glide_erotb>  (217) 
0

>  <r_i_glide_esite>  (217) 
0

>  <r_i_glide_emodel>  (217) 
-37.2828

>  <r_i_glide_energy>  (217) 
-31.3639

>  <r_i_glide_einternal>  (217) 
0.369922

>  <r_i_glide_intrahb_reward>  (217) 
-0

>  <i_i_glide_confnum>  (217) 
1

>  <i_i_glide_posenum>  (217) 
33

>  <r_i_glide_eff_state_penalty>  (217) 
0

>  <ligand_id>  (217) 
63

>  <original_smiles>  (217) 
C=C1C=C2C3OC4CC5(C)CC4C=C5C2(O)C2CCC4C(O)C2(OC4(C)C)C1C3C

>  <smiles>  (217) 
[H]OC12C3=C([H])C(=C([H])[H])C([H])(C([H])(C([H])([H])[H])C3([H])OC3([H])C([H])([H])C4(C([H])([H])[H])C1=C([H])C3([H])C4([H])[H])C13OC(C([H])([H])[H])(C([H])([H])[H])C([H])(C([H])([H])C([H])([H])C21[H])C3([H])O[H]

$$$$
64:0:0
     RDKit          3D

 42 44  0  0  1  0  0  0  0  0999 V2000
   -2.6873    2.8348    6.9806 C   0  0  0  0  0  0  0  0  0  0  0  0
   -2.1817    2.8003    5.6094 N   0  0  0  0  0  0  0  0  0  0  0  0
   -1.1564    3.5149    5.1167 C   0  0  0  0  0  0  0  0  0  0  0  0
   -0.5833    4.3726    5.7833 O   0  0  0  0  0  0  0  0  0  0  0  0
   -0.7688    3.2586    3.6296 C   0  0  2  0  0  0  0  0  0  0  0  0
   -1.0313    1.8104    3.1638 C   0  0  0  0  0  0  0  0  0  0  0  0
    0.2578    1.0679    3.5489 C   0  0  1  0  0  0  0  0  0  0  0  0
    0.7677    0.0389    2.5341 C   0  0  0  0  0  0  0  0  0  0  0  0
    2.1929    0.2853    2.4047 N   0  0  0  0  0  0  0  0  0  0  0  0
    3.0053   -0.5008    1.5814 C   0  0  0  0  0  0  0  0  0  0  0  0
    4.1105    0.0649    1.0997 N   0  0  0  0  0  0  0  0  0  0  0  0
    4.8918   -0.6919    0.2994 C   0  0  0  0  0  0  0  0  0  0  0  0
    4.5741   -2.0237   -0.0185 C   0  0  0  0  0  0  0  0  0  0  0  0
    5.4598   -2.8854   -0.9150 C   0  0  0  0  0  0  0  0  0  0  0  0
    3.3829   -2.5112    0.5436 C   0  0  0  0  0  0  0  0  0  0  0  0
    2.6159   -1.7589    1.3582 N   0  0  0  0  0  0  0  0  0  0  0  0
    2.4525    1.6922    2.6825 C   0  0  0  0  0  0  0  0  0  0  0  0
    1.3354    2.1461    3.6343 C   0  0  1  0  0  0  0  0  0  0  0  0
    0.6702    3.4275    3.2809 N   0  0  2  0  0  0  0  0  0  0  0  0
    1.3730    4.6789    3.6625 C   0  0  0  0  0  0  0  0  0  0  0  0
   -3.7716    2.9522    6.9747 H   0  0  0  0  0  0  0  0  0  0  0  0
   -2.2503    3.6316    7.5834 H   0  0  0  0  0  0  0  0  0  0  0  0
   -2.4733    1.8850    7.4704 H   0  0  0  0  0  0  0  0  0  0  0  0
   -2.6236    2.1434    4.9883 H   0  0  0  0  0  0  0  0  0  0  0  0
   -1.3447    3.9441    3.0153 H   0  0  0  0  0  0  0  0  0  0  0  0
   -1.9202    1.3369    3.5822 H   0  0  0  0  0  0  0  0  0  0  0  0
   -1.1715    1.8203    2.0808 H   0  0  0  0  0  0  0  0  0  0  0  0
    0.1474    0.6111    4.5327 H   0  0  0  0  0  0  0  0  0  0  0  0
    0.5529   -0.9758    2.8669 H   0  0  0  0  0  0  0  0  0  0  0  0
    0.2986    0.1854    1.5617 H   0  0  0  0  0  0  0  0  0  0  0  0
    5.7886   -0.2377   -0.0865 H   0  0  0  0  0  0  0  0  0  0  0  0
    5.0410   -2.9776   -1.9174 H   0  0  0  0  0  0  0  0  0  0  0  0
    5.5674   -3.8935   -0.5128 H   0  0  0  0  0  0  0  0  0  0  0  0
    6.4615   -2.4691   -1.0213 H   0  0  0  0  0  0  0  0  0  0  0  0
    3.0581   -3.5227    0.3545 H   0  0  0  0  0  0  0  0  0  0  0  0
    3.4119    1.7873    3.1876 H   0  0  0  0  0  0  0  0  0  0  0  0
    2.4693    2.2764    1.7668 H   0  0  0  0  0  0  0  0  0  0  0  0
    1.6931    2.1988    4.6577 H   0  0  0  0  0  0  0  0  0  0  0  0
    1.6243    4.7111    4.7231 H   0  0  0  0  0  0  0  0  0  0  0  0
    0.7545    5.5445    3.4107 H   0  0  0  0  0  0  0  0  0  0  0  0
    2.3015    4.7633    3.0915 H   0  0  0  0  0  0  0  0  0  0  0  0
    0.6217    3.4771    2.2633 H   0  0  0  0  0  0  0  0  0  0  0  0
  1  2  1  0
  1 21  1  0
  1 22  1  0
  1 23  1  0
  2  3  1  0
  2 24  1  0
  3  4  2  0
  3  5  1  0
  5 19  1  0
  5  6  1  0
  5 25  1  6
  6  7  1  0
  6 26  1  0
  6 27  1  0
  7 18  1  0
  7  8  1  0
  7 28  1  1
  8  9  1  0
  8 29  1  0
  8 30  1  0
  9 10  1  0
  9 17  1  0
 10 16  1  0
 10 11  2  0
 11 12  1  0
 12 13  2  0
 12 31  1  0
 13 14  1  0
 13 15  1  0
 14 32  1  0
 14 33  1  0
 14 34  1  0
 15 16  2  0
 15 35  1  0
 17 18  1  0
 17 36  1  0
 17 37  1  0
 18 19  1  0
 18 38  1  1
 19 20  1  0
 19 42  1  6
 20 39  1  0
 20 40  1  0
 20 41  1  0
M  CHG  1  19   1
M  END
>  <i_m_ct_stereo_status>  (218) 
1

>  <s_m_source_file>  (218) 
/var/tmp/pbs.5076255.sched01/tmprva83imr/861x3d95ot.sdf

>  <i_m_source_file_index>  (218) 
3

>  <i_lp_mmshare_version>  (218) 
48012

>  <i_f3d_flags>  (218) 
0

>  <s_epik_input>  (218) 
W0NIM11bTkhdQyg9TylbQ0BIXShbQ0gyXTEpTihbQ0gzXSlbQ0BASF0oW0NAQEhdMTIpW0NIMl1OKFtDSDJdMiljM25bY0hdYyhbQ0gzXSlbY0hdbjM=

>  <s_epik_cmdline>  (218) 
J2VwaWtfcHl0aG9uJywgJy1waHQnLCAnMi4wJywgJy1waCcsICc3LjAnLCAnLXRuJywgJzgnLCAnLW1hJywgJzIwMCcsICctaW1hZScsICc8aW5maWxlLm1hZT4nLCAnLW9tYWUnLCAnPG91dGZpbGUubWFlPic=

>  <r_lp_tautomer_probability>  (218) 
1

>  <r_epik_Ionization_Penalty>  (218) 
0.0238919

>  <r_epik_Ionization_Penalty_Charging>  (218) 
0.0234654

>  <r_epik_Ionization_Penalty_Neutral>  (218) 
0.000426495

>  <r_epik_State_Penalty>  (218) 
0.0189929

>  <r_epik_Charging_Adjusted_Penalty>  (218) 
0.0424583

>  <i_epik_Tot_Q>  (218) 
1

>  <i_epik_Tot_abs_Q>  (218) 
1

>  <s_lp_Force_Field>  (218) 
OPLS3e

>  <r_lp_Energy>  (218) 
14.3386

>  <b_lp_Chiralities_Consistent>  (218) 
1

>  <s_lp_Variant>  (218) 
64:0-1

>  <s_i_glide_gridfile>  (218) 
pfpi4k_grid

>  <i_i_glide_lignum>  (218) 
3

>  <i_i_glide_rotatable_bonds>  (218) 
3

>  <r_i_docking_score>  (218) 
-3.54744

>  <r_i_glide_ligand_efficiency>  (218) 
-0.177372

>  <r_i_glide_ligand_efficiency_sa>  (218) 
-0.481462

>  <r_i_glide_ligand_efficiency_ln>  (218) 
-0.887807

>  <r_i_glide_gscore>  (218) 
-3.54744

>  <r_i_glide_lipo>  (218) 
-0.293055

>  <r_i_glide_hbond>  (218) 
-0.2

>  <r_i_glide_metal>  (218) 
-0

>  <r_i_glide_rewards>  (218) 
-1.52484

>  <r_i_glide_evdw>  (218) 
-22.1381

>  <r_i_glide_ecoul>  (218) 
-4.83169

>  <r_i_glide_erotb>  (218) 
0.471112

>  <r_i_glide_esite>  (218) 
-0.169001

>  <r_i_glide_emodel>  (218) 
-32.9544

>  <r_i_glide_energy>  (218) 
-26.9698

>  <r_i_glide_einternal>  (218) 
2.86279

>  <r_i_glide_intrahb_reward>  (218) 
-0

>  <i_i_glide_confnum>  (218) 
1

>  <i_i_glide_posenum>  (218) 
18

>  <r_i_glide_eff_state_penalty>  (218) 
0

>  <ligand_id>  (218) 
64

>  <original_smiles>  (218) 
CNC(=O)C1CC2CN(c3ncc(C)cn3)CC2N1C

>  <smiles>  (218) 
[H]c1nc(N2C([H])([H])C3([H])C([H])([H])C([H])(C(=O)N([H])C([H])([H])[H])[N+]([H])(C([H])([H])[H])C3([H])C2([H])[H])nc([H])c1C([H])([H])[H]

$$$$
64:0:1
     RDKit          3D

 42 44  0  0  1  0  0  0  0  0999 V2000
   -3.4048    3.0515    2.4232 C   0  0  0  0  0  0  0  0  0  0  0  0
   -2.1342    2.6334    2.9795 N   0  0  0  0  0  0  0  0  0  0  0  0
   -1.2133    3.3808    3.6039 C   0  0  0  0  0  0  0  0  0  0  0  0
   -1.3541    4.5885    3.7967 O   0  0  0  0  0  0  0  0  0  0  0  0
    0.0489    2.6615    4.1403 C   0  0  2  0  0  0  0  0  0  0  0  0
    1.2661    2.8868    3.2364 C   0  0  0  0  0  0  0  0  0  0  0  0
    1.1826    1.7373    2.2115 C   0  0  1  0  0  0  0  0  0  0  0  0
    2.5037    1.0396    1.8717 C   0  0  0  0  0  0  0  0  0  0  0  0
    2.2294   -0.3877    1.9259 N   0  0  0  0  0  0  0  0  0  0  0  0
    3.1588   -1.3549    1.5535 C   0  0  0  0  0  0  0  0  0  0  0  0
    2.8410   -2.6371    1.7954 N   0  0  0  0  0  0  0  0  0  0  0  0
    3.7583   -3.5672    1.4686 C   0  0  0  0  0  0  0  0  0  0  0  0
    5.0093   -3.2327    0.9134 C   0  0  0  0  0  0  0  0  0  0  0  0
    6.0515   -4.2842    0.5534 C   0  0  0  0  0  0  0  0  0  0  0  0
    5.2340   -1.8555    0.7148 C   0  0  0  0  0  0  0  0  0  0  0  0
    4.3128   -0.9275    1.0355 N   0  0  0  0  0  0  0  0  0  0  0  0
    1.1335   -0.6348    2.8477 C   0  0  0  0  0  0  0  0  0  0  0  0
    0.3117    0.6601    2.8642 C   0  0  1  0  0  0  0  0  0  0  0  0
   -0.0085    1.1737    4.2203 N   0  0  2  0  0  0  0  0  0  0  0  0
   -1.1503    0.5504    4.9477 C   0  0  0  0  0  0  0  0  0  0  0  0
   -3.4874    2.6639    1.4068 H   0  0  0  0  0  0  0  0  0  0  0  0
   -3.5547    4.1319    2.4226 H   0  0  0  0  0  0  0  0  0  0  0  0
   -4.1893    2.5733    3.0104 H   0  0  0  0  0  0  0  0  0  0  0  0
   -1.9620    1.6434    2.8910 H   0  0  0  0  0  0  0  0  0  0  0  0
    0.2585    3.0695    5.1274 H   0  0  0  0  0  0  0  0  0  0  0  0
    1.2791    3.8771    2.7832 H   0  0  0  0  0  0  0  0  0  0  0  0
    2.1680    2.7926    3.8414 H   0  0  0  0  0  0  0  0  0  0  0  0
    0.6778    2.0890    1.3120 H   0  0  0  0  0  0  0  0  0  0  0  0
    2.8515    1.3302    0.8868 H   0  0  0  0  0  0  0  0  0  0  0  0
    3.2857    1.2744    2.5930 H   0  0  0  0  0  0  0  0  0  0  0  0
    3.4971   -4.5958    1.6617 H   0  0  0  0  0  0  0  0  0  0  0  0
    6.8456   -4.3267    1.2989 H   0  0  0  0  0  0  0  0  0  0  0  0
    6.5142   -4.0720   -0.4105 H   0  0  0  0  0  0  0  0  0  0  0  0
    5.6154   -5.2818    0.4945 H   0  0  0  0  0  0  0  0  0  0  0  0
    6.1658   -1.5053    0.3024 H   0  0  0  0  0  0  0  0  0  0  0  0
    0.5178   -1.4487    2.4738 H   0  0  0  0  0  0  0  0  0  0  0  0
    1.5229   -0.8993    3.8288 H   0  0  0  0  0  0  0  0  0  0  0  0
   -0.5868    0.5380    2.2660 H   0  0  0  0  0  0  0  0  0  0  0  0
   -2.0833    0.5434    4.3852 H   0  0  0  0  0  0  0  0  0  0  0  0
   -1.3257    1.0763    5.8881 H   0  0  0  0  0  0  0  0  0  0  0  0
   -0.9039   -0.4856    5.1786 H   0  0  0  0  0  0  0  0  0  0  0  0
    0.8227    0.9581    4.7627 H   0  0  0  0  0  0  0  0  0  0  0  0
  1  2  1  0
  1 21  1  0
  1 22  1  0
  1 23  1  0
  2  3  1  0
  2 24  1  0
  3  4  2  0
  3  5  1  0
  5 19  1  0
  5  6  1  0
  5 25  1  1
  6  7  1  0
  6 26  1  0
  6 27  1  0
  7 18  1  0
  7  8  1  0
  7 28  1  6
  8  9  1  0
  8 29  1  0
  8 30  1  0
  9 10  1  0
  9 17  1  0
 10 16  1  0
 10 11  2  0
 11 12  1  0
 12 13  2  0
 12 31  1  0
 13 14  1  0
 13 15  1  0
 14 32  1  0
 14 33  1  0
 14 34  1  0
 15 16  2  0
 15 35  1  0
 17 18  1  0
 17 36  1  0
 17 37  1  0
 18 19  1  0
 18 38  1  6
 19 20  1  0
 19 42  1  1
 20 39  1  0
 20 40  1  0
 20 41  1  0
M  CHG  1  19   1
M  END
>  <i_m_ct_stereo_status>  (219) 
1

>  <s_m_source_file>  (219) 
/var/tmp/pbs.5076255.sched01/tmprva83imr/861x3d95ot.sdf

>  <i_m_source_file_index>  (219) 
3

>  <i_lp_mmshare_version>  (219) 
48012

>  <i_f3d_flags>  (219) 
0

>  <s_epik_input>  (219) 
W0NIM11bTkhdQyg9TylbQ0BIXShbQ0gyXTEpTihbQ0gzXSlbQ0BASF0oW0NAQEhdMTIpW0NIMl1OKFtDSDJdMiljM25bY0hdYyhbQ0gzXSlbY0hdbjM=

>  <s_epik_cmdline>  (219) 
J2VwaWtfcHl0aG9uJywgJy1waHQnLCAnMi4wJywgJy1waCcsICc3LjAnLCAnLXRuJywgJzgnLCAnLW1hJywgJzIwMCcsICctaW1hZScsICc8aW5maWxlLm1hZT4nLCAnLW9tYWUnLCAnPG91dGZpbGUubWFlPic=

>  <r_lp_tautomer_probability>  (219) 
1

>  <r_epik_Ionization_Penalty>  (219) 
0.0238919

>  <r_epik_Ionization_Penalty_Charging>  (219) 
0.0234654

>  <r_epik_Ionization_Penalty_Neutral>  (219) 
0.000426495

>  <r_epik_State_Penalty>  (219) 
0.0189929

>  <r_epik_Charging_Adjusted_Penalty>  (219) 
0.0424583

>  <i_epik_Tot_Q>  (219) 
1

>  <i_epik_Tot_abs_Q>  (219) 
1

>  <s_lp_Force_Field>  (219) 
OPLS3e

>  <r_lp_Energy>  (219) 
14.3386

>  <b_lp_Chiralities_Consistent>  (219) 
1

>  <s_lp_Variant>  (219) 
64:0-1

>  <s_i_glide_gridfile>  (219) 
pfpi4k_grid

>  <i_i_glide_lignum>  (219) 
3

>  <i_i_glide_rotatable_bonds>  (219) 
3

>  <r_i_docking_score>  (219) 
-3.38611

>  <r_i_glide_ligand_efficiency>  (219) 
-0.169305

>  <r_i_glide_ligand_efficiency_sa>  (219) 
-0.459565

>  <r_i_glide_ligand_efficiency_ln>  (219) 
-0.847431

>  <r_i_glide_gscore>  (219) 
-3.38611

>  <r_i_glide_lipo>  (219) 
-0.201262

>  <r_i_glide_hbond>  (219) 
-0.145687

>  <r_i_glide_metal>  (219) 
-0

>  <r_i_glide_rewards>  (219) 
-1.52484

>  <r_i_glide_evdw>  (219) 
-22.0409

>  <r_i_glide_ecoul>  (219) 
-4.5099

>  <r_i_glide_erotb>  (219) 
0.471112

>  <r_i_glide_esite>  (219) 
-0.206904

>  <r_i_glide_emodel>  (219) 
-32.6754

>  <r_i_glide_energy>  (219) 
-26.5508

>  <r_i_glide_einternal>  (219) 
1.74857

>  <r_i_glide_intrahb_reward>  (219) 
-0

>  <i_i_glide_confnum>  (219) 
2

>  <i_i_glide_posenum>  (219) 
1

>  <r_i_glide_eff_state_penalty>  (219) 
0

>  <ligand_id>  (219) 
64

>  <original_smiles>  (219) 
CNC(=O)C1CC2CN(c3ncc(C)cn3)CC2N1C

>  <smiles>  (219) 
[H]c1nc(N2C([H])([H])C3([H])C([H])([H])C([H])(C(=O)N([H])C([H])([H])[H])[N+]([H])(C([H])([H])[H])C3([H])C2([H])[H])nc([H])c1C([H])([H])[H]

$$$$
64:0:2
     RDKit          3D

 42 44  0  0  1  0  0  0  0  0999 V2000
   -0.6005    3.3834    6.9066 C   0  0  0  0  0  0  0  0  0  0  0  0
   -0.3625    3.1074    5.5009 N   0  0  0  0  0  0  0  0  0  0  0  0
   -1.2588    2.9174    4.5178 C   0  0  0  0  0  0  0  0  0  0  0  0
   -2.4740    2.9604    4.6970 O   0  0  0  0  0  0  0  0  0  0  0  0
   -0.7084    2.6626    3.0940 C   0  0  2  0  0  0  0  0  0  0  0  0
   -0.8566    1.1883    2.7008 C   0  0  0  0  0  0  0  0  0  0  0  0
    0.4469    0.5379    3.2136 C   0  0  1  0  0  0  0  0  0  0  0  0
    1.1193   -0.4818    2.2887 C   0  0  0  0  0  0  0  0  0  0  0  0
    2.5351   -0.1458    2.2776 N   0  0  0  0  0  0  0  0  0  0  0  0
    3.4798   -0.8830    1.5605 C   0  0  0  0  0  0  0  0  0  0  0  0
    4.6665   -0.3099    1.3351 N   0  0  0  0  0  0  0  0  0  0  0  0
    5.5844   -1.0328    0.6604 C   0  0  0  0  0  0  0  0  0  0  0  0
    5.3182   -2.3336    0.1886 C   0  0  0  0  0  0  0  0  0  0  0  0
    6.3486   -3.1543   -0.5796 C   0  0  0  0  0  0  0  0  0  0  0  0
    4.0317   -2.8297    0.4741 C   0  0  0  0  0  0  0  0  0  0  0  0
    3.1251   -2.1116    1.1680 N   0  0  0  0  0  0  0  0  0  0  0  0
    2.6824    1.2793    2.5405 C   0  0  0  0  0  0  0  0  0  0  0  0
    1.4473    1.6811    3.3498 C   0  0  1  0  0  0  0  0  0  0  0  0
    0.7464    2.9065    2.8855 N   0  0  2  0  0  0  0  0  0  0  0  0
    1.3166    4.2321    3.2691 C   0  0  0  0  0  0  0  0  0  0  0  0
   -0.0180    2.6749    7.5001 H   0  0  0  0  0  0  0  0  0  0  0  0
   -1.6524    3.3085    7.1904 H   0  0  0  0  0  0  0  0  0  0  0  0
   -0.2355    4.3865    7.1386 H   0  0  0  0  0  0  0  0  0  0  0  0
    0.6116    3.0942    5.2341 H   0  0  0  0  0  0  0  0  0  0  0  0
   -1.2916    3.2853    2.4179 H   0  0  0  0  0  0  0  0  0  0  0  0
   -1.7591    0.7346    3.1057 H   0  0  0  0  0  0  0  0  0  0  0  0
   -0.9166    1.1316    1.6130 H   0  0  0  0  0  0  0  0  0  0  0  0
    0.2700    0.1022    4.1964 H   0  0  0  0  0  0  0  0  0  0  0  0
    0.9476   -1.5033    2.6328 H   0  0  0  0  0  0  0  0  0  0  0  0
    0.7323   -0.3892    1.2767 H   0  0  0  0  0  0  0  0  0  0  0  0
    6.5420   -0.5702    0.4923 H   0  0  0  0  0  0  0  0  0  0  0  0
    6.1320   -3.1654   -1.6486 H   0  0  0  0  0  0  0  0  0  0  0  0
    6.3619   -4.1913   -0.2396 H   0  0  0  0  0  0  0  0  0  0  0  0
    7.3575   -2.7587   -0.4585 H   0  0  0  0  0  0  0  0  0  0  0  0
    3.7400   -3.8160    0.1526 H   0  0  0  0  0  0  0  0  0  0  0  0
    3.5756    1.4591    3.1345 H   0  0  0  0  0  0  0  0  0  0  0  0
    2.7455    1.8415    1.6165 H   0  0  0  0  0  0  0  0  0  0  0  0
    1.7204    1.7777    4.3970 H   0  0  0  0  0  0  0  0  0  0  0  0
    1.4810    4.3556    4.3407 H   0  0  0  0  0  0  0  0  0  0  0  0
    0.6543    5.0298    2.9220 H   0  0  0  0  0  0  0  0  0  0  0  0
    2.2775    4.3627    2.7685 H   0  0  0  0  0  0  0  0  0  0  0  0
    0.7835    2.9192    1.8682 H   0  0  0  0  0  0  0  0  0  0  0  0
  1  2  1  0
  1 21  1  0
  1 22  1  0
  1 23  1  0
  2  3  1  0
  2 24  1  0
  3  4  2  0
  3  5  1  0
  5 19  1  0
  5  6  1  0
  5 25  1  6
  6  7  1  0
  6 26  1  0
  6 27  1  0
  7 18  1  0
  7  8  1  0
  7 28  1  1
  8  9  1  0
  8 29  1  0
  8 30  1  0
  9 10  1  0
  9 17  1  0
 10 16  1  0
 10 11  2  0
 11 12  1  0
 12 13  2  0
 12 31  1  0
 13 14  1  0
 13 15  1  0
 14 32  1  0
 14 33  1  0
 14 34  1  0
 15 16  2  0
 15 35  1  0
 17 18  1  0
 17 36  1  0
 17 37  1  0
 18 19  1  0
 18 38  1  1
 19 20  1  0
 19 42  1  6
 20 39  1  0
 20 40  1  0
 20 41  1  0
M  CHG  1  19   1
M  END
>  <i_m_ct_stereo_status>  (220) 
1

>  <s_m_source_file>  (220) 
/var/tmp/pbs.5076255.sched01/tmprva83imr/861x3d95ot.sdf

>  <i_m_source_file_index>  (220) 
3

>  <i_lp_mmshare_version>  (220) 
48012

>  <i_f3d_flags>  (220) 
0

>  <s_epik_input>  (220) 
W0NIM11bTkhdQyg9TylbQ0BIXShbQ0gyXTEpTihbQ0gzXSlbQ0BASF0oW0NAQEhdMTIpW0NIMl1OKFtDSDJdMiljM25bY0hdYyhbQ0gzXSlbY0hdbjM=

>  <s_epik_cmdline>  (220) 
J2VwaWtfcHl0aG9uJywgJy1waHQnLCAnMi4wJywgJy1waCcsICc3LjAnLCAnLXRuJywgJzgnLCAnLW1hJywgJzIwMCcsICctaW1hZScsICc8aW5maWxlLm1hZT4nLCAnLW9tYWUnLCAnPG91dGZpbGUubWFlPic=

>  <r_lp_tautomer_probability>  (220) 
1

>  <r_epik_Ionization_Penalty>  (220) 
0.0238919

>  <r_epik_Ionization_Penalty_Charging>  (220) 
0.0234654

>  <r_epik_Ionization_Penalty_Neutral>  (220) 
0.000426495

>  <r_epik_State_Penalty>  (220) 
0.0189929

>  <r_epik_Charging_Adjusted_Penalty>  (220) 
0.0424583

>  <i_epik_Tot_Q>  (220) 
1

>  <i_epik_Tot_abs_Q>  (220) 
1

>  <s_lp_Force_Field>  (220) 
OPLS3e

>  <r_lp_Energy>  (220) 
14.3386

>  <b_lp_Chiralities_Consistent>  (220) 
1

>  <s_lp_Variant>  (220) 
64:0-1

>  <s_i_glide_gridfile>  (220) 
pfpi4k_grid

>  <i_i_glide_lignum>  (220) 
3

>  <i_i_glide_rotatable_bonds>  (220) 
3

>  <r_i_docking_score>  (220) 
-3.37801

>  <r_i_glide_ligand_efficiency>  (220) 
-0.1689

>  <r_i_glide_ligand_efficiency_sa>  (220) 
-0.458466

>  <r_i_glide_ligand_efficiency_ln>  (220) 
-0.845403

>  <r_i_glide_gscore>  (220) 
-3.37801

>  <r_i_glide_lipo>  (220) 
-0.204074

>  <r_i_glide_hbond>  (220) 
-0.103531

>  <r_i_glide_metal>  (220) 
-0

>  <r_i_glide_rewards>  (220) 
-1.52484

>  <r_i_glide_evdw>  (220) 
-21.0099

>  <r_i_glide_ecoul>  (220) 
-5.37537

>  <r_i_glide_erotb>  (220) 
0.471112

>  <r_i_glide_esite>  (220) 
-0.159874

>  <r_i_glide_emodel>  (220) 
-32.4876

>  <r_i_glide_energy>  (220) 
-26.3853

>  <r_i_glide_einternal>  (220) 
1.65425

>  <r_i_glide_intrahb_reward>  (220) 
-0

>  <i_i_glide_confnum>  (220) 
1

>  <i_i_glide_posenum>  (220) 
31

>  <r_i_glide_eff_state_penalty>  (220) 
0

>  <ligand_id>  (220) 
64

>  <original_smiles>  (220) 
CNC(=O)C1CC2CN(c3ncc(C)cn3)CC2N1C

>  <smiles>  (220) 
[H]c1nc(N2C([H])([H])C3([H])C([H])([H])C([H])(C(=O)N([H])C([H])([H])[H])[N+]([H])(C([H])([H])[H])C3([H])C2([H])[H])nc([H])c1C([H])([H])[H]

$$$$
64:1:0
     RDKit          3D

 41 43  0  0  1  0  0  0  0  0999 V2000
    9.0248   -2.5794   -0.3559 C   0  0  0  0  0  0  0  0  0  0  0  0
    7.8971   -2.9489    0.4776 N   0  0  0  0  0  0  0  0  0  0  0  0
    6.6308   -2.5910    0.2441 C   0  0  0  0  0  0  0  0  0  0  0  0
    6.3290   -1.7972   -0.6518 O   0  0  0  0  0  0  0  0  0  0  0  0
    5.5809   -3.2215    1.1918 C   0  0  2  0  0  0  0  0  0  0  0  0
    5.7514   -4.7470    1.3134 C   0  0  0  0  0  0  0  0  0  0  0  0
    4.8360   -5.3004    0.2276 C   0  0  1  0  0  0  0  0  0  0  0  0
    4.0162   -6.5283    0.6195 C   0  0  0  0  0  0  0  0  0  0  0  0
    2.6760   -6.0438    0.9115 N   0  0  0  0  0  0  0  0  0  0  0  0
    1.6735   -6.8199    1.4844 C   0  0  0  0  0  0  0  0  0  0  0  0
    2.0350   -8.0074    1.9878 N   0  0  0  0  0  0  0  0  0  0  0  0
    1.0699   -8.7697    2.5386 C   0  0  0  0  0  0  0  0  0  0  0  0
   -0.2685   -8.3402    2.6004 C   0  0  0  0  0  0  0  0  0  0  0  0
   -1.3700   -9.1763    3.2255 C   0  0  0  0  0  0  0  0  0  0  0  0
   -0.5294   -7.0797    2.0452 C   0  0  0  0  0  0  0  0  0  0  0  0
    0.4319   -6.3151    1.4866 N   0  0  0  0  0  0  0  0  0  0  0  0
    2.4386   -4.7852    0.2229 C   0  0  0  0  0  0  0  0  0  0  0  0
    3.8246   -4.1841   -0.0642 C   0  0  1  0  0  0  0  0  0  0  0  0
    4.1548   -3.0867    0.8428 N   0  0  0  0  0  0  0  0  0  0  0  0
    3.6179   -1.7787    0.4616 C   0  0  0  0  0  0  0  0  0  0  0  0
    9.8142   -2.1512    0.2577 H   0  0  0  0  0  0  0  0  0  0  0  0
    8.7873   -1.8614   -1.1398 H   0  0  0  0  0  0  0  0  0  0  0  0
    9.4104   -3.4685   -0.8471 H   0  0  0  0  0  0  0  0  0  0  0  0
    8.0835   -3.5712    1.2484 H   0  0  0  0  0  0  0  0  0  0  0  0
    5.7278   -2.7678    2.1684 H   0  0  0  0  0  0  0  0  0  0  0  0
    6.7707   -5.1274    1.1951 H   0  0  0  0  0  0  0  0  0  0  0  0
    5.4095   -5.0760    2.2943 H   0  0  0  0  0  0  0  0  0  0  0  0
    5.4158   -5.5094   -0.6706 H   0  0  0  0  0  0  0  0  0  0  0  0
    3.9784   -7.2119   -0.2227 H   0  0  0  0  0  0  0  0  0  0  0  0
    4.4560   -7.0717    1.4542 H   0  0  0  0  0  0  0  0  0  0  0  0
    1.3704   -9.7273    2.9413 H   0  0  0  0  0  0  0  0  0  0  0  0
   -1.5866   -8.8530    4.2430 H   0  0  0  0  0  0  0  0  0  0  0  0
   -1.0754  -10.2239    3.2717 H   0  0  0  0  0  0  0  0  0  0  0  0
   -2.2949   -9.1126    2.6520 H   0  0  0  0  0  0  0  0  0  0  0  0
   -1.5264   -6.6697    2.0800 H   0  0  0  0  0  0  0  0  0  0  0  0
    1.9254   -5.0033   -0.7131 H   0  0  0  0  0  0  0  0  0  0  0  0
    1.8163   -4.1040    0.7970 H   0  0  0  0  0  0  0  0  0  0  0  0
    3.9109   -3.8508   -1.1015 H   0  0  0  0  0  0  0  0  0  0  0  0
    2.5315   -1.8220    0.3970 H   0  0  0  0  0  0  0  0  0  0  0  0
    3.9738   -1.4217   -0.5036 H   0  0  0  0  0  0  0  0  0  0  0  0
    3.8693   -1.0421    1.2249 H   0  0  0  0  0  0  0  0  0  0  0  0
  1  2  1  0
  1 21  1  0
  1 22  1  0
  1 23  1  0
  2  3  1  0
  2 24  1  0
  3  4  2  0
  3  5  1  0
  5 19  1  0
  5  6  1  0
  5 25  1  1
  6  7  1  0
  6 26  1  0
  6 27  1  0
  7 18  1  0
  7  8  1  0
  7 28  1  6
  8  9  1  0
  8 29  1  0
  8 30  1  0
  9 10  1  0
  9 17  1  0
 10 16  1  0
 10 11  2  0
 11 12  1  0
 12 13  2  0
 12 31  1  0
 13 14  1  0
 13 15  1  0
 14 32  1  0
 14 33  1  0
 14 34  1  0
 15 16  2  0
 15 35  1  0
 17 18  1  0
 17 36  1  0
 17 37  1  0
 18 19  1  0
 18 38  1  6
 19 20  1  0
 20 39  1  0
 20 40  1  0
 20 41  1  0
M  END
>  <i_m_ct_stereo_status>  (221) 
1

>  <s_m_source_file>  (221) 
/var/tmp/pbs.5076255.sched01/tmprva83imr/861x3d95ot.sdf

>  <i_m_source_file_index>  (221) 
4

>  <i_lp_mmshare_version>  (221) 
48012

>  <i_f3d_flags>  (221) 
0

>  <s_epik_input>  (221) 
W0NIM11bTkhdQyg9TylbQ0BIXShbQ0gyXTEpTihbQ0gzXSlbQ0BASF0oW0NAQEhdMTIpW0NIMl1OKFtDSDJdMiljM25bY0hdYyhbQ0gzXSlbY0hdbjM=

>  <s_epik_cmdline>  (221) 
J2VwaWtfcHl0aG9uJywgJy1waHQnLCAnMi4wJywgJy1waCcsICc3LjAnLCAnLXRuJywgJzgnLCAnLW1hJywgJzIwMCcsICctaW1hZScsICc8aW5maWxlLm1hZT4nLCAnLW9tYWUnLCAnPG91dGZpbGUubWFlPic=

>  <r_lp_tautomer_probability>  (221) 
1

>  <r_epik_Ionization_Penalty>  (221) 
1.92605

>  <r_epik_Ionization_Penalty_Charging>  (221) 
0

>  <r_epik_Ionization_Penalty_Neutral>  (221) 
1.92605

>  <r_epik_State_Penalty>  (221) 
2.04778

>  <r_epik_Charging_Adjusted_Penalty>  (221) 
2.04778

>  <i_epik_Tot_Q>  (221) 
0

>  <i_epik_Tot_abs_Q>  (221) 
0

>  <s_lp_Force_Field>  (221) 
OPLS3e

>  <r_lp_Energy>  (221) 
13.7393

>  <b_lp_Chiralities_Consistent>  (221) 
1

>  <s_lp_Variant>  (221) 
64:0-2

>  <s_i_glide_gridfile>  (221) 
pfpi4k_grid

>  <i_i_glide_lignum>  (221) 
4

>  <i_i_glide_rotatable_bonds>  (221) 
3

>  <r_i_docking_score>  (221) 
-3.72387

>  <r_i_glide_ligand_efficiency>  (221) 
-0.186193

>  <r_i_glide_ligand_efficiency_sa>  (221) 
-0.505407

>  <r_i_glide_ligand_efficiency_ln>  (221) 
-0.931962

>  <r_i_glide_gscore>  (221) 
-3.72387

>  <r_i_glide_lipo>  (221) 
-0.301248

>  <r_i_glide_hbond>  (221) 
-0.287385

>  <r_i_glide_metal>  (221) 
-0

>  <r_i_glide_rewards>  (221) 
-1.63572

>  <r_i_glide_evdw>  (221) 
-23.3731

>  <r_i_glide_ecoul>  (221) 
-4.98041

>  <r_i_glide_erotb>  (221) 
0.474107

>  <r_i_glide_esite>  (221) 
-0.0579043

>  <r_i_glide_emodel>  (221) 
-34.1011

>  <r_i_glide_energy>  (221) 
-28.3535

>  <r_i_glide_einternal>  (221) 
2.34958

>  <r_i_glide_intrahb_reward>  (221) 
-0

>  <i_i_glide_confnum>  (221) 
6

>  <i_i_glide_posenum>  (221) 
40

>  <r_i_glide_eff_state_penalty>  (221) 
0

>  <ligand_id>  (221) 
64

>  <original_smiles>  (221) 
CNC(=O)C1CC2CN(c3ncc(C)cn3)CC2N1C

>  <smiles>  (221) 
[H]c1nc(N2C([H])([H])C3([H])N(C([H])([H])[H])C([H])(C(=O)N([H])C([H])([H])[H])C([H])([H])C3([H])C2([H])[H])nc([H])c1C([H])([H])[H]

$$$$
64:1:1
     RDKit          3D

 41 43  0  0  1  0  0  0  0  0999 V2000
    7.9600   -2.6652   -1.8309 C   0  0  0  0  0  0  0  0  0  0  0  0
    6.9373   -3.0263   -0.8656 N   0  0  0  0  0  0  0  0  0  0  0  0
    6.7500   -2.4571    0.3326 C   0  0  0  0  0  0  0  0  0  0  0  0
    7.3666   -1.4607    0.7067 O   0  0  0  0  0  0  0  0  0  0  0  0
    5.7166   -3.1309    1.2610 C   0  0  2  0  0  0  0  0  0  0  0  0
    5.9500   -4.6388    1.4139 C   0  0  0  0  0  0  0  0  0  0  0  0
    5.0705   -5.2562    0.3211 C   0  0  1  0  0  0  0  0  0  0  0  0
    4.2596   -6.4890    0.7184 C   0  0  0  0  0  0  0  0  0  0  0  0
    2.9039   -6.0265    0.9673 N   0  0  0  0  0  0  0  0  0  0  0  0
    1.8994   -6.8356    1.4808 C   0  0  0  0  0  0  0  0  0  0  0  0
    0.6401   -6.3848    1.4069 N   0  0  0  0  0  0  0  0  0  0  0  0
   -0.3217   -7.1941    1.9088 C   0  0  0  0  0  0  0  0  0  0  0  0
   -0.0343   -8.4389    2.4793 C   0  0  0  0  0  0  0  0  0  0  0  0
   -1.1198   -9.3495    3.0176 C   0  0  0  0  0  0  0  0  0  0  0  0
    1.3199   -8.8183    2.4889 C   0  0  0  0  0  0  0  0  0  0  0  0
    2.2781   -8.0094    1.9943 N   0  0  0  0  0  0  0  0  0  0  0  0
    2.6564   -4.7966    0.2365 C   0  0  0  0  0  0  0  0  0  0  0  0
    4.0370   -4.1780   -0.0314 C   0  0  1  0  0  0  0  0  0  0  0  0
    4.3057   -3.0457    0.8561 N   0  0  0  0  0  0  0  0  0  0  0  0
    3.8071   -1.7571    0.3936 C   0  0  0  0  0  0  0  0  0  0  0  0
    8.5275   -3.5505   -2.1079 H   0  0  0  0  0  0  0  0  0  0  0  0
    8.6768   -1.9317   -1.4621 H   0  0  0  0  0  0  0  0  0  0  0  0
    7.4706   -2.2753   -2.7090 H   0  0  0  0  0  0  0  0  0  0  0  0
    6.3568   -3.8215   -1.0823 H   0  0  0  0  0  0  0  0  0  0  0  0
    5.8179   -2.6554    2.2334 H   0  0  0  0  0  0  0  0  0  0  0  0
    7.0004   -4.9275    1.3204 H   0  0  0  0  0  0  0  0  0  0  0  0
    5.6125   -4.9618    2.3953 H   0  0  0  0  0  0  0  0  0  0  0  0
    5.6816   -5.4963   -0.5492 H   0  0  0  0  0  0  0  0  0  0  0  0
    4.2388   -7.2034   -0.1035 H   0  0  0  0  0  0  0  0  0  0  0  0
    4.6924   -7.0042    1.5747 H   0  0  0  0  0  0  0  0  0  0  0  0
   -1.3352   -6.8260    1.8659 H   0  0  0  0  0  0  0  0  0  0  0  0
   -1.3847  -10.1164    2.2883 H   0  0  0  0  0  0  0  0  0  0  0  0
   -2.0291   -8.8013    3.2623 H   0  0  0  0  0  0  0  0  0  0  0  0
   -0.7713   -9.8508    3.9160 H   0  0  0  0  0  0  0  0  0  0  0  0
    1.6376   -9.7647    2.8995 H   0  0  0  0  0  0  0  0  0  0  0  0
    2.1717   -5.0491   -0.7053 H   0  0  0  0  0  0  0  0  0  0  0  0
    2.0068   -4.1097    0.7702 H   0  0  0  0  0  0  0  0  0  0  0  0
    4.1363   -3.8776   -1.0781 H   0  0  0  0  0  0  0  0  0  0  0  0
    2.7258   -1.7951    0.2370 H   0  0  0  0  0  0  0  0  0  0  0  0
    4.2667   -1.4270   -0.5381 H   0  0  0  0  0  0  0  0  0  0  0  0
    3.9936   -0.9982    1.1532 H   0  0  0  0  0  0  0  0  0  0  0  0
  1  2  1  0
  1 21  1  0
  1 22  1  0
  1 23  1  0
  2  3  1  0
  2 24  1  0
  3  4  2  0
  3  5  1  0
  5 19  1  0
  5  6  1  0
  5 25  1  1
  6  7  1  0
  6 26  1  0
  6 27  1  0
  7 18  1  0
  7  8  1  0
  7 28  1  6
  8  9  1  0
  8 29  1  0
  8 30  1  0
  9 10  1  0
  9 17  1  0
 10 16  1  0
 10 11  2  0
 11 12  1  0
 12 13  2  0
 12 31  1  0
 13 14  1  0
 13 15  1  0
 14 32  1  0
 14 33  1  0
 14 34  1  0
 15 16  2  0
 15 35  1  0
 17 18  1  0
 17 36  1  0
 17 37  1  0
 18 19  1  0
 18 38  1  6
 19 20  1  0
 20 39  1  0
 20 40  1  0
 20 41  1  0
M  END
>  <i_m_ct_stereo_status>  (222) 
1

>  <s_m_source_file>  (222) 
/var/tmp/pbs.5076255.sched01/tmprva83imr/861x3d95ot.sdf

>  <i_m_source_file_index>  (222) 
4

>  <i_lp_mmshare_version>  (222) 
48012

>  <i_f3d_flags>  (222) 
0

>  <s_epik_input>  (222) 
W0NIM11bTkhdQyg9TylbQ0BIXShbQ0gyXTEpTihbQ0gzXSlbQ0BASF0oW0NAQEhdMTIpW0NIMl1OKFtDSDJdMiljM25bY0hdYyhbQ0gzXSlbY0hdbjM=

>  <s_epik_cmdline>  (222) 
J2VwaWtfcHl0aG9uJywgJy1waHQnLCAnMi4wJywgJy1waCcsICc3LjAnLCAnLXRuJywgJzgnLCAnLW1hJywgJzIwMCcsICctaW1hZScsICc8aW5maWxlLm1hZT4nLCAnLW9tYWUnLCAnPG91dGZpbGUubWFlPic=

>  <r_lp_tautomer_probability>  (222) 
1

>  <r_epik_Ionization_Penalty>  (222) 
1.92605

>  <r_epik_Ionization_Penalty_Charging>  (222) 
0

>  <r_epik_Ionization_Penalty_Neutral>  (222) 
1.92605

>  <r_epik_State_Penalty>  (222) 
2.04778

>  <r_epik_Charging_Adjusted_Penalty>  (222) 
2.04778

>  <i_epik_Tot_Q>  (222) 
0

>  <i_epik_Tot_abs_Q>  (222) 
0

>  <s_lp_Force_Field>  (222) 
OPLS3e

>  <r_lp_Energy>  (222) 
13.7393

>  <b_lp_Chiralities_Consistent>  (222) 
1

>  <s_lp_Variant>  (222) 
64:0-2

>  <s_i_glide_gridfile>  (222) 
pfpi4k_grid

>  <i_i_glide_lignum>  (222) 
4

>  <i_i_glide_rotatable_bonds>  (222) 
3

>  <r_i_docking_score>  (222) 
-3.54528

>  <r_i_glide_ligand_efficiency>  (222) 
-0.177264

>  <r_i_glide_ligand_efficiency_sa>  (222) 
-0.481168

>  <r_i_glide_ligand_efficiency_ln>  (222) 
-0.887266

>  <r_i_glide_gscore>  (222) 
-3.54528

>  <r_i_glide_lipo>  (222) 
-0.351372

>  <r_i_glide_hbond>  (222) 
-0.16

>  <r_i_glide_metal>  (222) 
-0

>  <r_i_glide_rewards>  (222) 
-1.66166

>  <r_i_glide_evdw>  (222) 
-24.1499

>  <r_i_glide_ecoul>  (222) 
-3.99733

>  <r_i_glide_erotb>  (222) 
0.474107

>  <r_i_glide_esite>  (222) 
-0.0392567

>  <r_i_glide_emodel>  (222) 
-33.9888

>  <r_i_glide_energy>  (222) 
-28.1472

>  <r_i_glide_einternal>  (222) 
1.93268

>  <r_i_glide_intrahb_reward>  (222) 
-0

>  <i_i_glide_confnum>  (222) 
6

>  <i_i_glide_posenum>  (222) 
11

>  <r_i_glide_eff_state_penalty>  (222) 
0

>  <ligand_id>  (222) 
64

>  <original_smiles>  (222) 
CNC(=O)C1CC2CN(c3ncc(C)cn3)CC2N1C

>  <smiles>  (222) 
[H]c1nc(N2C([H])([H])C3([H])N(C([H])([H])[H])C([H])(C(=O)N([H])C([H])([H])[H])C([H])([H])C3([H])C2([H])[H])nc([H])c1C([H])([H])[H]

$$$$
64:1:2
     RDKit          3D

 41 43  0  0  1  0  0  0  0  0999 V2000
    8.9315   -1.6245    0.2124 C   0  0  0  0  0  0  0  0  0  0  0  0
    7.5106   -1.7546    0.4819 N   0  0  0  0  0  0  0  0  0  0  0  0
    6.6350   -2.3505   -0.3394 C   0  0  0  0  0  0  0  0  0  0  0  0
    6.9426   -2.6673   -1.4887 O   0  0  0  0  0  0  0  0  0  0  0  0
    5.2180   -2.5753    0.2370 C   0  0  2  0  0  0  0  0  0  0  0  0
    5.2547   -3.2424    1.6236 C   0  0  0  0  0  0  0  0  0  0  0  0
    5.1533   -4.7343    1.3173 C   0  0  1  0  0  0  0  0  0  0  0  0
    4.2233   -5.5349    2.2389 C   0  0  0  0  0  0  0  0  0  0  0  0
    2.9762   -5.6988    1.5068 N   0  0  0  0  0  0  0  0  0  0  0  0
    1.8250   -6.2665    2.0507 C   0  0  0  0  0  0  0  0  0  0  0  0
    0.8888   -6.7041    1.1983 N   0  0  0  0  0  0  0  0  0  0  0  0
   -0.1891   -7.3194    1.7277 C   0  0  0  0  0  0  0  0  0  0  0  0
   -0.4003   -7.3849    3.1177 C   0  0  0  0  0  0  0  0  0  0  0  0
   -1.6382   -8.0235    3.7258 C   0  0  0  0  0  0  0  0  0  0  0  0
    0.6332   -6.8644    3.9203 C   0  0  0  0  0  0  0  0  0  0  0  0
    1.7398   -6.3111    3.3844 N   0  0  0  0  0  0  0  0  0  0  0  0
    3.2435   -5.6191    0.0827 C   0  0  0  0  0  0  0  0  0  0  0  0
    4.5388   -4.8167   -0.0861 C   0  0  1  0  0  0  0  0  0  0  0  0
    4.2885   -3.4429   -0.5163 N   0  0  0  0  0  0  0  0  0  0  0  0
    4.1148   -3.2531   -1.9584 C   0  0  0  0  0  0  0  0  0  0  0  0
    9.2337   -0.5925    0.3619 H   0  0  0  0  0  0  0  0  0  0  0  0
    9.1841   -1.9213   -0.8024 H   0  0  0  0  0  0  0  0  0  0  0  0
    9.5148   -2.2555    0.8807 H   0  0  0  0  0  0  0  0  0  0  0  0
    7.1867   -1.4597    1.3911 H   0  0  0  0  0  0  0  0  0  0  0  0
    4.7621   -1.5939    0.3195 H   0  0  0  0  0  0  0  0  0  0  0  0
    6.1413   -3.0264    2.2246 H   0  0  0  0  0  0  0  0  0  0  0  0
    4.3939   -2.9191    2.2059 H   0  0  0  0  0  0  0  0  0  0  0  0
    6.1542   -5.1704    1.3116 H   0  0  0  0  0  0  0  0  0  0  0  0
    4.6451   -6.5204    2.4307 H   0  0  0  0  0  0  0  0  0  0  0  0
    4.0804   -5.0428    3.1992 H   0  0  0  0  0  0  0  0  0  0  0  0
   -0.9160   -7.7191    1.0345 H   0  0  0  0  0  0  0  0  0  0  0  0
   -1.4294   -9.0434    4.0511 H   0  0  0  0  0  0  0  0  0  0  0  0
   -2.4593   -8.0659    3.0111 H   0  0  0  0  0  0  0  0  0  0  0  0
   -1.9784   -7.4598    4.5933 H   0  0  0  0  0  0  0  0  0  0  0  0
    0.5670   -6.8730    4.9974 H   0  0  0  0  0  0  0  0  0  0  0  0
    3.4125   -6.6265   -0.2890 H   0  0  0  0  0  0  0  0  0  0  0  0
    2.4120   -5.1838   -0.4678 H   0  0  0  0  0  0  0  0  0  0  0  0
    5.2242   -5.3034   -0.7801 H   0  0  0  0  0  0  0  0  0  0  0  0
    3.2808   -3.8475   -2.3341 H   0  0  0  0  0  0  0  0  0  0  0  0
    4.9876   -3.5414   -2.5415 H   0  0  0  0  0  0  0  0  0  0  0  0
    3.8913   -2.2055   -2.1599 H   0  0  0  0  0  0  0  0  0  0  0  0
  1  2  1  0
  1 21  1  0
  1 22  1  0
  1 23  1  0
  2  3  1  0
  2 24  1  0
  3  4  2  0
  3  5  1  0
  5 19  1  0
  5  6  1  0
  5 25  1  1
  6  7  1  0
  6 26  1  0
  6 27  1  0
  7 18  1  0
  7  8  1  0
  7 28  1  6
  8  9  1  0
  8 29  1  0
  8 30  1  0
  9 10  1  0
  9 17  1  0
 10 16  1  0
 10 11  2  0
 11 12  1  0
 12 13  2  0
 12 31  1  0
 13 14  1  0
 13 15  1  0
 14 32  1  0
 14 33  1  0
 14 34  1  0
 15 16  2  0
 15 35  1  0
 17 18  1  0
 17 36  1  0
 17 37  1  0
 18 19  1  0
 18 38  1  6
 19 20  1  0
 20 39  1  0
 20 40  1  0
 20 41  1  0
M  END
>  <i_m_ct_stereo_status>  (223) 
1

>  <s_m_source_file>  (223) 
/var/tmp/pbs.5076255.sched01/tmprva83imr/861x3d95ot.sdf

>  <i_m_source_file_index>  (223) 
4

>  <i_lp_mmshare_version>  (223) 
48012

>  <i_f3d_flags>  (223) 
0

>  <s_epik_input>  (223) 
W0NIM11bTkhdQyg9TylbQ0BIXShbQ0gyXTEpTihbQ0gzXSlbQ0BASF0oW0NAQEhdMTIpW0NIMl1OKFtDSDJdMiljM25bY0hdYyhbQ0gzXSlbY0hdbjM=

>  <s_epik_cmdline>  (223) 
J2VwaWtfcHl0aG9uJywgJy1waHQnLCAnMi4wJywgJy1waCcsICc3LjAnLCAnLXRuJywgJzgnLCAnLW1hJywgJzIwMCcsICctaW1hZScsICc8aW5maWxlLm1hZT4nLCAnLW9tYWUnLCAnPG91dGZpbGUubWFlPic=

>  <r_lp_tautomer_probability>  (223) 
1

>  <r_epik_Ionization_Penalty>  (223) 
1.92605

>  <r_epik_Ionization_Penalty_Charging>  (223) 
0

>  <r_epik_Ionization_Penalty_Neutral>  (223) 
1.92605

>  <r_epik_State_Penalty>  (223) 
2.04778

>  <r_epik_Charging_Adjusted_Penalty>  (223) 
2.04778

>  <i_epik_Tot_Q>  (223) 
0

>  <i_epik_Tot_abs_Q>  (223) 
0

>  <s_lp_Force_Field>  (223) 
OPLS3e

>  <r_lp_Energy>  (223) 
13.7393

>  <b_lp_Chiralities_Consistent>  (223) 
1

>  <s_lp_Variant>  (223) 
64:0-2

>  <s_i_glide_gridfile>  (223) 
pfpi4k_grid

>  <i_i_glide_lignum>  (223) 
4

>  <i_i_glide_rotatable_bonds>  (223) 
3

>  <r_i_docking_score>  (223) 
-3.06284

>  <r_i_glide_ligand_efficiency>  (223) 
-0.153142

>  <r_i_glide_ligand_efficiency_sa>  (223) 
-0.415692

>  <r_i_glide_ligand_efficiency_ln>  (223) 
-0.766528

>  <r_i_glide_gscore>  (223) 
-3.06284

>  <r_i_glide_lipo>  (223) 
-0.113817

>  <r_i_glide_hbond>  (223) 
-0.131968

>  <r_i_glide_metal>  (223) 
-0

>  <r_i_glide_rewards>  (223) 
-1.53186

>  <r_i_glide_evdw>  (223) 
-23.8906

>  <r_i_glide_ecoul>  (223) 
-3.37834

>  <r_i_glide_erotb>  (223) 
0.474107

>  <r_i_glide_esite>  (223) 
-0.0580291

>  <r_i_glide_emodel>  (223) 
-31.5192

>  <r_i_glide_energy>  (223) 
-27.2689

>  <r_i_glide_einternal>  (223) 
2.50225

>  <r_i_glide_intrahb_reward>  (223) 
-0

>  <i_i_glide_confnum>  (223) 
1

>  <i_i_glide_posenum>  (223) 
25

>  <r_i_glide_eff_state_penalty>  (223) 
0

>  <ligand_id>  (223) 
64

>  <original_smiles>  (223) 
CNC(=O)C1CC2CN(c3ncc(C)cn3)CC2N1C

>  <smiles>  (223) 
[H]c1nc(N2C([H])([H])C3([H])N(C([H])([H])[H])C([H])(C(=O)N([H])C([H])([H])[H])C([H])([H])C3([H])C2([H])[H])nc([H])c1C([H])([H])[H]

$$$$
65:0:0
     RDKit          3D

 78 82  0  0  1  0  0  0  0  0999 V2000
    0.9893  -11.5902    3.6799 C   0  0  0  0  0  0  0  0  0  0  0  0
    1.4287  -10.1986    4.1433 C   0  0  0  0  0  0  0  0  0  0  0  0
    0.3630   -9.1734    3.6906 C   0  0  0  0  0  0  0  0  0  0  0  0
    1.5600  -10.2181    5.6746 C   0  0  0  0  0  0  0  0  0  0  0  0
    2.1492   -8.9209    6.2435 C   0  0  0  0  0  0  0  0  0  0  0  0
    3.4884   -8.5210    5.5791 C   0  0  2  0  0  0  0  0  0  0  0  0
    4.6177   -9.4929    6.0179 C   0  0  0  0  0  0  0  0  0  0  0  0
    3.8647   -7.1205    6.1015 C   0  0  0  0  0  0  0  0  0  0  0  0
    4.3740   -6.9440    7.2040 O   0  0  0  0  0  0  0  0  0  0  0  0
    3.5262   -5.9364    5.2128 C   0  0  0  0  0  0  0  0  0  0  0  0
    4.0492   -6.1079    3.7572 C   0  0  1  0  0  0  0  0  0  0  0  0
    5.6004   -6.1174    3.8097 C   0  0  0  0  0  0  0  0  0  0  0  0
    3.6567   -7.4818    3.2103 C   0  0  0  0  0  0  0  0  0  0  0  0
    3.3515   -8.5303    4.0333 C   0  0  0  0  0  0  0  0  0  0  0  0
    2.8014   -9.8697    3.5225 C   0  0  0  0  0  0  0  0  0  0  0  0
    3.7085   -7.6450    1.7607 C   0  0  0  0  0  0  0  0  0  0  0  0
    3.7932   -6.6071    0.9119 C   0  0  0  0  0  0  0  0  0  0  0  0
    3.7110   -5.1375    1.2961 C   0  0  2  0  0  0  0  0  0  0  0  0
    4.7352   -4.1579    0.5774 C   0  0  2  0  0  0  0  0  0  0  0  0
    4.6667   -4.4387   -0.9447 C   0  0  0  0  0  0  0  0  0  0  0  0
    6.1960   -4.4050    1.0221 C   0  0  0  0  0  0  0  0  0  0  0  0
    7.2048   -3.3928    0.4745 C   0  0  0  0  0  0  0  0  0  0  0  0
    6.8042   -1.9761    0.8978 C   0  0  1  0  0  0  0  0  0  0  0  0
    7.8164   -1.0716    0.4770 O   0  0  0  0  0  0  0  0  0  0  0  0
    5.3948   -1.5629    0.4197 C   0  0  0  0  0  0  0  0  0  0  0  0
    5.0826   -0.2001    1.0544 C   0  0  0  0  0  0  0  0  0  0  0  0
    5.3981   -1.3015   -1.1168 C   0  0  0  0  0  0  0  0  0  0  0  0
    4.3245   -2.6573    0.8358 C   0  0  2  0  0  0  0  0  0  0  0  0
    3.6019   -2.4641    2.2127 C   0  0  0  0  0  0  0  0  0  0  0  0
    3.8954   -3.5393    3.2706 C   0  0  0  0  0  0  0  0  0  0  0  0
    3.4325   -4.9535    2.8376 C   0  0  2  0  0  0  0  0  0  0  0  0
    1.8762   -4.9778    2.9851 C   0  0  0  0  0  0  0  0  0  0  0  0
    0.0404  -11.8786    4.1288 H   0  0  0  0  0  0  0  0  0  0  0  0
    1.7266  -12.3265    3.9843 H   0  0  0  0  0  0  0  0  0  0  0  0
    0.8772  -11.6488    2.5968 H   0  0  0  0  0  0  0  0  0  0  0  0
    0.6453   -8.1549    3.9635 H   0  0  0  0  0  0  0  0  0  0  0  0
   -0.6027   -9.3844    4.1549 H   0  0  0  0  0  0  0  0  0  0  0  0
    0.2304   -9.1940    2.6057 H   0  0  0  0  0  0  0  0  0  0  0  0
    0.5905  -10.4243    6.1332 H   0  0  0  0  0  0  0  0  0  0  0  0
    2.2015  -11.0497    5.9677 H   0  0  0  0  0  0  0  0  0  0  0  0
    1.4206   -8.1193    6.1199 H   0  0  0  0  0  0  0  0  0  0  0  0
    2.2784   -9.0350    7.3194 H   0  0  0  0  0  0  0  0  0  0  0  0
    5.5671   -9.2179    5.5575 H   0  0  0  0  0  0  0  0  0  0  0  0
    4.4248  -10.5281    5.7476 H   0  0  0  0  0  0  0  0  0  0  0  0
    4.7653   -9.4875    7.0977 H   0  0  0  0  0  0  0  0  0  0  0  0
    2.4430   -5.8742    5.2590 H   0  0  0  0  0  0  0  0  0  0  0  0
    3.9175   -5.0256    5.6696 H   0  0  0  0  0  0  0  0  0  0  0  0
    6.0320   -5.1968    4.2047 H   0  0  0  0  0  0  0  0  0  0  0  0
    6.0329   -6.3328    2.8345 H   0  0  0  0  0  0  0  0  0  0  0  0
    5.9717   -6.9155    4.4527 H   0  0  0  0  0  0  0  0  0  0  0  0
    3.5148  -10.6597    3.7607 H   0  0  0  0  0  0  0  0  0  0  0  0
    2.6914   -9.9110    2.4412 H   0  0  0  0  0  0  0  0  0  0  0  0
    3.7726   -8.6244    1.3237 H   0  0  0  0  0  0  0  0  0  0  0  0
    3.8399   -6.8317   -0.1410 H   0  0  0  0  0  0  0  0  0  0  0  0
    2.7871   -4.8691    0.7875 H   0  0  0  0  0  0  0  0  0  0  0  0
    5.3109   -3.8184   -1.5536 H   0  0  0  0  0  0  0  0  0  0  0  0
    3.6545   -4.2945   -1.3303 H   0  0  0  0  0  0  0  0  0  0  0  0
    4.9961   -5.4481   -1.1873 H   0  0  0  0  0  0  0  0  0  0  0  0
    6.2689   -4.3151    2.0977 H   0  0  0  0  0  0  0  0  0  0  0  0
    6.5057   -5.4196    0.7638 H   0  0  0  0  0  0  0  0  0  0  0  0
    8.1851   -3.6261    0.8913 H   0  0  0  0  0  0  0  0  0  0  0  0
    7.3136   -3.4818   -0.6057 H   0  0  0  0  0  0  0  0  0  0  0  0
    6.7885   -1.9559    1.9874 H   0  0  0  0  0  0  0  0  0  0  0  0
    7.7966   -0.2964    1.0354 H   0  0  0  0  0  0  0  0  0  0  0  0
    4.0486    0.1165    0.9001 H   0  0  0  0  0  0  0  0  0  0  0  0
    5.7284    0.5554    0.6199 H   0  0  0  0  0  0  0  0  0  0  0  0
    5.3086   -0.1676    2.1240 H   0  0  0  0  0  0  0  0  0  0  0  0
    4.4209   -1.4601   -1.5719 H   0  0  0  0  0  0  0  0  0  0  0  0
    6.1197   -1.9123   -1.6530 H   0  0  0  0  0  0  0  0  0  0  0  0
    5.6785   -0.2800   -1.3675 H   0  0  0  0  0  0  0  0  0  0  0  0
    3.4928   -2.4582    0.1575 H   0  0  0  0  0  0  0  0  0  0  0  0
    3.8054   -1.5116    2.6934 H   0  0  0  0  0  0  0  0  0  0  0  0
    2.5284   -2.4175    2.0376 H   0  0  0  0  0  0  0  0  0  0  0  0
    4.9463   -3.4852    3.5299 H   0  0  0  0  0  0  0  0  0  0  0  0
    3.3839   -3.2522    4.1891 H   0  0  0  0  0  0  0  0  0  0  0  0
    1.3942   -4.3077    2.2796 H   0  0  0  0  0  0  0  0  0  0  0  0
    1.5212   -4.6421    3.9589 H   0  0  0  0  0  0  0  0  0  0  0  0
    1.4620   -5.9701    2.8061 H   0  0  0  0  0  0  0  0  0  0  0  0
  1  2  1  0
  1 33  1  0
  1 34  1  0
  1 35  1  0
  2 15  1  0
  2  3  1  0
  2  4  1  0
  3 36  1  0
  3 37  1  0
  3 38  1  0
  4  5  1  0
  4 39  1  0
  4 40  1  0
  5  6  1  0
  5 41  1  0
  5 42  1  0
  6 14  1  0
  6  7  1  6
  6  8  1  0
  7 43  1  0
  7 44  1  0
  7 45  1  0
  8  9  2  0
  8 10  1  0
 10 11  1  0
 10 46  1  0
 10 47  1  0
 11 31  1  0
 11 12  1  1
 11 13  1  0
 12 48  1  0
 12 49  1  0
 12 50  1  0
 13 14  2  0
 13 16  1  0
 14 15  1  0
 15 51  1  0
 15 52  1  0
 16 17  2  0
 16 53  1  0
 17 18  1  0
 17 54  1  0
 18 31  1  0
 18 19  1  0
 18 55  1  6
 19 28  1  0
 19 20  1  6
 19 21  1  0
 20 56  1  0
 20 57  1  0
 20 58  1  0
 21 22  1  0
 21 59  1  0
 21 60  1  0
 22 23  1  0
 22 61  1  0
 22 62  1  0
 23 24  1  0
 23 25  1  0
 23 63  1  1
 24 64  1  0
 25 26  1  0
 25 27  1  0
 25 28  1  0
 26 65  1  0
 26 66  1  0
 26 67  1  0
 27 68  1  0
 27 69  1  0
 27 70  1  0
 28 29  1  0
 28 71  1  6
 29 30  1  0
 29 72  1  0
 29 73  1  0
 30 31  1  0
 30 74  1  0
 30 75  1  0
 31 32  1  6
 32 76  1  0
 32 77  1  0
 32 78  1  0
M  END
>  <i_m_ct_stereo_status>  (224) 
1

>  <s_m_source_file>  (224) 
/var/tmp/pbs.5076255.sched01/tmprva83imr/861x3d95ot.sdf

>  <i_m_source_file_index>  (224) 
5

>  <i_lp_mmshare_version>  (224) 
48012

>  <i_f3d_flags>  (224) 
0

>  <s_epik_input>  (224) 
W0NIMl0xW0NIMl1DKFtDSDNdKShbQ0gzXSlbQ0gyXUMoW0NAXTEyW0NIM10pPUMzW0NAXShbQ0gzXSkoW0NIMl1DMj1PKVtDQF00KFtDSDNdKVtDQEhdKFtDSF09W0NIXTMpW0NAQF01KFtDSDNdKVtDQEBIXShbQ0gyXVtDSDJdNClDKFtDSDNdKShbQ0gzXSlbQ0BIXShbT0hdKVtDSDJdW0NIMl01

>  <s_epik_cmdline>  (224) 
J2VwaWtfcHl0aG9uJywgJy1waHQnLCAnMi4wJywgJy1waCcsICc3LjAnLCAnLXRuJywgJzgnLCAnLW1hJywgJzIwMCcsICctaW1hZScsICc8aW5maWxlLm1hZT4nLCAnLW9tYWUnLCAnPG91dGZpbGUubWFlPic=

>  <r_lp_tautomer_probability>  (224) 
1

>  <r_epik_Ionization_Penalty>  (224) 
2.55606e-06

>  <r_epik_Ionization_Penalty_Charging>  (224) 
0

>  <r_epik_Ionization_Penalty_Neutral>  (224) 
2.55606e-06

>  <r_epik_State_Penalty>  (224) 
-0

>  <r_epik_Charging_Adjusted_Penalty>  (224) 
0

>  <i_epik_Tot_Q>  (224) 
0

>  <i_epik_Tot_abs_Q>  (224) 
0

>  <s_lp_Force_Field>  (224) 
OPLS3e

>  <r_lp_Energy>  (224) 
88.842

>  <b_lp_Chiralities_Consistent>  (224) 
1

>  <s_lp_Variant>  (224) 
65:0-1

>  <s_i_glide_gridfile>  (224) 
pfpi4k_grid

>  <i_i_glide_lignum>  (224) 
5

>  <i_i_glide_rotatable_bonds>  (224) 
1

>  <r_i_docking_score>  (224) 
-3.7232

>  <r_i_glide_ligand_efficiency>  (224) 
-0.11635

>  <r_i_glide_ligand_efficiency_sa>  (224) 
-0.369388

>  <r_i_glide_ligand_efficiency_ln>  (224) 
-0.833725

>  <r_i_glide_gscore>  (224) 
-3.7232

>  <r_i_glide_lipo>  (224) 
-0.756193

>  <r_i_glide_hbond>  (224) 
-0.350179

>  <r_i_glide_metal>  (224) 
-0

>  <r_i_glide_rewards>  (224) 
-0.418057

>  <r_i_glide_evdw>  (224) 
-26.1434

>  <r_i_glide_ecoul>  (224) 
-5.94398

>  <r_i_glide_erotb>  (224) 
0

>  <r_i_glide_esite>  (224) 
0

>  <r_i_glide_emodel>  (224) 
-38.7814

>  <r_i_glide_energy>  (224) 
-32.0874

>  <r_i_glide_einternal>  (224) 
0.539694

>  <r_i_glide_intrahb_reward>  (224) 
-0

>  <i_i_glide_confnum>  (224) 
2

>  <i_i_glide_posenum>  (224) 
5

>  <r_i_glide_eff_state_penalty>  (224) 
0

>  <ligand_id>  (224) 
65

>  <original_smiles>  (224) 
CC1(C)CCC2(C)C(=O)CC3(C)C(=C2C1)C=CC1C2(C)CCC(O)C(C)(C)C2CCC13C

>  <smiles>  (224) 
[H]OC1([H])C([H])([H])C([H])([H])C2(C([H])([H])[H])C3([H])C([H])=C([H])C4=C5C([H])([H])C(C([H])([H])[H])(C([H])([H])[H])C([H])([H])C([H])([H])C5(C([H])([H])[H])C(=O)C([H])([H])C4(C([H])([H])[H])C3(C([H])([H])[H])C([H])([H])C([H])([H])C2([H])C1(C([H])([H])[H])C([H])([H])[H]

$$$$
65:0:1
     RDKit          3D

 78 82  0  0  1  0  0  0  0  0999 V2000
    3.3450   -0.7295   -3.0441 C   0  0  0  0  0  0  0  0  0  0  0  0
    3.7418   -1.9232   -2.1536 C   0  0  0  0  0  0  0  0  0  0  0  0
    2.6512   -3.0224   -2.2471 C   0  0  0  0  0  0  0  0  0  0  0  0
    5.0843   -2.4709   -2.6588 C   0  0  0  0  0  0  0  0  0  0  0  0
    5.6680   -3.5568   -1.7497 C   0  0  0  0  0  0  0  0  0  0  0  0
    5.7805   -3.1432   -0.2615 C   0  0  2  0  0  0  0  0  0  0  0  0
    6.8911   -2.0787   -0.0748 C   0  0  0  0  0  0  0  0  0  0  0  0
    6.2051   -4.3842    0.5442 C   0  0  0  0  0  0  0  0  0  0  0  0
    7.3712   -4.7690    0.5919 O   0  0  0  0  0  0  0  0  0  0  0  0
    5.1034   -5.1519    1.2532 C   0  0  0  0  0  0  0  0  0  0  0  0
    4.1951   -4.2396    2.1312 C   0  0  1  0  0  0  0  0  0  0  0  0
    5.0610   -3.6666    3.2831 C   0  0  0  0  0  0  0  0  0  0  0  0
    3.7468   -3.0104    1.3287 C   0  0  0  0  0  0  0  0  0  0  0  0
    4.4269   -2.5701    0.2276 C   0  0  0  0  0  0  0  0  0  0  0  0
    3.9261   -1.4463   -0.6900 C   0  0  0  0  0  0  0  0  0  0  0  0
    2.6041   -2.2790    1.8612 C   0  0  0  0  0  0  0  0  0  0  0  0
    1.7913   -2.7753    2.8091 C   0  0  0  0  0  0  0  0  0  0  0  0
    1.8249   -4.1972    3.3549 C   0  0  2  0  0  0  0  0  0  0  0  0
    1.6124   -4.3570    4.9214 C   0  0  2  0  0  0  0  0  0  0  0  0
    0.3516   -3.5227    5.3051 C   0  0  0  0  0  0  0  0  0  0  0  0
    2.8063   -3.7876    5.7237 C   0  0  0  0  0  0  0  0  0  0  0  0
    2.7443   -4.0472    7.2300 C   0  0  0  0  0  0  0  0  0  0  0  0
    2.6743   -5.5545    7.5051 C   0  0  1  0  0  0  0  0  0  0  0  0
    2.6850   -5.7462    8.9066 O   0  0  0  0  0  0  0  0  0  0  0  0
    1.4500   -6.2481    6.8473 C   0  0  0  0  0  0  0  0  0  0  0  0
    1.5921   -7.7765    7.0928 C   0  0  0  0  0  0  0  0  0  0  0  0
    0.1350   -5.8424    7.5846 C   0  0  0  0  0  0  0  0  0  0  0  0
    1.3795   -5.8817    5.2949 C   0  0  2  0  0  0  0  0  0  0  0  0
    2.1182   -6.8530    4.3108 C   0  0  0  0  0  0  0  0  0  0  0  0
    3.3106   -6.2601    3.5461 C   0  0  0  0  0  0  0  0  0  0  0  0
    2.9183   -5.0739    2.6260 C   0  0  2  0  0  0  0  0  0  0  0  0
    2.2079   -5.6951    1.3747 C   0  0  0  0  0  0  0  0  0  0  0  0
    3.2253   -1.0228   -4.0873 H   0  0  0  0  0  0  0  0  0  0  0  0
    4.0880    0.0684   -3.0014 H   0  0  0  0  0  0  0  0  0  0  0  0
    2.3989   -0.2957   -2.7201 H   0  0  0  0  0  0  0  0  0  0  0  0
    2.8708   -3.8635   -1.5934 H   0  0  0  0  0  0  0  0  0  0  0  0
    2.5455   -3.4044   -3.2638 H   0  0  0  0  0  0  0  0  0  0  0  0
    1.6713   -2.6602   -1.9321 H   0  0  0  0  0  0  0  0  0  0  0  0
    4.9828   -2.8512   -3.6758 H   0  0  0  0  0  0  0  0  0  0  0  0
    5.7961   -1.6530   -2.7079 H   0  0  0  0  0  0  0  0  0  0  0  0
    5.0540   -4.4554   -1.8350 H   0  0  0  0  0  0  0  0  0  0  0  0
    6.6479   -3.8359   -2.1345 H   0  0  0  0  0  0  0  0  0  0  0  0
    6.9797   -1.7742    0.9686 H   0  0  0  0  0  0  0  0  0  0  0  0
    6.6930   -1.1766   -0.6434 H   0  0  0  0  0  0  0  0  0  0  0  0
    7.8699   -2.4413   -0.3925 H   0  0  0  0  0  0  0  0  0  0  0  0
    4.5484   -5.6252    0.4459 H   0  0  0  0  0  0  0  0  0  0  0  0
    5.5491   -5.9499    1.8476 H   0  0  0  0  0  0  0  0  0  0  0  0
    5.4848   -4.4309    3.9330 H   0  0  0  0  0  0  0  0  0  0  0  0
    4.5168   -2.9402    3.8812 H   0  0  0  0  0  0  0  0  0  0  0  0
    5.9074   -3.1083    2.8880 H   0  0  0  0  0  0  0  0  0  0  0  0
    4.6245   -0.6108   -0.6518 H   0  0  0  0  0  0  0  0  0  0  0  0
    2.9896   -1.0193   -0.3584 H   0  0  0  0  0  0  0  0  0  0  0  0
    2.4083   -1.2659    1.5553 H   0  0  0  0  0  0  0  0  0  0  0  0
    0.9719   -2.1486    3.1157 H   0  0  0  0  0  0  0  0  0  0  0  0
    0.8681   -4.5616    2.9880 H   0  0  0  0  0  0  0  0  0  0  0  0
    0.0911   -3.5793    6.3536 H   0  0  0  0  0  0  0  0  0  0  0  0
   -0.5299   -3.8341    4.7468 H   0  0  0  0  0  0  0  0  0  0  0  0
    0.4941   -2.4584    5.1331 H   0  0  0  0  0  0  0  0  0  0  0  0
    3.7238   -4.2582    5.4010 H   0  0  0  0  0  0  0  0  0  0  0  0
    2.9154   -2.7190    5.5338 H   0  0  0  0  0  0  0  0  0  0  0  0
    3.6464   -3.6424    7.6880 H   0  0  0  0  0  0  0  0  0  0  0  0
    1.9165   -3.5084    7.6892 H   0  0  0  0  0  0  0  0  0  0  0  0
    3.5872   -6.0036    7.1146 H   0  0  0  0  0  0  0  0  0  0  0  0
    2.8209   -6.6658    9.0827 H   0  0  0  0  0  0  0  0  0  0  0  0
    0.8725   -8.3522    6.5088 H   0  0  0  0  0  0  0  0  0  0  0  0
    1.4412   -8.0423    8.1409 H   0  0  0  0  0  0  0  0  0  0  0  0
    2.5958   -8.1333    6.8548 H   0  0  0  0  0  0  0  0  0  0  0  0
   -0.7401   -5.8822    6.9387 H   0  0  0  0  0  0  0  0  0  0  0  0
    0.1766   -4.8467    8.0166 H   0  0  0  0  0  0  0  0  0  0  0  0
   -0.0821   -6.4871    8.4352 H   0  0  0  0  0  0  0  0  0  0  0  0
    0.3414   -6.0851    5.0314 H   0  0  0  0  0  0  0  0  0  0  0  0
    2.4714   -7.7663    4.7742 H   0  0  0  0  0  0  0  0  0  0  0  0
    1.3928   -7.2184    3.5811 H   0  0  0  0  0  0  0  0  0  0  0  0
    4.0791   -6.0095    4.2675 H   0  0  0  0  0  0  0  0  0  0  0  0
    3.7634   -7.0509    2.9479 H   0  0  0  0  0  0  0  0  0  0  0  0
    1.2516   -6.1588    1.6126 H   0  0  0  0  0  0  0  0  0  0  0  0
    2.7821   -6.4911    0.9029 H   0  0  0  0  0  0  0  0  0  0  0  0
    2.0059   -4.9453    0.6113 H   0  0  0  0  0  0  0  0  0  0  0  0
  1  2  1  0
  1 33  1  0
  1 34  1  0
  1 35  1  0
  2 15  1  0
  2  3  1  0
  2  4  1  0
  3 36  1  0
  3 37  1  0
  3 38  1  0
  4  5  1  0
  4 39  1  0
  4 40  1  0
  5  6  1  0
  5 41  1  0
  5 42  1  0
  6 14  1  0
  6  7  1  6
  6  8  1  0
  7 43  1  0
  7 44  1  0
  7 45  1  0
  8  9  2  0
  8 10  1  0
 10 11  1  0
 10 46  1  0
 10 47  1  0
 11 31  1  0
 11 12  1  1
 11 13  1  0
 12 48  1  0
 12 49  1  0
 12 50  1  0
 13 14  2  0
 13 16  1  0
 14 15  1  0
 15 51  1  0
 15 52  1  0
 16 17  2  0
 16 53  1  0
 17 18  1  0
 17 54  1  0
 18 31  1  0
 18 19  1  0
 18 55  1  6
 19 28  1  0
 19 20  1  1
 19 21  1  0
 20 56  1  0
 20 57  1  0
 20 58  1  0
 21 22  1  0
 21 59  1  0
 21 60  1  0
 22 23  1  0
 22 61  1  0
 22 62  1  0
 23 24  1  0
 23 25  1  0
 23 63  1  6
 24 64  1  0
 25 26  1  0
 25 27  1  0
 25 28  1  0
 26 65  1  0
 26 66  1  0
 26 67  1  0
 27 68  1  0
 27 69  1  0
 27 70  1  0
 28 29  1  0
 28 71  1  6
 29 30  1  0
 29 72  1  0
 29 73  1  0
 30 31  1  0
 30 74  1  0
 30 75  1  0
 31 32  1  6
 32 76  1  0
 32 77  1  0
 32 78  1  0
M  END
>  <i_m_ct_stereo_status>  (225) 
1

>  <s_m_source_file>  (225) 
/var/tmp/pbs.5076255.sched01/tmprva83imr/861x3d95ot.sdf

>  <i_m_source_file_index>  (225) 
5

>  <i_lp_mmshare_version>  (225) 
48012

>  <i_f3d_flags>  (225) 
0

>  <s_epik_input>  (225) 
W0NIMl0xW0NIMl1DKFtDSDNdKShbQ0gzXSlbQ0gyXUMoW0NAXTEyW0NIM10pPUMzW0NAXShbQ0gzXSkoW0NIMl1DMj1PKVtDQF00KFtDSDNdKVtDQEhdKFtDSF09W0NIXTMpW0NAQF01KFtDSDNdKVtDQEBIXShbQ0gyXVtDSDJdNClDKFtDSDNdKShbQ0gzXSlbQ0BIXShbT0hdKVtDSDJdW0NIMl01

>  <s_epik_cmdline>  (225) 
J2VwaWtfcHl0aG9uJywgJy1waHQnLCAnMi4wJywgJy1waCcsICc3LjAnLCAnLXRuJywgJzgnLCAnLW1hJywgJzIwMCcsICctaW1hZScsICc8aW5maWxlLm1hZT4nLCAnLW9tYWUnLCAnPG91dGZpbGUubWFlPic=

>  <r_lp_tautomer_probability>  (225) 
1

>  <r_epik_Ionization_Penalty>  (225) 
2.55606e-06

>  <r_epik_Ionization_Penalty_Charging>  (225) 
0

>  <r_epik_Ionization_Penalty_Neutral>  (225) 
2.55606e-06

>  <r_epik_State_Penalty>  (225) 
-0

>  <r_epik_Charging_Adjusted_Penalty>  (225) 
0

>  <i_epik_Tot_Q>  (225) 
0

>  <i_epik_Tot_abs_Q>  (225) 
0

>  <s_lp_Force_Field>  (225) 
OPLS3e

>  <r_lp_Energy>  (225) 
88.842

>  <b_lp_Chiralities_Consistent>  (225) 
1

>  <s_lp_Variant>  (225) 
65:0-1

>  <s_i_glide_gridfile>  (225) 
pfpi4k_grid

>  <i_i_glide_lignum>  (225) 
5

>  <i_i_glide_rotatable_bonds>  (225) 
1

>  <r_i_docking_score>  (225) 
-2.67678

>  <r_i_glide_ligand_efficiency>  (225) 
-0.0836494

>  <r_i_glide_ligand_efficiency_sa>  (225) 
-0.26557

>  <r_i_glide_ligand_efficiency_ln>  (225) 
-0.599404

>  <r_i_glide_gscore>  (225) 
-2.67678

>  <r_i_glide_lipo>  (225) 
-0.458977

>  <r_i_glide_hbond>  (225) 
0

>  <r_i_glide_metal>  (225) 
-0

>  <r_i_glide_rewards>  (225) 
-0.557086

>  <r_i_glide_evdw>  (225) 
-30.5421

>  <r_i_glide_ecoul>  (225) 
-0.89076

>  <r_i_glide_erotb>  (225) 
0

>  <r_i_glide_esite>  (225) 
0

>  <r_i_glide_emodel>  (225) 
-36.3115

>  <r_i_glide_energy>  (225) 
-31.4328

>  <r_i_glide_einternal>  (225) 
0.341807

>  <r_i_glide_intrahb_reward>  (225) 
-0

>  <i_i_glide_confnum>  (225) 
2

>  <i_i_glide_posenum>  (225) 
28

>  <r_i_glide_eff_state_penalty>  (225) 
0

>  <ligand_id>  (225) 
65

>  <original_smiles>  (225) 
CC1(C)CCC2(C)C(=O)CC3(C)C(=C2C1)C=CC1C2(C)CCC(O)C(C)(C)C2CCC13C

>  <smiles>  (225) 
[H]OC1([H])C([H])([H])C([H])([H])C2(C([H])([H])[H])C3([H])C([H])=C([H])C4=C5C([H])([H])C(C([H])([H])[H])(C([H])([H])[H])C([H])([H])C([H])([H])C5(C([H])([H])[H])C(=O)C([H])([H])C4(C([H])([H])[H])C3(C([H])([H])[H])C([H])([H])C([H])([H])C2([H])C1(C([H])([H])[H])C([H])([H])[H]

$$$$
65:0:2
     RDKit          3D

 78 82  0  0  1  0  0  0  0  0999 V2000
    3.6487   -0.8763   -2.9463 C   0  0  0  0  0  0  0  0  0  0  0  0
    3.9840   -1.9497   -1.8949 C   0  0  0  0  0  0  0  0  0  0  0  0
    2.8963   -3.0556   -1.9460 C   0  0  0  0  0  0  0  0  0  0  0  0
    5.3674   -2.5441   -2.2229 C   0  0  0  0  0  0  0  0  0  0  0  0
    5.8663   -3.5157   -1.1476 C   0  0  0  0  0  0  0  0  0  0  0  0
    5.8529   -2.9274    0.2830 C   0  0  2  0  0  0  0  0  0  0  0  0
    6.9565   -1.8474    0.4292 C   0  0  0  0  0  0  0  0  0  0  0  0
    6.2019   -4.0719    1.2482 C   0  0  0  0  0  0  0  0  0  0  0  0
    7.3540   -4.4757    1.3923 O   0  0  0  0  0  0  0  0  0  0  0  0
    5.0492   -4.7467    1.9682 C   0  0  0  0  0  0  0  0  0  0  0  0
    4.0804   -3.7412    2.6568 C   0  0  1  0  0  0  0  0  0  0  0  0
    4.8599   -3.0327    3.7975 C   0  0  0  0  0  0  0  0  0  0  0  0
    3.6971   -2.6197    1.6786 C   0  0  0  0  0  0  0  0  0  0  0  0
    4.4645   -2.3082    0.5897 C   0  0  0  0  0  0  0  0  0  0  0  0
    4.0342   -1.3040   -0.4896 C   0  0  0  0  0  0  0  0  0  0  0  0
    2.5099   -1.8447    2.0206 C   0  0  0  0  0  0  0  0  0  0  0  0
    1.6139   -2.2324    2.9419 C   0  0  0  0  0  0  0  0  0  0  0  0
    1.6107   -3.5737    3.6656 C   0  0  2  0  0  0  0  0  0  0  0  0
    1.2784   -3.5420    5.2189 C   0  0  2  0  0  0  0  0  0  0  0  0
   -0.0031   -2.6750    5.3986 C   0  0  0  0  0  0  0  0  0  0  0  0
    2.4069   -2.8753    6.0404 C   0  0  0  0  0  0  0  0  0  0  0  0
    2.2232   -2.9549    7.5572 C   0  0  0  0  0  0  0  0  0  0  0  0
    2.1235   -4.4184    8.0032 C   0  0  1  0  0  0  0  0  0  0  0  0
    2.0105   -4.4378    9.4133 O   0  0  0  0  0  0  0  0  0  0  0  0
    0.9523   -5.1927    7.3375 C   0  0  0  0  0  0  0  0  0  0  0  0
    1.0671   -6.6798    7.7744 C   0  0  0  0  0  0  0  0  0  0  0  0
   -0.4169   -4.7137    7.9137 C   0  0  0  0  0  0  0  0  0  0  0  0
    1.0089   -5.0119    5.7514 C   0  0  2  0  0  0  0  0  0  0  0  0
    1.8194   -6.0894    4.9538 C   0  0  0  0  0  0  0  0  0  0  0  0
    3.0737   -5.5865    4.2260 C   0  0  0  0  0  0  0  0  0  0  0  0
    2.7631   -4.5201    3.1420 C   0  0  2  0  0  0  0  0  0  0  0  0
    2.1588   -5.2932    1.9218 C   0  0  0  0  0  0  0  0  0  0  0  0
    3.6187   -1.2952   -3.9530 H   0  0  0  0  0  0  0  0  0  0  0  0
    4.3875   -0.0731   -2.9418 H   0  0  0  0  0  0  0  0  0  0  0  0
    2.6757   -0.4229   -2.7499 H   0  0  0  0  0  0  0  0  0  0  0  0
    3.0581   -3.8227   -1.1887 H   0  0  0  0  0  0  0  0  0  0  0  0
    2.8695   -3.5462   -2.9211 H   0  0  0  0  0  0  0  0  0  0  0  0
    1.8982   -2.6528   -1.7649 H   0  0  0  0  0  0  0  0  0  0  0  0
    5.3470   -3.0446   -3.1908 H   0  0  0  0  0  0  0  0  0  0  0  0
    6.0878   -1.7363   -2.3272 H   0  0  0  0  0  0  0  0  0  0  0  0
    5.2605   -4.4232   -1.1787 H   0  0  0  0  0  0  0  0  0  0  0  0
    6.8748   -3.8350   -1.4034 H   0  0  0  0  0  0  0  0  0  0  0  0
    6.9605   -1.4167    1.4311 H   0  0  0  0  0  0  0  0  0  0  0  0
    6.8273   -1.0221   -0.2635 H   0  0  0  0  0  0  0  0  0  0  0  0
    7.9534   -2.2474    0.2438 H   0  0  0  0  0  0  0  0  0  0  0  0
    4.5556   -5.3188    1.1851 H   0  0  0  0  0  0  0  0  0  0  0  0
    5.4429   -5.4639    2.6873 H   0  0  0  0  0  0  0  0  0  0  0  0
    5.2196   -3.7151    4.5658 H   0  0  0  0  0  0  0  0  0  0  0  0
    4.2698   -2.2441    4.2567 H   0  0  0  0  0  0  0  0  0  0  0  0
    5.7437   -2.5253    3.4151 H   0  0  0  0  0  0  0  0  0  0  0  0
    4.7286   -0.4647   -0.4884 H   0  0  0  0  0  0  0  0  0  0  0  0
    3.0582   -0.8669   -0.3040 H   0  0  0  0  0  0  0  0  0  0  0  0
    2.3501   -0.8710    1.5865 H   0  0  0  0  0  0  0  0  0  0  0  0
    0.7762   -1.5775    3.1101 H   0  0  0  0  0  0  0  0  0  0  0  0
    0.6850   -3.9907    3.2756 H   0  0  0  0  0  0  0  0  0  0  0  0
   -0.3455   -2.6111    6.4227 H   0  0  0  0  0  0  0  0  0  0  0  0
   -0.8369   -3.0558    4.8118 H   0  0  0  0  0  0  0  0  0  0  0  0
    0.1583   -1.6369    5.1142 H   0  0  0  0  0  0  0  0  0  0  0  0
    3.3460   -3.3771    5.8526 H   0  0  0  0  0  0  0  0  0  0  0  0
    2.5375   -1.8360    5.7344 H   0  0  0  0  0  0  0  0  0  0  0  0
    3.0873   -2.4961    8.0351 H   0  0  0  0  0  0  0  0  0  0  0  0
    1.3647   -2.3706    7.8819 H   0  0  0  0  0  0  0  0  0  0  0  0
    3.0641   -4.9086    7.7473 H   0  0  0  0  0  0  0  0  0  0  0  0
    2.1342   -5.3272    9.7123 H   0  0  0  0  0  0  0  0  0  0  0  0
    0.3940   -7.3217    7.2068 H   0  0  0  0  0  0  0  0  0  0  0  0
    0.8300   -6.8178    8.8311 H   0  0  0  0  0  0  0  0  0  0  0  0
    2.0853   -7.0545    7.6637 H   0  0  0  0  0  0  0  0  0  0  0  0
   -1.2382   -4.8477    7.2123 H   0  0  0  0  0  0  0  0  0  0  0  0
   -0.4043   -3.6720    8.2231 H   0  0  0  0  0  0  0  0  0  0  0  0
   -0.7002   -5.2500    8.8188 H   0  0  0  0  0  0  0  0  0  0  0  0
   -0.0055   -5.2497    5.4332 H   0  0  0  0  0  0  0  0  0  0  0  0
    2.1356   -6.9356    5.5515 H   0  0  0  0  0  0  0  0  0  0  0  0
    1.1544   -6.5444    4.2188 H   0  0  0  0  0  0  0  0  0  0  0  0
    3.7830   -5.2518    4.9731 H   0  0  0  0  0  0  0  0  0  0  0  0
    3.5664   -6.4411    3.7631 H   0  0  0  0  0  0  0  0  0  0  0  0
    1.1837   -5.7264    2.1336 H   0  0  0  0  0  0  0  0  0  0  0  0
    2.7638   -6.1370    1.5978 H   0  0  0  0  0  0  0  0  0  0  0  0
    2.0246   -4.6398    1.0626 H   0  0  0  0  0  0  0  0  0  0  0  0
  1  2  1  0
  1 33  1  0
  1 34  1  0
  1 35  1  0
  2 15  1  0
  2  3  1  0
  2  4  1  0
  3 36  1  0
  3 37  1  0
  3 38  1  0
  4  5  1  0
  4 39  1  0
  4 40  1  0
  5  6  1  0
  5 41  1  0
  5 42  1  0
  6 14  1  0
  6  7  1  6
  6  8  1  0
  7 43  1  0
  7 44  1  0
  7 45  1  0
  8  9  2  0
  8 10  1  0
 10 11  1  0
 10 46  1  0
 10 47  1  0
 11 31  1  0
 11 12  1  1
 11 13  1  0
 12 48  1  0
 12 49  1  0
 12 50  1  0
 13 14  2  0
 13 16  1  0
 14 15  1  0
 15 51  1  0
 15 52  1  0
 16 17  2  0
 16 53  1  0
 17 18  1  0
 17 54  1  0
 18 31  1  0
 18 19  1  0
 18 55  1  6
 19 28  1  0
 19 20  1  6
 19 21  1  0
 20 56  1  0
 20 57  1  0
 20 58  1  0
 21 22  1  0
 21 59  1  0
 21 60  1  0
 22 23  1  0
 22 61  1  0
 22 62  1  0
 23 24  1  0
 23 25  1  0
 23 63  1  1
 24 64  1  0
 25 26  1  0
 25 27  1  0
 25 28  1  0
 26 65  1  0
 26 66  1  0
 26 67  1  0
 27 68  1  0
 27 69  1  0
 27 70  1  0
 28 29  1  0
 28 71  1  6
 29 30  1  0
 29 72  1  0
 29 73  1  0
 30 31  1  0
 30 74  1  0
 30 75  1  0
 31 32  1  6
 32 76  1  0
 32 77  1  0
 32 78  1  0
M  END
>  <i_m_ct_stereo_status>  (226) 
1

>  <s_m_source_file>  (226) 
/var/tmp/pbs.5076255.sched01/tmprva83imr/861x3d95ot.sdf

>  <i_m_source_file_index>  (226) 
5

>  <i_lp_mmshare_version>  (226) 
48012

>  <i_f3d_flags>  (226) 
0

>  <s_epik_input>  (226) 
W0NIMl0xW0NIMl1DKFtDSDNdKShbQ0gzXSlbQ0gyXUMoW0NAXTEyW0NIM10pPUMzW0NAXShbQ0gzXSkoW0NIMl1DMj1PKVtDQF00KFtDSDNdKVtDQEhdKFtDSF09W0NIXTMpW0NAQF01KFtDSDNdKVtDQEBIXShbQ0gyXVtDSDJdNClDKFtDSDNdKShbQ0gzXSlbQ0BIXShbT0hdKVtDSDJdW0NIMl01

>  <s_epik_cmdline>  (226) 
J2VwaWtfcHl0aG9uJywgJy1waHQnLCAnMi4wJywgJy1waCcsICc3LjAnLCAnLXRuJywgJzgnLCAnLW1hJywgJzIwMCcsICctaW1hZScsICc8aW5maWxlLm1hZT4nLCAnLW9tYWUnLCAnPG91dGZpbGUubWFlPic=

>  <r_lp_tautomer_probability>  (226) 
1

>  <r_epik_Ionization_Penalty>  (226) 
2.55606e-06

>  <r_epik_Ionization_Penalty_Charging>  (226) 
0

>  <r_epik_Ionization_Penalty_Neutral>  (226) 
2.55606e-06

>  <r_epik_State_Penalty>  (226) 
-0

>  <r_epik_Charging_Adjusted_Penalty>  (226) 
0

>  <i_epik_Tot_Q>  (226) 
0

>  <i_epik_Tot_abs_Q>  (226) 
0

>  <s_lp_Force_Field>  (226) 
OPLS3e

>  <r_lp_Energy>  (226) 
88.842

>  <b_lp_Chiralities_Consistent>  (226) 
1

>  <s_lp_Variant>  (226) 
65:0-1

>  <s_i_glide_gridfile>  (226) 
pfpi4k_grid

>  <i_i_glide_lignum>  (226) 
5

>  <i_i_glide_rotatable_bonds>  (226) 
1

>  <r_i_docking_score>  (226) 
-2.48608

>  <r_i_glide_ligand_efficiency>  (226) 
-0.0776899

>  <r_i_glide_ligand_efficiency_sa>  (226) 
-0.24665

>  <r_i_glide_ligand_efficiency_ln>  (226) 
-0.5567

>  <r_i_glide_gscore>  (226) 
-2.48608

>  <r_i_glide_lipo>  (226) 
-0.322348

>  <r_i_glide_hbond>  (226) 
0

>  <r_i_glide_metal>  (226) 
-0

>  <r_i_glide_rewards>  (226) 
-0.53588

>  <r_i_glide_evdw>  (226) 
-31.4336

>  <r_i_glide_ecoul>  (226) 
-0.374446

>  <r_i_glide_erotb>  (226) 
0

>  <r_i_glide_esite>  (226) 
0

>  <r_i_glide_emodel>  (226) 
-36.3281

>  <r_i_glide_energy>  (226) 
-31.8081

>  <r_i_glide_einternal>  (226) 
0.339242

>  <r_i_glide_intrahb_reward>  (226) 
-0

>  <i_i_glide_confnum>  (226) 
1

>  <i_i_glide_posenum>  (226) 
11

>  <r_i_glide_eff_state_penalty>  (226) 
0

>  <ligand_id>  (226) 
65

>  <original_smiles>  (226) 
CC1(C)CCC2(C)C(=O)CC3(C)C(=C2C1)C=CC1C2(C)CCC(O)C(C)(C)C2CCC13C

>  <smiles>  (226) 
[H]OC1([H])C([H])([H])C([H])([H])C2(C([H])([H])[H])C3([H])C([H])=C([H])C4=C5C([H])([H])C(C([H])([H])[H])(C([H])([H])[H])C([H])([H])C([H])([H])C5(C([H])([H])[H])C(=O)C([H])([H])C4(C([H])([H])[H])C3(C([H])([H])[H])C([H])([H])C([H])([H])C2([H])C1(C([H])([H])[H])C([H])([H])[H]

$$$$
66:0:0
     RDKit          3D

 21 23  0  0  1  0  0  0  0  0999 V2000
    0.2164   -9.8809    3.0968 Cl  0  0  0  0  0  0  0  0  0  0  0  0
    1.1658   -8.6287    2.3933 C   0  0  0  0  0  0  0  0  0  0  0  0
    0.5512   -7.4458    1.9217 C   0  0  0  0  0  0  0  0  0  0  0  0
    1.2220   -6.4132    1.3563 N   0  0  0  0  0  0  0  0  0  0  0  0
    2.5829   -6.5948    1.2626 C   0  0  0  0  0  0  0  0  0  0  0  0
    3.3123   -7.7464    1.6867 C   0  0  0  0  0  0  0  0  0  0  0  0
    2.5632   -8.7869    2.2676 C   0  0  0  0  0  0  0  0  0  0  0  0
    4.6677   -7.6262    1.4354 N   0  0  0  0  0  0  0  0  0  0  0  0
    4.7143   -6.4238    0.8723 C   0  0  0  0  0  0  0  0  0  0  0  0
    3.5578   -5.7498    0.7262 N   0  0  0  0  0  0  0  0  0  0  0  0
    3.3967   -4.4735    0.1436 C   0  0  0  0  0  0  0  0  0  0  0  0
    4.5010   -3.7668   -0.4310 C   0  0  0  0  0  0  0  0  0  0  0  0
    3.9474   -2.5951   -0.8666 C   0  0  0  0  0  0  0  0  0  0  0  0
    2.6152   -2.6583   -0.5506 N   0  0  0  0  0  0  0  0  0  0  0  0
    2.2657   -3.7971    0.0560 N   0  0  0  0  0  0  0  0  0  0  0  0
    1.9184   -1.9089   -0.7215 H   0  0  0  0  0  0  0  0  0  0  0  0
   -0.5250   -7.3315    2.0104 H   0  0  0  0  0  0  0  0  0  0  0  0
    3.0518   -9.6889    2.6033 H   0  0  0  0  0  0  0  0  0  0  0  0
    5.6609   -6.0160    0.5543 H   0  0  0  0  0  0  0  0  0  0  0  0
    5.5371   -4.0528   -0.5279 H   0  0  0  0  0  0  0  0  0  0  0  0
    4.3768   -1.7407   -1.3633 H   0  0  0  0  0  0  0  0  0  0  0  0
  1  2  1  0
  2  7  2  0
  2  3  1  0
  3  4  2  0
  3 17  1  0
  4  5  1  0
  5 10  1  0
  5  6  2  0
  6  7  1  0
  6  8  1  0
  7 18  1  0
  8  9  2  0
  9 10  1  0
  9 19  1  0
 10 11  1  0
 11 15  2  0
 11 12  1  0
 12 13  2  0
 12 20  1  0
 13 14  1  0
 13 21  1  0
 14 16  1  0
 14 15  1  0
M  END
>  <i_m_ct_stereo_status>  (227) 
1

>  <s_m_source_file>  (227) 
/var/tmp/pbs.5076255.sched01/tmprva83imr/861x3d95ot.sdf

>  <i_m_source_file_index>  (227) 
6

>  <i_lp_mmshare_version>  (227) 
48012

>  <i_f3d_flags>  (227) 
0

>  <s_epik_input>  (227) 
bjFbY0hdYyhDbClbY0hdYyhjMTIpbltjSF1uMi1jM1tjSF1bY0hdW25IXW4z

>  <s_epik_cmdline>  (227) 
J2VwaWtfcHl0aG9uJywgJy1waHQnLCAnMi4wJywgJy1waCcsICc3LjAnLCAnLXRuJywgJzgnLCAnLW1hJywgJzIwMCcsICctaW1hZScsICc8aW5maWxlLm1hZT4nLCAnLW9tYWUnLCAnPG91dGZpbGUubWFlPic=

>  <r_lp_tautomer_probability>  (227) 
1

>  <r_epik_Ionization_Penalty>  (227) 
7.35227e-06

>  <r_epik_Ionization_Penalty_Charging>  (227) 
4.06456e-06

>  <r_epik_Ionization_Penalty_Neutral>  (227) 
3.28772e-06

>  <r_epik_State_Penalty>  (227) 
-0

>  <r_epik_Charging_Adjusted_Penalty>  (227) 
4.06456e-06

>  <i_epik_Tot_Q>  (227) 
0

>  <i_epik_Tot_abs_Q>  (227) 
0

>  <s_lp_Force_Field>  (227) 
OPLS3e

>  <r_lp_Energy>  (227) 
17.6828

>  <b_lp_Chiralities_Consistent>  (227) 
1

>  <s_lp_Variant>  (227) 
66:0-1

>  <s_i_glide_gridfile>  (227) 
pfpi4k_grid

>  <i_i_glide_lignum>  (227) 
6

>  <i_i_glide_rotatable_bonds>  (227) 
1

>  <r_i_docking_score>  (227) 
-3.85164

>  <r_i_glide_ligand_efficiency>  (227) 
-0.256776

>  <r_i_glide_ligand_efficiency_sa>  (227) 
-0.633264

>  <r_i_glide_ligand_efficiency_ln>  (227) 
-1.03872

>  <r_i_glide_gscore>  (227) 
-3.85164

>  <r_i_glide_lipo>  (227) 
-0.0297857

>  <r_i_glide_hbond>  (227) 
-0.208195

>  <r_i_glide_metal>  (227) 
-0

>  <r_i_glide_rewards>  (227) 
-2.07906

>  <r_i_glide_evdw>  (227) 
-15.593

>  <r_i_glide_ecoul>  (227) 
-6.77067

>  <r_i_glide_erotb>  (227) 
0.349001

>  <r_i_glide_esite>  (227) 
-0.0883497

>  <r_i_glide_emodel>  (227) 
-28.8393

>  <r_i_glide_energy>  (227) 
-22.3636

>  <r_i_glide_einternal>  (227) 
0.0151333

>  <r_i_glide_intrahb_reward>  (227) 
-0

>  <i_i_glide_confnum>  (227) 
1

>  <i_i_glide_posenum>  (227) 
1

>  <r_i_glide_eff_state_penalty>  (227) 
0

>  <ligand_id>  (227) 
66

>  <original_smiles>  (227) 
Clc1cnc2c(c1)ncn2-c1cc[nH]n1

>  <smiles>  (227) 
[H]c1nc2c(nc([H])n2-c2nn([H])c([H])c2[H])c([H])c1Cl

$$$$
66:0:1
     RDKit          3D

 21 23  0  0  1  0  0  0  0  0999 V2000
   -2.0371    5.0264    9.1786 Cl  0  0  0  0  0  0  0  0  0  0  0  0
   -1.6485    3.9595    7.8777 C   0  0  0  0  0  0  0  0  0  0  0  0
   -0.8072    4.3891    6.8261 C   0  0  0  0  0  0  0  0  0  0  0  0
   -0.4734    3.6344    5.7555 N   0  0  0  0  0  0  0  0  0  0  0  0
   -0.9849    2.3661    5.7670 C   0  0  0  0  0  0  0  0  0  0  0  0
   -1.8327    1.8111    6.7731 C   0  0  0  0  0  0  0  0  0  0  0  0
   -2.1725    2.6505    7.8551 C   0  0  0  0  0  0  0  0  0  0  0  0
   -2.1846    0.5016    6.4792 N   0  0  0  0  0  0  0  0  0  0  0  0
   -1.5614    0.3169    5.3219 C   0  0  0  0  0  0  0  0  0  0  0  0
   -0.8407    1.3448    4.8309 N   0  0  0  0  0  0  0  0  0  0  0  0
   -0.1504    1.3211    3.6097 C   0  0  0  0  0  0  0  0  0  0  0  0
    1.0200    2.0984    3.3711 C   0  0  0  0  0  0  0  0  0  0  0  0
    1.3740    1.7430    2.1000 C   0  0  0  0  0  0  0  0  0  0  0  0
    0.4678    0.8012    1.6792 N   0  0  0  0  0  0  0  0  0  0  0  0
   -0.4786    0.5477    2.5911 N   0  0  0  0  0  0  0  0  0  0  0  0
    0.4374    0.3818    0.7463 H   0  0  0  0  0  0  0  0  0  0  0  0
   -0.4004    5.3927    6.8339 H   0  0  0  0  0  0  0  0  0  0  0  0
   -2.8161    2.3013    8.6485 H   0  0  0  0  0  0  0  0  0  0  0  0
   -1.6388   -0.6252    4.7999 H   0  0  0  0  0  0  0  0  0  0  0  0
    1.5242    2.8117    4.0121 H   0  0  0  0  0  0  0  0  0  0  0  0
    2.1787    2.0853    1.4686 H   0  0  0  0  0  0  0  0  0  0  0  0
  1  2  1  0
  2  7  2  0
  2  3  1  0
  3  4  2  0
  3 17  1  0
  4  5  1  0
  5 10  1  0
  5  6  2  0
  6  7  1  0
  6  8  1  0
  7 18  1  0
  8  9  2  0
  9 10  1  0
  9 19  1  0
 10 11  1  0
 11 15  2  0
 11 12  1  0
 12 13  2  0
 12 20  1  0
 13 14  1  0
 13 21  1  0
 14 16  1  0
 14 15  1  0
M  END
>  <i_m_ct_stereo_status>  (228) 
1

>  <s_m_source_file>  (228) 
/var/tmp/pbs.5076255.sched01/tmprva83imr/861x3d95ot.sdf

>  <i_m_source_file_index>  (228) 
6

>  <i_lp_mmshare_version>  (228) 
48012

>  <i_f3d_flags>  (228) 
0

>  <s_epik_input>  (228) 
bjFbY0hdYyhDbClbY0hdYyhjMTIpbltjSF1uMi1jM1tjSF1bY0hdW25IXW4z

>  <s_epik_cmdline>  (228) 
J2VwaWtfcHl0aG9uJywgJy1waHQnLCAnMi4wJywgJy1waCcsICc3LjAnLCAnLXRuJywgJzgnLCAnLW1hJywgJzIwMCcsICctaW1hZScsICc8aW5maWxlLm1hZT4nLCAnLW9tYWUnLCAnPG91dGZpbGUubWFlPic=

>  <r_lp_tautomer_probability>  (228) 
1

>  <r_epik_Ionization_Penalty>  (228) 
7.35227e-06

>  <r_epik_Ionization_Penalty_Charging>  (228) 
4.06456e-06

>  <r_epik_Ionization_Penalty_Neutral>  (228) 
3.28772e-06

>  <r_epik_State_Penalty>  (228) 
-0

>  <r_epik_Charging_Adjusted_Penalty>  (228) 
4.06456e-06

>  <i_epik_Tot_Q>  (228) 
0

>  <i_epik_Tot_abs_Q>  (228) 
0

>  <s_lp_Force_Field>  (228) 
OPLS3e

>  <r_lp_Energy>  (228) 
17.6828

>  <b_lp_Chiralities_Consistent>  (228) 
1

>  <s_lp_Variant>  (228) 
66:0-1

>  <s_i_glide_gridfile>  (228) 
pfpi4k_grid

>  <i_i_glide_lignum>  (228) 
6

>  <i_i_glide_rotatable_bonds>  (228) 
1

>  <r_i_docking_score>  (228) 
-3.74509

>  <r_i_glide_ligand_efficiency>  (228) 
-0.249673

>  <r_i_glide_ligand_efficiency_sa>  (228) 
-0.615746

>  <r_i_glide_ligand_efficiency_ln>  (228) 
-1.00999

>  <r_i_glide_gscore>  (228) 
-3.74509

>  <r_i_glide_lipo>  (228) 
-0.0441383

>  <r_i_glide_hbond>  (228) 
-0.388893

>  <r_i_glide_metal>  (228) 
-0

>  <r_i_glide_rewards>  (228) 
-1.91161

>  <r_i_glide_evdw>  (228) 
-15.9569

>  <r_i_glide_ecoul>  (228) 
-5.14937

>  <r_i_glide_erotb>  (228) 
0.349001

>  <r_i_glide_esite>  (228) 
-0.179194

>  <r_i_glide_emodel>  (228) 
-27.073

>  <r_i_glide_energy>  (228) 
-21.1063

>  <r_i_glide_einternal>  (228) 
0.511003

>  <r_i_glide_intrahb_reward>  (228) 
-0

>  <i_i_glide_confnum>  (228) 
2

>  <i_i_glide_posenum>  (228) 
9

>  <r_i_glide_eff_state_penalty>  (228) 
0

>  <ligand_id>  (228) 
66

>  <original_smiles>  (228) 
Clc1cnc2c(c1)ncn2-c1cc[nH]n1

>  <smiles>  (228) 
[H]c1nc2c(nc([H])n2-c2nn([H])c([H])c2[H])c([H])c1Cl

$$$$
66:0:2
     RDKit          3D

 21 23  0  0  1  0  0  0  0  0999 V2000
   -2.3355    2.6528    9.6900 Cl  0  0  0  0  0  0  0  0  0  0  0  0
   -1.8471    2.4264    8.0539 C   0  0  0  0  0  0  0  0  0  0  0  0
   -0.9726    1.3760    7.7013 C   0  0  0  0  0  0  0  0  0  0  0  0
   -0.5599    1.1170    6.4378 N   0  0  0  0  0  0  0  0  0  0  0  0
   -1.0220    1.9977    5.4929 C   0  0  0  0  0  0  0  0  0  0  0  0
   -1.8995    3.0999    5.7254 C   0  0  0  0  0  0  0  0  0  0  0  0
   -2.3212    3.2983    7.0554 C   0  0  0  0  0  0  0  0  0  0  0  0
   -2.1844    3.7856    4.5567 N   0  0  0  0  0  0  0  0  0  0  0  0
   -1.4933    3.0867    3.6649 C   0  0  0  0  0  0  0  0  0  0  0  0
   -0.7733    2.0389    4.1236 N   0  0  0  0  0  0  0  0  0  0  0  0
    0.0170    1.1969    3.3275 C   0  0  0  0  0  0  0  0  0  0  0  0
    1.2241    0.5924    3.7897 C   0  0  0  0  0  0  0  0  0  0  0  0
    1.6845   -0.0816    2.6921 C   0  0  0  0  0  0  0  0  0  0  0  0
    0.7773    0.1424    1.6880 N   0  0  0  0  0  0  0  0  0  0  0  0
   -0.2526    0.9123    2.0712 N   0  0  0  0  0  0  0  0  0  0  0  0
    0.8293   -0.2257    0.7199 H   0  0  0  0  0  0  0  0  0  0  0  0
   -0.5960    0.7086    8.4643 H   0  0  0  0  0  0  0  0  0  0  0  0
   -2.9859    4.1107    7.3026 H   0  0  0  0  0  0  0  0  0  0  0  0
   -1.4928    3.3444    2.6132 H   0  0  0  0  0  0  0  0  0  0  0  0
    1.6892    0.6551    4.7590 H   0  0  0  0  0  0  0  0  0  0  0  0
    2.5656   -0.6824    2.5392 H   0  0  0  0  0  0  0  0  0  0  0  0
  1  2  1  0
  2  7  2  0
  2  3  1  0
  3  4  2  0
  3 17  1  0
  4  5  1  0
  5 10  1  0
  5  6  2  0
  6  7  1  0
  6  8  1  0
  7 18  1  0
  8  9  2  0
  9 10  1  0
  9 19  1  0
 10 11  1  0
 11 15  2  0
 11 12  1  0
 12 13  2  0
 12 20  1  0
 13 14  1  0
 13 21  1  0
 14 16  1  0
 14 15  1  0
M  END
>  <i_m_ct_stereo_status>  (229) 
1

>  <s_m_source_file>  (229) 
/var/tmp/pbs.5076255.sched01/tmprva83imr/861x3d95ot.sdf

>  <i_m_source_file_index>  (229) 
6

>  <i_lp_mmshare_version>  (229) 
48012

>  <i_f3d_flags>  (229) 
0

>  <s_epik_input>  (229) 
bjFbY0hdYyhDbClbY0hdYyhjMTIpbltjSF1uMi1jM1tjSF1bY0hdW25IXW4z

>  <s_epik_cmdline>  (229) 
J2VwaWtfcHl0aG9uJywgJy1waHQnLCAnMi4wJywgJy1waCcsICc3LjAnLCAnLXRuJywgJzgnLCAnLW1hJywgJzIwMCcsICctaW1hZScsICc8aW5maWxlLm1hZT4nLCAnLW9tYWUnLCAnPG91dGZpbGUubWFlPic=

>  <r_lp_tautomer_probability>  (229) 
1

>  <r_epik_Ionization_Penalty>  (229) 
7.35227e-06

>  <r_epik_Ionization_Penalty_Charging>  (229) 
4.06456e-06

>  <r_epik_Ionization_Penalty_Neutral>  (229) 
3.28772e-06

>  <r_epik_State_Penalty>  (229) 
-0

>  <r_epik_Charging_Adjusted_Penalty>  (229) 
4.06456e-06

>  <i_epik_Tot_Q>  (229) 
0

>  <i_epik_Tot_abs_Q>  (229) 
0

>  <s_lp_Force_Field>  (229) 
OPLS3e

>  <r_lp_Energy>  (229) 
17.6828

>  <b_lp_Chiralities_Consistent>  (229) 
1

>  <s_lp_Variant>  (229) 
66:0-1

>  <s_i_glide_gridfile>  (229) 
pfpi4k_grid

>  <i_i_glide_lignum>  (229) 
6

>  <i_i_glide_rotatable_bonds>  (229) 
1

>  <r_i_docking_score>  (229) 
-3.58756

>  <r_i_glide_ligand_efficiency>  (229) 
-0.239171

>  <r_i_glide_ligand_efficiency_sa>  (229) 
-0.589845

>  <r_i_glide_ligand_efficiency_ln>  (229) 
-0.967505

>  <r_i_glide_gscore>  (229) 
-3.58756

>  <r_i_glide_lipo>  (229) 
-0.123216

>  <r_i_glide_hbond>  (229) 
-0.16

>  <r_i_glide_metal>  (229) 
-0

>  <r_i_glide_rewards>  (229) 
-1.91161

>  <r_i_glide_evdw>  (229) 
-17.2573

>  <r_i_glide_ecoul>  (229) 
-4.40575

>  <r_i_glide_erotb>  (229) 
0.349001

>  <r_i_glide_esite>  (229) 
-0.218002

>  <r_i_glide_emodel>  (229) 
-27.2813

>  <r_i_glide_energy>  (229) 
-21.6631

>  <r_i_glide_einternal>  (229) 
0.628565

>  <r_i_glide_intrahb_reward>  (229) 
-0

>  <i_i_glide_confnum>  (229) 
4

>  <i_i_glide_posenum>  (229) 
12

>  <r_i_glide_eff_state_penalty>  (229) 
0

>  <ligand_id>  (229) 
66

>  <original_smiles>  (229) 
Clc1cnc2c(c1)ncn2-c1cc[nH]n1

>  <smiles>  (229) 
[H]c1nc2c(nc([H])n2-c2nn([H])c([H])c2[H])c([H])c1Cl

$$$$
67:0:0
     RDKit          3D

 54 59  0  0  1  0  0  0  0  0999 V2000
    3.1200   -1.9782    0.9918 C   0  0  0  0  0  0  0  0  0  0  0  0
    3.8347   -3.0003    1.4681 C   0  0  0  0  0  0  0  0  0  0  0  0
    4.5637   -2.9520    2.7432 C   0  0  0  0  0  0  0  0  0  0  0  0
    4.5602   -2.0315    3.5484 O   0  0  0  0  0  0  0  0  0  0  0  0
    5.1939   -4.1200    2.8894 O   0  0  0  0  0  0  0  0  0  0  0  0
    5.1975   -4.9342    1.7241 C   0  0  2  0  0  0  0  0  0  0  0  0
    4.1279   -4.3251    0.8047 C   0  0  1  0  0  0  0  0  0  0  0  0
    2.9023   -5.2556    0.5678 C   0  0  0  0  0  0  0  0  0  0  0  0
    2.4455   -6.0854    1.7969 C   0  0  1  0  0  0  0  0  0  0  0  0
    1.9690   -5.0750    2.8940 C   0  0  0  0  0  0  0  0  0  0  0  0
    1.1795   -6.8957    1.4255 C   0  0  0  0  0  0  0  0  0  0  0  0
    0.6712   -7.8502    2.5233 C   0  0  0  0  0  0  0  0  0  0  0  0
    1.7721   -8.5348    3.3139 C   0  0  0  0  0  0  0  0  0  0  0  0
    2.7157   -9.3634    2.6367 C   0  0  0  0  0  0  0  0  0  0  0  0
    3.2384  -10.3279    3.4052 C   0  0  0  0  0  0  0  0  0  0  0  0
    3.2114  -10.1377    4.7935 O   0  0  0  0  0  0  0  0  0  0  0  0
    3.0744   -8.8319    5.2490 C   0  0  0  0  0  0  0  0  0  0  0  0
    3.4120   -8.4393    6.3801 O   0  0  0  0  0  0  0  0  0  0  0  0
    2.4911   -7.8911    4.2699 C   0  0  0  0  0  0  0  0  0  0  0  0
    3.4449   -7.0409    3.7250 O   0  0  0  0  0  0  0  0  0  0  0  0
    3.6312   -7.0397    2.2730 C   0  0  1  0  0  0  0  0  0  0  0  0
    3.5923   -8.5476    1.6873 C   0  0  1  0  0  0  0  0  0  0  0  0
    5.0056   -9.1451    1.4340 C   0  0  0  0  0  0  0  0  0  0  0  0
    6.0109   -8.7387    2.5228 C   0  0  0  0  0  0  0  0  0  0  0  0
    6.2614   -7.2086    2.5675 C   0  0  0  0  0  0  0  0  0  0  0  0
    6.4959   -6.8308    4.0503 C   0  0  0  0  0  0  0  0  0  0  0  0
    7.5640   -6.8731    1.7987 C   0  0  0  0  0  0  0  0  0  0  0  0
    5.0507   -6.4620    1.9076 C   0  0  2  0  0  0  0  0  0  0  0  0
    2.6233   -2.0249    0.0264 H   0  0  0  0  0  0  0  0  0  0  0  0
    3.0064   -1.0566    1.5507 H   0  0  0  0  0  0  0  0  0  0  0  0
    6.1518   -4.7352    1.2401 H   0  0  0  0  0  0  0  0  0  0  0  0
    4.5676   -4.1083   -0.1719 H   0  0  0  0  0  0  0  0  0  0  0  0
    2.0711   -4.6944    0.1362 H   0  0  0  0  0  0  0  0  0  0  0  0
    3.1856   -5.9584   -0.2172 H   0  0  0  0  0  0  0  0  0  0  0  0
    1.2369   -5.4928    3.5861 H   0  0  0  0  0  0  0  0  0  0  0  0
    1.5106   -4.1838    2.4662 H   0  0  0  0  0  0  0  0  0  0  0  0
    2.7847   -4.7410    3.5321 H   0  0  0  0  0  0  0  0  0  0  0  0
    0.3700   -6.2332    1.1377 H   0  0  0  0  0  0  0  0  0  0  0  0
    1.3538   -7.4773    0.5364 H   0  0  0  0  0  0  0  0  0  0  0  0
    0.0152   -7.3196    3.2107 H   0  0  0  0  0  0  0  0  0  0  0  0
    0.0391   -8.6121    2.0552 H   0  0  0  0  0  0  0  0  0  0  0  0
    4.1185  -10.9106    3.1459 H   0  0  0  0  0  0  0  0  0  0  0  0
    3.1202   -8.5800    0.7220 H   0  0  0  0  0  0  0  0  0  0  0  0
    4.9702  -10.2223    1.3239 H   0  0  0  0  0  0  0  0  0  0  0  0
    5.3700   -8.8325    0.4557 H   0  0  0  0  0  0  0  0  0  0  0  0
    5.6711   -9.1077    3.4923 H   0  0  0  0  0  0  0  0  0  0  0  0
    6.9451   -9.2642    2.3389 H   0  0  0  0  0  0  0  0  0  0  0  0
    6.6618   -5.7626    4.1965 H   0  0  0  0  0  0  0  0  0  0  0  0
    7.3631   -7.3538    4.4593 H   0  0  0  0  0  0  0  0  0  0  0  0
    5.6505   -7.1164    4.6811 H   0  0  0  0  0  0  0  0  0  0  0  0
    7.8485   -5.8293    1.9134 H   0  0  0  0  0  0  0  0  0  0  0  0
    7.4610   -7.0653    0.7349 H   0  0  0  0  0  0  0  0  0  0  0  0
    8.4148   -7.4600    2.1484 H   0  0  0  0  0  0  0  0  0  0  0  0
    5.1521   -6.7170    0.8535 H   0  0  0  0  0  0  0  0  0  0  0  0
  1  2  2  0
  1 29  1  0
  1 30  1  0
  2  7  1  0
  2  3  1  0
  3  4  2  0
  3  5  1  0
  5  6  1  0
  6 28  1  0
  6  7  1  0
  6 31  1  6
  7  8  1  0
  7 32  1  6
  8  9  1  0
  8 33  1  0
  8 34  1  0
  9 21  1  0
  9 10  1  1
  9 11  1  0
 10 35  1  0
 10 36  1  0
 10 37  1  0
 11 12  1  0
 11 38  1  0
 11 39  1  0
 12 13  1  0
 12 40  1  0
 12 41  1  0
 13 19  2  0
 13 14  1  0
 14 22  1  0
 14 15  2  0
 15 16  1  0
 15 42  1  0
 16 17  1  0
 17 18  2  0
 17 19  1  0
 19 20  1  0
 21 20  1  1
 21 28  1  0
 21 22  1  0
 22 23  1  0
 22 43  1  6
 23 24  1  0
 23 44  1  0
 23 45  1  0
 24 25  1  0
 24 46  1  0
 24 47  1  0
 25 26  1  0
 25 27  1  0
 25 28  1  0
 26 48  1  0
 26 49  1  0
 26 50  1  0
 27 51  1  0
 27 52  1  0
 27 53  1  0
 28 54  1  6
M  END
>  <i_m_ct_stereo_status>  (230) 
1

>  <s_m_source_file>  (230) 
/var/tmp/pbs.5076255.sched01/tmprva83imr/861x3d95ot.sdf

>  <i_m_source_file_index>  (230) 
7

>  <i_lp_mmshare_version>  (230) 
48012

>  <i_f3d_flags>  (230) 
0

>  <s_epik_input>  (230) 
W0NIMl09QzFDKD1PKU9bQ0BIXShbQ0BIXTFbQ0gyXVtDQEBdMihbQ0BAXTM0NSlbQ0gzXSlbQ0BIXTVDKFtDSDNdKShbQ0gzXSlbQ0gyXVtDSDJdW0NASF00YzZjKFtDSDJdW0NIMl0yKWMoTzMpYyg9TylvW2NIXTY=

>  <s_epik_cmdline>  (230) 
J2VwaWtfcHl0aG9uJywgJy1waHQnLCAnMi4wJywgJy1waCcsICc3LjAnLCAnLXRuJywgJzgnLCAnLW1hJywgJzIwMCcsICctaW1hZScsICc8aW5maWxlLm1hZT4nLCAnLW9tYWUnLCAnPG91dGZpbGUubWFlPic=

>  <r_lp_tautomer_probability>  (230) 
1

>  <r_epik_Ionization_Penalty>  (230) 
6.16007e-08

>  <r_epik_Ionization_Penalty_Charging>  (230) 
0

>  <r_epik_Ionization_Penalty_Neutral>  (230) 
6.16007e-08

>  <r_epik_State_Penalty>  (230) 
-0

>  <r_epik_Charging_Adjusted_Penalty>  (230) 
0

>  <i_epik_Tot_Q>  (230) 
0

>  <i_epik_Tot_abs_Q>  (230) 
0

>  <s_epik_Chemistry_Notes>  (230) 
This compound has an ester and may undergo hydrolysis at high or low pH.

>  <s_lp_Force_Field>  (230) 
OPLS3e

>  <r_lp_Energy>  (230) 
178.117

>  <b_lp_Chiralities_Consistent>  (230) 
1

>  <s_lp_Variant>  (230) 
67:0-1

>  <s_i_glide_gridfile>  (230) 
pfpi4k_grid

>  <i_i_glide_lignum>  (230) 
7

>  <i_i_glide_rotatable_bonds>  (230) 
0

>  <r_i_docking_score>  (230) 
-2.34003

>  <r_i_glide_ligand_efficiency>  (230) 
-0.0835727

>  <r_i_glide_ligand_efficiency_sa>  (230) 
-0.253776

>  <r_i_glide_ligand_efficiency_ln>  (230) 
-0.540149

>  <r_i_glide_gscore>  (230) 
-2.34003

>  <r_i_glide_lipo>  (230) 
-0.129888

>  <r_i_glide_hbond>  (230) 
0

>  <r_i_glide_metal>  (230) 
-0

>  <r_i_glide_rewards>  (230) 
-0.836048

>  <r_i_glide_evdw>  (230) 
-24.8777

>  <r_i_glide_ecoul>  (230) 
-0.868074

>  <r_i_glide_erotb>  (230) 
0

>  <r_i_glide_esite>  (230) 
0

>  <r_i_glide_emodel>  (230) 
-29.3234

>  <r_i_glide_energy>  (230) 
-25.7458

>  <r_i_glide_einternal>  (230) 
0

>  <r_i_glide_intrahb_reward>  (230) 
-0

>  <i_i_glide_confnum>  (230) 
2

>  <i_i_glide_posenum>  (230) 
1

>  <r_i_glide_eff_state_penalty>  (230) 
0

>  <ligand_id>  (230) 
67

>  <original_smiles>  (230) 
C=C1C(=O)OC2C1CC1(C)CCc3c4coc(=O)c3OC13C4CCC(C)(C)C23

>  <smiles>  (230) 
[H]C([H])=C1C(=O)OC2([H])C1([H])C([H])([H])C1(C([H])([H])[H])C([H])([H])C([H])([H])c3c4c([H])oc(=O)c3OC13C4([H])C([H])([H])C([H])([H])C(C([H])([H])[H])(C([H])([H])[H])C23[H]

$$$$
67:0:1
     RDKit          3D

 54 59  0  0  1  0  0  0  0  0999 V2000
    4.8066   -3.6648    0.9313 C   0  0  0  0  0  0  0  0  0  0  0  0
    4.8492   -4.6123    1.8728 C   0  0  0  0  0  0  0  0  0  0  0  0
    5.0141   -4.3265    3.3072 C   0  0  0  0  0  0  0  0  0  0  0  0
    5.0551   -3.2186    3.8228 O   0  0  0  0  0  0  0  0  0  0  0  0
    5.0388   -5.4942    3.9492 O   0  0  0  0  0  0  0  0  0  0  0  0
    5.1515   -6.6303    3.1029 C   0  0  2  0  0  0  0  0  0  0  0  0
    4.8174   -6.1103    1.6900 C   0  0  1  0  0  0  0  0  0  0  0  0
    3.5042   -6.6991    1.1088 C   0  0  0  0  0  0  0  0  0  0  0  0
    2.3493   -6.8990    2.1227 C   0  0  1  0  0  0  0  0  0  0  0  0
    1.9416   -5.4829    2.6575 C   0  0  0  0  0  0  0  0  0  0  0  0
    1.1046   -7.4139    1.3726 C   0  0  0  0  0  0  0  0  0  0  0  0
   -0.1077   -7.7680    2.2679 C   0  0  0  0  0  0  0  0  0  0  0  0
    0.2685   -8.4094    3.5993 C   0  0  0  0  0  0  0  0  0  0  0  0
    0.9882   -9.6435    3.6050 C   0  0  0  0  0  0  0  0  0  0  0  0
    0.7843  -10.3810    4.7074 C   0  0  0  0  0  0  0  0  0  0  0  0
    0.3414   -9.7099    5.8558 O   0  0  0  0  0  0  0  0  0  0  0  0
    0.5625   -8.3567    5.9390 C   0  0  0  0  0  0  0  0  0  0  0  0
    0.5754   -7.7114    7.0025 O   0  0  0  0  0  0  0  0  0  0  0  0
    0.7777   -7.6848    4.6248 C   0  0  0  0  0  0  0  0  0  0  0  0
    2.1186   -7.3793    4.4402 O   0  0  0  0  0  0  0  0  0  0  0  0
    2.8042   -7.9121    3.2687 C   0  0  1  0  0  0  0  0  0  0  0  0
    2.3901   -9.4699    3.0180 C   0  0  1  0  0  0  0  0  0  0  0  0
    3.4437  -10.4802    3.5699 C   0  0  0  0  0  0  0  0  0  0  0  0
    4.0604  -10.0044    4.8985 C   0  0  0  0  0  0  0  0  0  0  0  0
    4.8543   -8.6727    4.7625 C   0  0  0  0  0  0  0  0  0  0  0  0
    4.6627   -7.8881    6.0869 C   0  0  0  0  0  0  0  0  0  0  0  0
    6.3661   -8.9873    4.6283 C   0  0  0  0  0  0  0  0  0  0  0  0
    4.3631   -7.9024    3.4915 C   0  0  2  0  0  0  0  0  0  0  0  0
    4.7087   -3.9103   -0.1208 H   0  0  0  0  0  0  0  0  0  0  0  0
    4.8698   -2.6145    1.1904 H   0  0  0  0  0  0  0  0  0  0  0  0
    6.2113   -6.8735    3.0828 H   0  0  0  0  0  0  0  0  0  0  0  0
    5.6253   -6.3696    1.0107 H   0  0  0  0  0  0  0  0  0  0  0  0
    3.1716   -6.1192    0.2390 H   0  0  0  0  0  0  0  0  0  0  0  0
    3.7527   -7.6868    0.7007 H   0  0  0  0  0  0  0  0  0  0  0  0
    0.9082   -5.4281    3.0010 H   0  0  0  0  0  0  0  0  0  0  0  0
    2.0579   -4.7131    1.8987 H   0  0  0  0  0  0  0  0  0  0  0  0
    2.5305   -5.1856    3.5254 H   0  0  0  0  0  0  0  0  0  0  0  0
    0.7859   -6.6952    0.6182 H   0  0  0  0  0  0  0  0  0  0  0  0
    1.3762   -8.2862    0.7924 H   0  0  0  0  0  0  0  0  0  0  0  0
   -0.7012   -6.8820    2.4623 H   0  0  0  0  0  0  0  0  0  0  0  0
   -0.7689   -8.4430    1.7229 H   0  0  0  0  0  0  0  0  0  0  0  0
    1.3896  -11.2278    5.0166 H   0  0  0  0  0  0  0  0  0  0  0  0
    2.3396   -9.6974    1.9620 H   0  0  0  0  0  0  0  0  0  0  0  0
    3.0219  -11.4814    3.6717 H   0  0  0  0  0  0  0  0  0  0  0  0
    4.2273  -10.6357    2.8307 H   0  0  0  0  0  0  0  0  0  0  0  0
    3.2831   -9.9122    5.6487 H   0  0  0  0  0  0  0  0  0  0  0  0
    4.7096  -10.7913    5.2856 H   0  0  0  0  0  0  0  0  0  0  0  0
    5.1667   -6.9220    6.0790 H   0  0  0  0  0  0  0  0  0  0  0  0
    5.0422   -8.4491    6.9365 H   0  0  0  0  0  0  0  0  0  0  0  0
    3.6025   -7.6995    6.2971 H   0  0  0  0  0  0  0  0  0  0  0  0
    6.9717   -8.0878    4.6546 H   0  0  0  0  0  0  0  0  0  0  0  0
    6.5830   -9.5045    3.6950 H   0  0  0  0  0  0  0  0  0  0  0  0
    6.7272   -9.6220    5.4408 H   0  0  0  0  0  0  0  0  0  0  0  0
    4.7269   -8.5256    2.6766 H   0  0  0  0  0  0  0  0  0  0  0  0
  1  2  2  0
  1 29  1  0
  1 30  1  0
  2  7  1  0
  2  3  1  0
  3  4  2  0
  3  5  1  0
  5  6  1  0
  6 28  1  0
  6  7  1  0
  6 31  1  6
  7  8  1  0
  7 32  1  6
  8  9  1  0
  8 33  1  0
  8 34  1  0
  9 21  1  0
  9 10  1  1
  9 11  1  0
 10 35  1  0
 10 36  1  0
 10 37  1  0
 11 12  1  0
 11 38  1  0
 11 39  1  0
 12 13  1  0
 12 40  1  0
 12 41  1  0
 13 19  2  0
 13 14  1  0
 14 22  1  0
 14 15  2  0
 15 16  1  0
 15 42  1  0
 16 17  1  0
 17 18  2  0
 17 19  1  0
 19 20  1  0
 21 20  1  1
 21 28  1  0
 21 22  1  0
 22 23  1  0
 22 43  1  6
 23 24  1  0
 23 44  1  0
 23 45  1  0
 24 25  1  0
 24 46  1  0
 24 47  1  0
 25 26  1  0
 25 27  1  0
 25 28  1  0
 26 48  1  0
 26 49  1  0
 26 50  1  0
 27 51  1  0
 27 52  1  0
 27 53  1  0
 28 54  1  6
M  END
>  <i_m_ct_stereo_status>  (231) 
1

>  <s_m_source_file>  (231) 
/var/tmp/pbs.5076255.sched01/tmprva83imr/861x3d95ot.sdf

>  <i_m_source_file_index>  (231) 
7

>  <i_lp_mmshare_version>  (231) 
48012

>  <i_f3d_flags>  (231) 
0

>  <s_epik_input>  (231) 
W0NIMl09QzFDKD1PKU9bQ0BIXShbQ0BIXTFbQ0gyXVtDQEBdMihbQ0BAXTM0NSlbQ0gzXSlbQ0BIXTVDKFtDSDNdKShbQ0gzXSlbQ0gyXVtDSDJdW0NASF00YzZjKFtDSDJdW0NIMl0yKWMoTzMpYyg9TylvW2NIXTY=

>  <s_epik_cmdline>  (231) 
J2VwaWtfcHl0aG9uJywgJy1waHQnLCAnMi4wJywgJy1waCcsICc3LjAnLCAnLXRuJywgJzgnLCAnLW1hJywgJzIwMCcsICctaW1hZScsICc8aW5maWxlLm1hZT4nLCAnLW9tYWUnLCAnPG91dGZpbGUubWFlPic=

>  <r_lp_tautomer_probability>  (231) 
1

>  <r_epik_Ionization_Penalty>  (231) 
6.16007e-08

>  <r_epik_Ionization_Penalty_Charging>  (231) 
0

>  <r_epik_Ionization_Penalty_Neutral>  (231) 
6.16007e-08

>  <r_epik_State_Penalty>  (231) 
-0

>  <r_epik_Charging_Adjusted_Penalty>  (231) 
0

>  <i_epik_Tot_Q>  (231) 
0

>  <i_epik_Tot_abs_Q>  (231) 
0

>  <s_epik_Chemistry_Notes>  (231) 
This compound has an ester and may undergo hydrolysis at high or low pH.

>  <s_lp_Force_Field>  (231) 
OPLS3e

>  <r_lp_Energy>  (231) 
178.117

>  <b_lp_Chiralities_Consistent>  (231) 
1

>  <s_lp_Variant>  (231) 
67:0-1

>  <s_i_glide_gridfile>  (231) 
pfpi4k_grid

>  <i_i_glide_lignum>  (231) 
7

>  <i_i_glide_rotatable_bonds>  (231) 
0

>  <r_i_docking_score>  (231) 
-2.32805

>  <r_i_glide_ligand_efficiency>  (231) 
-0.0831446

>  <r_i_glide_ligand_efficiency_sa>  (231) 
-0.252476

>  <r_i_glide_ligand_efficiency_ln>  (231) 
-0.537382

>  <r_i_glide_gscore>  (231) 
-2.32805

>  <r_i_glide_lipo>  (231) 
-0.160864

>  <r_i_glide_hbond>  (231) 
0

>  <r_i_glide_metal>  (231) 
-0

>  <r_i_glide_rewards>  (231) 
-0.81924

>  <r_i_glide_evdw>  (231) 
-24.1298

>  <r_i_glide_ecoul>  (231) 
-0.943036

>  <r_i_glide_erotb>  (231) 
0

>  <r_i_glide_esite>  (231) 
0

>  <r_i_glide_emodel>  (231) 
-28.6369

>  <r_i_glide_energy>  (231) 
-25.0728

>  <r_i_glide_einternal>  (231) 
0

>  <r_i_glide_intrahb_reward>  (231) 
-0

>  <i_i_glide_confnum>  (231) 
2

>  <i_i_glide_posenum>  (231) 
16

>  <r_i_glide_eff_state_penalty>  (231) 
0

>  <ligand_id>  (231) 
67

>  <original_smiles>  (231) 
C=C1C(=O)OC2C1CC1(C)CCc3c4coc(=O)c3OC13C4CCC(C)(C)C23

>  <smiles>  (231) 
[H]C([H])=C1C(=O)OC2([H])C1([H])C([H])([H])C1(C([H])([H])[H])C([H])([H])C([H])([H])c3c4c([H])oc(=O)c3OC13C4([H])C([H])([H])C([H])([H])C(C([H])([H])[H])(C([H])([H])[H])C23[H]

$$$$
67:0:2
     RDKit          3D

 54 59  0  0  1  0  0  0  0  0999 V2000
    4.2991   -1.3695    0.1241 C   0  0  0  0  0  0  0  0  0  0  0  0
    4.8170   -2.3924    0.8191 C   0  0  0  0  0  0  0  0  0  0  0  0
    5.3575   -2.2514    2.1766 C   0  0  0  0  0  0  0  0  0  0  0  0
    5.3848   -1.2289    2.8492 O   0  0  0  0  0  0  0  0  0  0  0  0
    5.7581   -3.4597    2.5691 O   0  0  0  0  0  0  0  0  0  0  0  0
    5.8626   -4.4105    1.5244 C   0  0  2  0  0  0  0  0  0  0  0  0
    5.0174   -3.8238    0.3806 C   0  0  1  0  0  0  0  0  0  0  0  0
    3.7276   -4.6399    0.0925 C   0  0  0  0  0  0  0  0  0  0  0  0
    3.0249   -5.2311    1.3401 C   0  0  1  0  0  0  0  0  0  0  0  0
    2.5376   -4.0347    2.2239 C   0  0  0  0  0  0  0  0  0  0  0  0
    1.7394   -5.9592    0.8742 C   0  0  0  0  0  0  0  0  0  0  0  0
    0.9532   -6.6771    1.9991 C   0  0  0  0  0  0  0  0  0  0  0  0
    1.8431   -7.3624    3.0324 C   0  0  0  0  0  0  0  0  0  0  0  0
    2.7489   -8.3778    2.5971 C   0  0  0  0  0  0  0  0  0  0  0  0
    3.0421   -9.2787    3.5602 C   0  0  0  0  0  0  0  0  0  0  0  0
    2.8583   -8.8743    4.8831 O   0  0  0  0  0  0  0  0  0  0  0  0
    2.8390   -7.5145    5.1613 C   0  0  0  0  0  0  0  0  0  0  0  0
    3.0724   -7.0253    6.2711 O   0  0  0  0  0  0  0  0  0  0  0  0
    2.4950   -6.6670    3.9830 C   0  0  0  0  0  0  0  0  0  0  0  0
    3.6368   -6.0303    3.4992 O   0  0  0  0  0  0  0  0  0  0  0  0
    4.0011   -6.2373    2.1008 C   0  0  1  0  0  0  0  0  0  0  0  0
    3.8402   -7.8021    1.6941 C   0  0  1  0  0  0  0  0  0  0  0  0
    5.1852   -8.5902    1.7264 C   0  0  0  0  0  0  0  0  0  0  0  0
    6.0844   -8.1401    2.8896 C   0  0  0  0  0  0  0  0  0  0  0  0
    6.5205   -6.6515    2.7899 C   0  0  0  0  0  0  0  0  0  0  0  0
    6.5993   -6.1094    4.2383 C   0  0  0  0  0  0  0  0  0  0  0  0
    7.9430   -6.5738    2.1828 C   0  0  0  0  0  0  0  0  0  0  0  0
    5.5150   -5.8758    1.8687 C   0  0  2  0  0  0  0  0  0  0  0  0
    3.9180   -1.5024   -0.8786 H   0  0  0  0  0  0  0  0  0  0  0  0
    4.2364   -0.3773    0.5533 H   0  0  0  0  0  0  0  0  0  0  0  0
    6.8963   -4.3737    1.1821 H   0  0  0  0  0  0  0  0  0  0  0  0
    5.6093   -3.8006   -0.5339 H   0  0  0  0  0  0  0  0  0  0  0  0
    3.0309   -4.0576   -0.5155 H   0  0  0  0  0  0  0  0  0  0  0  0
    4.0237   -5.4803   -0.5441 H   0  0  0  0  0  0  0  0  0  0  0  0
    1.6728   -4.2689    2.8433 H   0  0  0  0  0  0  0  0  0  0  0  0
    2.2529   -3.1726    1.6188 H   0  0  0  0  0  0  0  0  0  0  0  0
    3.2919   -3.7048    2.9337 H   0  0  0  0  0  0  0  0  0  0  0  0
    1.0874   -5.2730    0.3502 H   0  0  0  0  0  0  0  0  0  0  0  0
    1.9624   -6.6563    0.0829 H   0  0  0  0  0  0  0  0  0  0  0  0
    0.2950   -5.9853    2.5207 H   0  0  0  0  0  0  0  0  0  0  0  0
    0.2929   -7.4235    1.5498 H   0  0  0  0  0  0  0  0  0  0  0  0
    3.8697   -9.9793    3.5093 H   0  0  0  0  0  0  0  0  0  0  0  0
    3.5085   -7.9053    0.6692 H   0  0  0  0  0  0  0  0  0  0  0  0
    5.0184   -9.6694    1.7476 H   0  0  0  0  0  0  0  0  0  0  0  0
    5.7130   -8.4602    0.7846 H   0  0  0  0  0  0  0  0  0  0  0  0
    5.5797   -8.3288    3.8338 H   0  0  0  0  0  0  0  0  0  0  0  0
    6.9635   -8.7874    2.9246 H   0  0  0  0  0  0  0  0  0  0  0  0
    6.8783   -5.0611    4.2766 H   0  0  0  0  0  0  0  0  0  0  0  0
    7.3376   -6.6547    4.8253 H   0  0  0  0  0  0  0  0  0  0  0  0
    5.6517   -6.2062    4.7670 H   0  0  0  0  0  0  0  0  0  0  0  0
    8.3421   -5.5608    2.2073 H   0  0  0  0  0  0  0  0  0  0  0  0
    7.9552   -6.9063    1.1424 H   0  0  0  0  0  0  0  0  0  0  0  0
    8.6598   -7.1941    2.7220 H   0  0  0  0  0  0  0  0  0  0  0  0
    5.7179   -6.2916    0.8828 H   0  0  0  0  0  0  0  0  0  0  0  0
  1  2  2  0
  1 29  1  0
  1 30  1  0
  2  7  1  0
  2  3  1  0
  3  4  2  0
  3  5  1  0
  5  6  1  0
  6 28  1  0
  6  7  1  0
  6 31  1  6
  7  8  1  0
  7 32  1  6
  8  9  1  0
  8 33  1  0
  8 34  1  0
  9 21  1  0
  9 10  1  1
  9 11  1  0
 10 35  1  0
 10 36  1  0
 10 37  1  0
 11 12  1  0
 11 38  1  0
 11 39  1  0
 12 13  1  0
 12 40  1  0
 12 41  1  0
 13 19  2  0
 13 14  1  0
 14 22  1  0
 14 15  2  0
 15 16  1  0
 15 42  1  0
 16 17  1  0
 17 18  2  0
 17 19  1  0
 19 20  1  0
 21 20  1  1
 21 28  1  0
 21 22  1  0
 22 23  1  0
 22 43  1  6
 23 24  1  0
 23 44  1  0
 23 45  1  0
 24 25  1  0
 24 46  1  0
 24 47  1  0
 25 26  1  0
 25 27  1  0
 25 28  1  0
 26 48  1  0
 26 49  1  0
 26 50  1  0
 27 51  1  0
 27 52  1  0
 27 53  1  0
 28 54  1  6
M  END
>  <i_m_ct_stereo_status>  (232) 
1

>  <s_m_source_file>  (232) 
/var/tmp/pbs.5076255.sched01/tmprva83imr/861x3d95ot.sdf

>  <i_m_source_file_index>  (232) 
7

>  <i_lp_mmshare_version>  (232) 
48012

>  <i_f3d_flags>  (232) 
0

>  <s_epik_input>  (232) 
W0NIMl09QzFDKD1PKU9bQ0BIXShbQ0BIXTFbQ0gyXVtDQEBdMihbQ0BAXTM0NSlbQ0gzXSlbQ0BIXTVDKFtDSDNdKShbQ0gzXSlbQ0gyXVtDSDJdW0NASF00YzZjKFtDSDJdW0NIMl0yKWMoTzMpYyg9TylvW2NIXTY=

>  <s_epik_cmdline>  (232) 
J2VwaWtfcHl0aG9uJywgJy1waHQnLCAnMi4wJywgJy1waCcsICc3LjAnLCAnLXRuJywgJzgnLCAnLW1hJywgJzIwMCcsICctaW1hZScsICc8aW5maWxlLm1hZT4nLCAnLW9tYWUnLCAnPG91dGZpbGUubWFlPic=

>  <r_lp_tautomer_probability>  (232) 
1

>  <r_epik_Ionization_Penalty>  (232) 
6.16007e-08

>  <r_epik_Ionization_Penalty_Charging>  (232) 
0

>  <r_epik_Ionization_Penalty_Neutral>  (232) 
6.16007e-08

>  <r_epik_State_Penalty>  (232) 
-0

>  <r_epik_Charging_Adjusted_Penalty>  (232) 
0

>  <i_epik_Tot_Q>  (232) 
0

>  <i_epik_Tot_abs_Q>  (232) 
0

>  <s_epik_Chemistry_Notes>  (232) 
This compound has an ester and may undergo hydrolysis at high or low pH.

>  <s_lp_Force_Field>  (232) 
OPLS3e

>  <r_lp_Energy>  (232) 
178.117

>  <b_lp_Chiralities_Consistent>  (232) 
1

>  <s_lp_Variant>  (232) 
67:0-1

>  <s_i_glide_gridfile>  (232) 
pfpi4k_grid

>  <i_i_glide_lignum>  (232) 
7

>  <i_i_glide_rotatable_bonds>  (232) 
0

>  <r_i_docking_score>  (232) 
-2.23412

>  <r_i_glide_ligand_efficiency>  (232) 
-0.0797901

>  <r_i_glide_ligand_efficiency_sa>  (232) 
-0.24229

>  <r_i_glide_ligand_efficiency_ln>  (232) 
-0.515701

>  <r_i_glide_gscore>  (232) 
-2.23412

>  <r_i_glide_lipo>  (232) 
-0.222293

>  <r_i_glide_hbond>  (232) 
0

>  <r_i_glide_metal>  (232) 
-0

>  <r_i_glide_rewards>  (232) 
-0.880969

>  <r_i_glide_evdw>  (232) 
-22.3394

>  <r_i_glide_ecoul>  (232) 
-0.0926208

>  <r_i_glide_erotb>  (232) 
0

>  <r_i_glide_esite>  (232) 
0

>  <r_i_glide_emodel>  (232) 
-25.8465

>  <r_i_glide_energy>  (232) 
-22.432

>  <r_i_glide_einternal>  (232) 
0

>  <r_i_glide_intrahb_reward>  (232) 
-0

>  <i_i_glide_confnum>  (232) 
1

>  <i_i_glide_posenum>  (232) 
9

>  <r_i_glide_eff_state_penalty>  (232) 
0

>  <ligand_id>  (232) 
67

>  <original_smiles>  (232) 
C=C1C(=O)OC2C1CC1(C)CCc3c4coc(=O)c3OC13C4CCC(C)(C)C23

>  <smiles>  (232) 
[H]C([H])=C1C(=O)OC2([H])C1([H])C([H])([H])C1(C([H])([H])[H])C([H])([H])C([H])([H])c3c4c([H])oc(=O)c3OC13C4([H])C([H])([H])C([H])([H])C(C([H])([H])[H])(C([H])([H])[H])C23[H]

$$$$
68:0:0
     RDKit          3D

 49 55  0  0  1  0  0  0  0  0999 V2000
    3.8037   -0.5149   -4.2797 Br  0  0  0  0  0  0  0  0  0  0  0  0
    4.2471   -2.2539   -3.4015 C   0  0  2  0  0  0  0  0  0  0  0  0
    3.1015   -3.2364   -3.6272 C   0  0  0  0  0  0  0  0  0  0  0  0
    2.2733   -3.1125   -2.3625 C   0  0  0  0  0  0  0  0  0  0  0  0
    3.2155   -2.8605   -1.2701 N   0  0  2  0  0  0  0  0  0  0  0  0
    4.3375   -2.0673   -1.8660 C   0  0  1  0  0  0  0  0  0  0  0  0
    5.7886   -2.2392   -1.2911 C   0  0  0  0  0  0  0  0  0  0  0  0
    6.0123   -3.4128   -0.3085 C   0  0  2  0  0  0  0  0  0  0  0  0
    5.0154   -4.5091   -0.7732 C   0  0  0  0  0  0  0  0  0  0  0  0
    3.5650   -4.0729   -0.4339 C   0  0  1  0  0  0  0  0  0  0  0  0
    3.4837   -3.7639    1.0853 C   0  0  2  0  0  0  0  0  0  0  0  0
    2.4451   -2.9205    1.8844 C   0  0  1  0  0  0  0  0  0  0  0  0
    1.8962   -3.1995    3.2967 C   0  0  0  0  0  0  0  0  0  0  0  0
    3.2446   -2.7929    3.8925 C   0  0  0  0  0  0  0  0  0  0  0  0
    3.5991   -2.1234    2.5591 C   0  0  1  0  0  0  0  0  0  0  0  0
    4.3950   -2.5774    1.3383 C   0  0  1  0  0  0  0  0  0  0  0  0
    5.7919   -3.1168    1.1960 C   0  0  0  0  0  0  0  0  0  0  0  0
    6.1847   -4.0938    2.0160 C   0  0  0  0  0  0  0  0  0  0  0  0
    5.1601   -5.0709    2.4315 C   0  0  0  0  0  0  0  0  0  0  0  0
    5.5135   -6.1314    3.2918 C   0  0  0  0  0  0  0  0  0  0  0  0
    4.5654   -7.1388    3.5867 C   0  0  0  0  0  0  0  0  0  0  0  0
    3.2895   -7.0549    2.9958 C   0  0  0  0  0  0  0  0  0  0  0  0
    2.9808   -5.9696    2.1530 C   0  0  0  0  0  0  0  0  0  0  0  0
    3.8963   -4.9842    1.9058 N   0  0  0  0  0  0  0  0  0  0  0  0
    5.1585   -2.6433   -3.8431 H   0  0  0  0  0  0  0  0  0  0  0  0
    2.5320   -3.0458   -4.5362 H   0  0  0  0  0  0  0  0  0  0  0  0
    3.5184   -4.2442   -3.6949 H   0  0  0  0  0  0  0  0  0  0  0  0
    1.6943   -2.2122   -2.4912 H   0  0  0  0  0  0  0  0  0  0  0  0
    1.5712   -3.9267   -2.2116 H   0  0  0  0  0  0  0  0  0  0  0  0
    4.0675   -1.0251   -1.6816 H   0  0  0  0  0  0  0  0  0  0  0  0
    6.4991   -2.3754   -2.1074 H   0  0  0  0  0  0  0  0  0  0  0  0
    6.1051   -1.3114   -0.8237 H   0  0  0  0  0  0  0  0  0  0  0  0
    7.0415   -3.7664   -0.4269 H   0  0  0  0  0  0  0  0  0  0  0  0
    5.1386   -4.7121   -1.8390 H   0  0  0  0  0  0  0  0  0  0  0  0
    5.2548   -5.4497   -0.2868 H   0  0  0  0  0  0  0  0  0  0  0  0
    2.8885   -4.8852   -0.6768 H   0  0  0  0  0  0  0  0  0  0  0  0
    1.8184   -2.2671    1.2711 H   0  0  0  0  0  0  0  0  0  0  0  0
    1.0967   -2.4997    3.5607 H   0  0  0  0  0  0  0  0  0  0  0  0
    1.5916   -4.2272    3.5067 H   0  0  0  0  0  0  0  0  0  0  0  0
    3.1414   -2.0683    4.7018 H   0  0  0  0  0  0  0  0  0  0  0  0
    3.8966   -3.6134    4.1783 H   0  0  0  0  0  0  0  0  0  0  0  0
    3.3646   -1.0588    2.5379 H   0  0  0  0  0  0  0  0  0  0  0  0
    4.2622   -1.7236    0.6784 H   0  0  0  0  0  0  0  0  0  0  0  0
    7.1137   -4.5952    1.7661 H   0  0  0  0  0  0  0  0  0  0  0  0
    6.5050   -6.2023    3.7148 H   0  0  0  0  0  0  0  0  0  0  0  0
    4.8282   -7.9617    4.2264 H   0  0  0  0  0  0  0  0  0  0  0  0
    2.5603   -7.8352    3.2116 H   0  0  0  0  0  0  0  0  0  0  0  0
    2.0045   -5.8440    1.7078 H   0  0  0  0  0  0  0  0  0  0  0  0
    2.7183   -2.2192   -0.6514 H   0  0  0  0  0  0  0  0  0  0  0  0
  1  2  1  0
  2  6  1  0
  2  3  1  0
  2 25  1  6
  3  4  1  0
  3 26  1  0
  3 27  1  0
  4  5  1  0
  4 28  1  0
  4 29  1  0
  5 10  1  0
  5  6  1  0
  5 49  1  1
  6  7  1  0
  6 30  1  6
  7  8  1  0
  7 31  1  0
  7 32  1  0
  8 17  1  0
  8  9  1  0
  8 33  1  1
  9 10  1  0
  9 34  1  0
  9 35  1  0
 10 11  1  0
 10 36  1  1
 11 16  1  0
 11 24  1  1
 11 12  1  0
 12 15  1  0
 12 13  1  0
 12 37  1  6
 13 14  1  0
 13 38  1  0
 13 39  1  0
 14 15  1  0
 14 40  1  0
 14 41  1  0
 15 16  1  0
 15 42  1  1
 16 17  1  0
 16 43  1  6
 17 18  2  0
 18 19  1  0
 18 44  1  0
 19 24  2  0
 19 20  1  0
 20 21  2  0
 20 45  1  0
 21 22  1  0
 21 46  1  0
 22 23  2  0
 22 47  1  0
 23 24  1  0
 23 48  1  0
M  CHG  2   5   1  24   1
M  END
>  <i_m_ct_stereo_status>  (233) 
1

>  <s_m_source_file>  (233) 
/var/tmp/pbs.5076255.sched01/tmprva83imr/861x3d95ot.sdf

>  <i_m_source_file_index>  (233) 
8

>  <i_lp_mmshare_version>  (233) 
48012

>  <i_f3d_flags>  (233) 
0

>  <s_epik_input>  (233) 
W0NIMl0xW0NIMl1bQ0BASF0oQnIpW0NAQEhdKE4xW0NAQEhdMltDQF0zNDUpW0NIMl1bQ0BIXShbQ0gyXTIpQyhbQ0BASF00W0NASF02W0NAQEhdM1tDSDJdW0NIMl02KT1bQ0hdYzdbbitdNVtjSF1bY0hdW2NIXVtjSF03

>  <s_epik_cmdline>  (233) 
J2VwaWtfcHl0aG9uJywgJy1waHQnLCAnMi4wJywgJy1waCcsICc3LjAnLCAnLXRuJywgJzgnLCAnLW1hJywgJzIwMCcsICctaW1hZScsICc8aW5maWxlLm1hZT4nLCAnLW9tYWUnLCAnPG91dGZpbGUubWFlPic=

>  <r_epik_Ionization_Penalty>  (233) 
0.0330948

>  <r_epik_Ionization_Penalty_Charging>  (233) 
0.0330948

>  <r_epik_Ionization_Penalty_Neutral>  (233) 
0

>  <r_epik_State_Penalty>  (233) 
0.0274546

>  <r_epik_Charging_Adjusted_Penalty>  (233) 
0.0605494

>  <i_epik_Tot_Q>  (233) 
2

>  <i_epik_Tot_abs_Q>  (233) 
2

>  <s_lp_Force_Field>  (233) 
OPLS3e

>  <r_lp_Energy>  (233) 
161.776

>  <b_lp_Chiralities_Consistent>  (233) 
1

>  <s_lp_Variant>  (233) 
68:0-1

>  <s_i_glide_gridfile>  (233) 
pfpi4k_grid

>  <i_i_glide_lignum>  (233) 
8

>  <i_i_glide_rotatable_bonds>  (233) 
0

>  <r_i_docking_score>  (233) 
-4.17682

>  <r_i_glide_ligand_efficiency>  (233) 
-0.174034

>  <r_i_glide_ligand_efficiency_sa>  (233) 
-0.502001

>  <r_i_glide_ligand_efficiency_ln>  (233) 
-0.999704

>  <r_i_glide_gscore>  (233) 
-4.17682

>  <r_i_glide_lipo>  (233) 
-0.984984

>  <r_i_glide_hbond>  (233) 
-0.0314656

>  <r_i_glide_metal>  (233) 
-0

>  <r_i_glide_rewards>  (233) 
-0.79328

>  <r_i_glide_evdw>  (233) 
-27.1672

>  <r_i_glide_ecoul>  (233) 
-6.60192

>  <r_i_glide_erotb>  (233) 
0

>  <r_i_glide_esite>  (233) 
-0.0184411

>  <r_i_glide_emodel>  (233) 
-42.5109

>  <r_i_glide_energy>  (233) 
-33.7691

>  <r_i_glide_einternal>  (233) 
0

>  <r_i_glide_intrahb_reward>  (233) 
-0

>  <i_i_glide_confnum>  (233) 
2

>  <i_i_glide_posenum>  (233) 
26

>  <r_i_glide_eff_state_penalty>  (233) 
0

>  <ligand_id>  (233) 
68

>  <original_smiles>  (233) 
BrC1CCN2C1CC1CC2C23C4CCC4C2C1=Cc1cccc[n+]13

>  <smiles>  (233) 
[H]C1=C2C3([H])C([H])([H])C4([H])C([H])(Br)C([H])([H])C([H])([H])[N+]4([H])C([H])(C3([H])[H])C3([n+]4c([H])c([H])c([H])c([H])c41)C2([H])C1([H])C([H])([H])C([H])([H])C13[H]

$$$$
68:0:1
     RDKit          3D

 49 55  0  0  1  0  0  0  0  0999 V2000
    4.2719   -2.2644   -3.0320 Br  0  0  0  0  0  0  0  0  0  0  0  0
    4.1371   -2.3527   -1.0415 C   0  0  2  0  0  0  0  0  0  0  0  0
    5.4418   -1.8402   -0.4268 C   0  0  0  0  0  0  0  0  0  0  0  0
    6.2626   -3.1047   -0.2022 C   0  0  0  0  0  0  0  0  0  0  0  0
    5.2836   -4.1473    0.1833 N   0  0  2  0  0  0  0  0  0  0  0  0
    4.0290   -3.8295   -0.5933 C   0  0  1  0  0  0  0  0  0  0  0  0
    2.6411   -4.2231    0.0271 C   0  0  0  0  0  0  0  0  0  0  0  0
    2.6382   -4.6510    1.5155 C   0  0  2  0  0  0  0  0  0  0  0  0
    3.7978   -3.8516    2.1732 C   0  0  0  0  0  0  0  0  0  0  0  0
    5.1635   -4.4122    1.6705 C   0  0  1  0  0  0  0  0  0  0  0  0
    5.2039   -5.9489    1.9794 C   0  0  2  0  0  0  0  0  0  0  0  0
    6.1012   -7.0579    1.3535 C   0  0  1  0  0  0  0  0  0  0  0  0
    6.6939   -8.2870    2.0614 C   0  0  0  0  0  0  0  0  0  0  0  0
    5.2964   -8.9135    2.1410 C   0  0  0  0  0  0  0  0  0  0  0  0
    4.8320   -7.9237    1.0641 C   0  0  1  0  0  0  0  0  0  0  0  0
    4.1074   -6.5803    1.1385 C   0  0  1  0  0  0  0  0  0  0  0  0
    2.8222   -6.1651    1.7972 C   0  0  0  0  0  0  0  0  0  0  0  0
    2.6061   -6.5350    3.0702 C   0  0  0  0  0  0  0  0  0  0  0  0
    3.7861   -6.5961    3.9554 C   0  0  0  0  0  0  0  0  0  0  0  0
    3.6376   -6.9434    5.3149 C   0  0  0  0  0  0  0  0  0  0  0  0
    4.7450   -6.8737    6.1770 C   0  0  0  0  0  0  0  0  0  0  0  0
    5.9797   -6.4429    5.6686 C   0  0  0  0  0  0  0  0  0  0  0  0
    6.0883   -6.1106    4.3031 C   0  0  0  0  0  0  0  0  0  0  0  0
    5.0141   -6.2196    3.4713 N   0  0  0  0  0  0  0  0  0  0  0  0
    3.2912   -1.7344   -0.7389 H   0  0  0  0  0  0  0  0  0  0  0  0
    5.9388   -1.0989   -1.0498 H   0  0  0  0  0  0  0  0  0  0  0  0
    5.2285   -1.3807    0.5391 H   0  0  0  0  0  0  0  0  0  0  0  0
    6.6868   -3.4120   -1.1620 H   0  0  0  0  0  0  0  0  0  0  0  0
    7.0904   -2.9766    0.4957 H   0  0  0  0  0  0  0  0  0  0  0  0
    4.1388   -4.4236   -1.5030 H   0  0  0  0  0  0  0  0  0  0  0  0
    1.9807   -3.3612   -0.0546 H   0  0  0  0  0  0  0  0  0  0  0  0
    2.1599   -4.9845   -0.5867 H   0  0  0  0  0  0  0  0  0  0  0  0
    1.6909   -4.3532    1.9653 H   0  0  0  0  0  0  0  0  0  0  0  0
    3.6938   -2.7854    1.9625 H   0  0  0  0  0  0  0  0  0  0  0  0
    3.7297   -3.9280    3.2563 H   0  0  0  0  0  0  0  0  0  0  0  0
    5.9710   -3.9088    2.1997 H   0  0  0  0  0  0  0  0  0  0  0  0
    6.6520   -6.7320    0.4797 H   0  0  0  0  0  0  0  0  0  0  0  0
    7.3617   -8.8519    1.4081 H   0  0  0  0  0  0  0  0  0  0  0  0
    7.1759   -8.1046    3.0200 H   0  0  0  0  0  0  0  0  0  0  0  0
    5.2746   -9.9476    1.7954 H   0  0  0  0  0  0  0  0  0  0  0  0
    4.7940   -8.8213    3.1011 H   0  0  0  0  0  0  0  0  0  0  0  0
    4.8312   -8.3580    0.0643 H   0  0  0  0  0  0  0  0  0  0  0  0
    4.0737   -6.3069    0.0841 H   0  0  0  0  0  0  0  0  0  0  0  0
    1.7782   -6.0595    3.5717 H   0  0  0  0  0  0  0  0  0  0  0  0
    2.6779   -7.2456    5.7027 H   0  0  0  0  0  0  0  0  0  0  0  0
    4.6357   -7.1293    7.2192 H   0  0  0  0  0  0  0  0  0  0  0  0
    6.8358   -6.3852    6.3263 H   0  0  0  0  0  0  0  0  0  0  0  0
    7.0226   -5.8136    3.8525 H   0  0  0  0  0  0  0  0  0  0  0  0
    5.6345   -5.0128   -0.2026 H   0  0  0  0  0  0  0  0  0  0  0  0
  1  2  1  0
  2  6  1  0
  2  3  1  0
  2 25  1  1
  3  4  1  0
  3 26  1  0
  3 27  1  0
  4  5  1  0
  4 28  1  0
  4 29  1  0
  5 10  1  0
  5  6  1  0
  5 49  1  6
  6  7  1  0
  6 30  1  6
  7  8  1  0
  7 31  1  0
  7 32  1  0
  8 17  1  0
  8  9  1  0
  8 33  1  1
  9 10  1  0
  9 34  1  0
  9 35  1  0
 10 11  1  0
 10 36  1  1
 11 16  1  0
 11 24  1  1
 11 12  1  0
 12 15  1  0
 12 13  1  0
 12 37  1  6
 13 14  1  0
 13 38  1  0
 13 39  1  0
 14 15  1  0
 14 40  1  0
 14 41  1  0
 15 16  1  0
 15 42  1  6
 16 17  1  0
 16 43  1  6
 17 18  2  0
 18 19  1  0
 18 44  1  0
 19 24  2  0
 19 20  1  0
 20 21  2  0
 20 45  1  0
 21 22  1  0
 21 46  1  0
 22 23  2  0
 22 47  1  0
 23 24  1  0
 23 48  1  0
M  CHG  2   5   1  24   1
M  END
>  <i_m_ct_stereo_status>  (234) 
1

>  <s_m_source_file>  (234) 
/var/tmp/pbs.5076255.sched01/tmprva83imr/861x3d95ot.sdf

>  <i_m_source_file_index>  (234) 
8

>  <i_lp_mmshare_version>  (234) 
48012

>  <i_f3d_flags>  (234) 
0

>  <s_epik_input>  (234) 
W0NIMl0xW0NIMl1bQ0BASF0oQnIpW0NAQEhdKE4xW0NAQEhdMltDQF0zNDUpW0NIMl1bQ0BIXShbQ0gyXTIpQyhbQ0BASF00W0NASF02W0NAQEhdM1tDSDJdW0NIMl02KT1bQ0hdYzdbbitdNVtjSF1bY0hdW2NIXVtjSF03

>  <s_epik_cmdline>  (234) 
J2VwaWtfcHl0aG9uJywgJy1waHQnLCAnMi4wJywgJy1waCcsICc3LjAnLCAnLXRuJywgJzgnLCAnLW1hJywgJzIwMCcsICctaW1hZScsICc8aW5maWxlLm1hZT4nLCAnLW9tYWUnLCAnPG91dGZpbGUubWFlPic=

>  <r_epik_Ionization_Penalty>  (234) 
0.0330948

>  <r_epik_Ionization_Penalty_Charging>  (234) 
0.0330948

>  <r_epik_Ionization_Penalty_Neutral>  (234) 
0

>  <r_epik_State_Penalty>  (234) 
0.0274546

>  <r_epik_Charging_Adjusted_Penalty>  (234) 
0.0605494

>  <i_epik_Tot_Q>  (234) 
2

>  <i_epik_Tot_abs_Q>  (234) 
2

>  <s_lp_Force_Field>  (234) 
OPLS3e

>  <r_lp_Energy>  (234) 
161.776

>  <b_lp_Chiralities_Consistent>  (234) 
1

>  <s_lp_Variant>  (234) 
68:0-1

>  <s_i_glide_gridfile>  (234) 
pfpi4k_grid

>  <i_i_glide_lignum>  (234) 
8

>  <i_i_glide_rotatable_bonds>  (234) 
0

>  <r_i_docking_score>  (234) 
-3.1546

>  <r_i_glide_ligand_efficiency>  (234) 
-0.131442

>  <r_i_glide_ligand_efficiency_sa>  (234) 
-0.379143

>  <r_i_glide_ligand_efficiency_ln>  (234) 
-0.755041

>  <r_i_glide_gscore>  (234) 
-3.1546

>  <r_i_glide_lipo>  (234) 
-0.586973

>  <r_i_glide_hbond>  (234) 
0

>  <r_i_glide_metal>  (234) 
-0

>  <r_i_glide_rewards>  (234) 
-0.781769

>  <r_i_glide_evdw>  (234) 
-23.608

>  <r_i_glide_ecoul>  (234) 
-4.03639

>  <r_i_glide_erotb>  (234) 
0

>  <r_i_glide_esite>  (234) 
0

>  <r_i_glide_emodel>  (234) 
-34.1884

>  <r_i_glide_energy>  (234) 
-27.6444

>  <r_i_glide_einternal>  (234) 
0

>  <r_i_glide_intrahb_reward>  (234) 
-0

>  <i_i_glide_confnum>  (234) 
1

>  <i_i_glide_posenum>  (234) 
23

>  <r_i_glide_eff_state_penalty>  (234) 
0

>  <ligand_id>  (234) 
68

>  <original_smiles>  (234) 
BrC1CCN2C1CC1CC2C23C4CCC4C2C1=Cc1cccc[n+]13

>  <smiles>  (234) 
[H]C1=C2C3([H])C([H])([H])C4([H])C([H])(Br)C([H])([H])C([H])([H])[N+]4([H])C([H])(C3([H])[H])C3([n+]4c([H])c([H])c([H])c([H])c41)C2([H])C1([H])C([H])([H])C([H])([H])C13[H]

$$$$
68:1:0
     RDKit          3D

 48 54  0  0  1  0  0  0  0  0999 V2000
    5.5451   -7.3780    5.8148 Br  0  0  0  0  0  0  0  0  0  0  0  0
    5.8270   -7.4054    3.8461 C   0  0  2  0  0  0  0  0  0  0  0  0
    7.3020   -7.3524    3.5126 C   0  0  0  0  0  0  0  0  0  0  0  0
    7.2925   -6.7989    2.0899 C   0  0  0  0  0  0  0  0  0  0  0  0
    6.2047   -5.8177    2.0818 N   0  0  0  0  0  0  0  0  0  0  0  0
    5.2592   -6.1440    3.1883 C   0  0  1  0  0  0  0  0  0  0  0  0
    3.7163   -6.2088    2.8801 C   0  0  0  0  0  0  0  0  0  0  0  0
    3.2756   -5.7080    1.4788 C   0  0  2  0  0  0  0  0  0  0  0  0
    4.3740   -6.2313    0.5080 C   0  0  0  0  0  0  0  0  0  0  0  0
    5.6973   -5.4320    0.7422 C   0  0  1  0  0  0  0  0  0  0  0  0
    5.3964   -3.9022    0.6164 C   0  0  2  0  0  0  0  0  0  0  0  0
    6.1955   -2.6737    1.1583 C   0  0  1  0  0  0  0  0  0  0  0  0
    6.3901   -1.3267    0.4422 C   0  0  0  0  0  0  0  0  0  0  0  0
    4.9183   -0.9702    0.6801 C   0  0  0  0  0  0  0  0  0  0  0  0
    4.8652   -2.0757    1.7472 C   0  0  1  0  0  0  0  0  0  0  0  0
    4.4102   -3.5364    1.7039 C   0  0  1  0  0  0  0  0  0  0  0  0
    3.1179   -4.1724    1.2856 C   0  0  0  0  0  0  0  0  0  0  0  0
    2.5841   -3.7972    0.1158 C   0  0  0  0  0  0  0  0  0  0  0  0
    3.5005   -3.4357   -0.9678 C   0  0  0  0  0  0  0  0  0  0  0  0
    3.0031   -3.0585   -2.2302 C   0  0  0  0  0  0  0  0  0  0  0  0
    3.8950   -2.8878   -3.3012 C   0  0  0  0  0  0  0  0  0  0  0  0
    5.2620   -3.1165   -3.0871 C   0  0  0  0  0  0  0  0  0  0  0  0
    5.7169   -3.4613   -1.8053 C   0  0  0  0  0  0  0  0  0  0  0  0
    4.8430   -3.5916   -0.7698 N   0  0  0  0  0  0  0  0  0  0  0  0
    5.3866   -8.3164    3.4455 H   0  0  0  0  0  0  0  0  0  0  0  0
    7.8075   -6.6539    4.1809 H   0  0  0  0  0  0  0  0  0  0  0  0
    7.7999   -8.3186    3.5917 H   0  0  0  0  0  0  0  0  0  0  0  0
    8.2409   -6.3298    1.8263 H   0  0  0  0  0  0  0  0  0  0  0  0
    7.0949   -7.6017    1.3781 H   0  0  0  0  0  0  0  0  0  0  0  0
    5.4132   -5.3496    3.9183 H   0  0  0  0  0  0  0  0  0  0  0  0
    3.3836   -7.2483    2.9515 H   0  0  0  0  0  0  0  0  0  0  0  0
    3.1598   -5.6850    3.6635 H   0  0  0  0  0  0  0  0  0  0  0  0
    2.3131   -6.1616    1.2354 H   0  0  0  0  0  0  0  0  0  0  0  0
    4.5166   -7.3074    0.6360 H   0  0  0  0  0  0  0  0  0  0  0  0
    4.0418   -6.1132   -0.5249 H   0  0  0  0  0  0  0  0  0  0  0  0
    6.4355   -5.7236   -0.0009 H   0  0  0  0  0  0  0  0  0  0  0  0
    6.9346   -2.9234    1.9222 H   0  0  0  0  0  0  0  0  0  0  0  0
    7.0622   -0.6678    0.9936 H   0  0  0  0  0  0  0  0  0  0  0  0
    6.6837   -1.3826   -0.5997 H   0  0  0  0  0  0  0  0  0  0  0  0
    4.7920    0.0293    1.1007 H   0  0  0  0  0  0  0  0  0  0  0  0
    4.2566   -1.1021   -0.1752 H   0  0  0  0  0  0  0  0  0  0  0  0
    5.0184   -1.6920    2.7615 H   0  0  0  0  0  0  0  0  0  0  0  0
    4.6505   -3.8370    2.7140 H   0  0  0  0  0  0  0  0  0  0  0  0
    1.7904   -4.4170   -0.2704 H   0  0  0  0  0  0  0  0  0  0  0  0
    1.9426   -2.9389   -2.3899 H   0  0  0  0  0  0  0  0  0  0  0  0
    3.5186   -2.6336   -4.2798 H   0  0  0  0  0  0  0  0  0  0  0  0
    5.9662   -3.0528   -3.8966 H   0  0  0  0  0  0  0  0  0  0  0  0
    6.7621   -3.6029   -1.5664 H   0  0  0  0  0  0  0  0  0  0  0  0
  1  2  1  0
  2  6  1  0
  2  3  1  0
  2 25  1  6
  3  4  1  0
  3 26  1  0
  3 27  1  0
  4  5  1  0
  4 28  1  0
  4 29  1  0
  5 10  1  0
  5  6  1  0
  6  7  1  0
  6 30  1  1
  7  8  1  0
  7 31  1  0
  7 32  1  0
  8 17  1  0
  8  9  1  0
  8 33  1  6
  9 10  1  0
  9 34  1  0
  9 35  1  0
 10 11  1  0
 10 36  1  6
 11 16  1  0
 11 24  1  6
 11 12  1  0
 12 15  1  0
 12 13  1  0
 12 37  1  1
 13 14  1  0
 13 38  1  0
 13 39  1  0
 14 15  1  0
 14 40  1  0
 14 41  1  0
 15 16  1  0
 15 42  1  1
 16 17  1  0
 16 43  1  1
 17 18  2  0
 18 19  1  0
 18 44  1  0
 19 24  2  0
 19 20  1  0
 20 21  2  0
 20 45  1  0
 21 22  1  0
 21 46  1  0
 22 23  2  0
 22 47  1  0
 23 24  1  0
 23 48  1  0
M  CHG  1  24   1
M  END
>  <i_m_ct_stereo_status>  (235) 
1

>  <s_m_source_file>  (235) 
/var/tmp/pbs.5076255.sched01/tmprva83imr/861x3d95ot.sdf

>  <i_m_source_file_index>  (235) 
9

>  <i_lp_mmshare_version>  (235) 
48012

>  <i_f3d_flags>  (235) 
0

>  <s_epik_input>  (235) 
W0NIMl0xW0NIMl1bQ0BASF0oQnIpW0NAQEhdKE4xW0NAQEhdMltDQF0zNDUpW0NIMl1bQ0BIXShbQ0gyXTIpQyhbQ0BASF00W0NASF02W0NAQEhdM1tDSDJdW0NIMl02KT1bQ0hdYzdbbitdNVtjSF1bY0hdW2NIXVtjSF03

>  <s_epik_cmdline>  (235) 
J2VwaWtfcHl0aG9uJywgJy1waHQnLCAnMi4wJywgJy1waCcsICc3LjAnLCAnLXRuJywgJzgnLCAnLW1hJywgJzIwMCcsICctaW1hZScsICc8aW5maWxlLm1hZT4nLCAnLW9tYWUnLCAnPG91dGZpbGUubWFlPic=

>  <r_epik_Ionization_Penalty>  (235) 
1.72576

>  <r_epik_Ionization_Penalty_Charging>  (235) 
0

>  <r_epik_Ionization_Penalty_Neutral>  (235) 
1.72576

>  <r_epik_State_Penalty>  (235) 
1.83367

>  <r_epik_Charging_Adjusted_Penalty>  (235) 
1.83367

>  <i_epik_Tot_Q>  (235) 
1

>  <i_epik_Tot_abs_Q>  (235) 
1

>  <s_lp_Force_Field>  (235) 
OPLS3e

>  <r_lp_Energy>  (235) 
148.041

>  <b_lp_Chiralities_Consistent>  (235) 
1

>  <s_lp_Variant>  (235) 
68:0-2

>  <s_i_glide_gridfile>  (235) 
pfpi4k_grid

>  <i_i_glide_lignum>  (235) 
9

>  <i_i_glide_rotatable_bonds>  (235) 
0

>  <r_i_docking_score>  (235) 
-3.38198

>  <r_i_glide_ligand_efficiency>  (235) 
-0.140916

>  <r_i_glide_ligand_efficiency_sa>  (235) 
-0.406471

>  <r_i_glide_ligand_efficiency_ln>  (235) 
-0.809462

>  <r_i_glide_gscore>  (235) 
-3.38198

>  <r_i_glide_lipo>  (235) 
-1.13601

>  <r_i_glide_hbond>  (235) 
0

>  <r_i_glide_metal>  (235) 
-0

>  <r_i_glide_rewards>  (235) 
-0.840803

>  <r_i_glide_evdw>  (235) 
-24.5327

>  <r_i_glide_ecoul>  (235) 
-1.19016

>  <r_i_glide_erotb>  (235) 
0

>  <r_i_glide_esite>  (235) 
0

>  <r_i_glide_emodel>  (235) 
-31.5214

>  <r_i_glide_energy>  (235) 
-25.7229

>  <r_i_glide_einternal>  (235) 
0

>  <r_i_glide_intrahb_reward>  (235) 
-0

>  <i_i_glide_confnum>  (235) 
2

>  <i_i_glide_posenum>  (235) 
12

>  <r_i_glide_eff_state_penalty>  (235) 
0

>  <ligand_id>  (235) 
68

>  <original_smiles>  (235) 
BrC1CCN2C1CC1CC2C23C4CCC4C2C1=Cc1cccc[n+]13

>  <smiles>  (235) 
[H]C1=C2C3([H])C([H])([H])C4([H])N(C([H])([H])C([H])([H])C4([H])Br)C([H])(C3([H])[H])C3([n+]4c([H])c([H])c([H])c([H])c41)C2([H])C1([H])C([H])([H])C([H])([H])C13[H]

$$$$
68:1:1
     RDKit          3D

 48 54  0  0  1  0  0  0  0  0999 V2000
    6.8794   -7.0983    5.2474 Br  0  0  0  0  0  0  0  0  0  0  0  0
    7.0216   -6.8357    3.2802 C   0  0  2  0  0  0  0  0  0  0  0  0
    8.3713   -6.2616    2.9098 C   0  0  0  0  0  0  0  0  0  0  0  0
    8.0835   -5.5988    1.5578 C   0  0  0  0  0  0  0  0  0  0  0  0
    6.7330   -5.0475    1.7050 N   0  0  0  0  0  0  0  0  0  0  0  0
    6.0222   -5.7692    2.7963 C   0  0  1  0  0  0  0  0  0  0  0  0
    4.5781   -6.3178    2.5126 C   0  0  0  0  0  0  0  0  0  0  0  0
    3.8894   -5.8403    1.2035 C   0  0  2  0  0  0  0  0  0  0  0  0
    5.0320   -5.8706    0.1567 C   0  0  0  0  0  0  0  0  0  0  0  0
    6.0418   -4.7112    0.4267 C   0  0  1  0  0  0  0  0  0  0  0  0
    5.2572   -3.3757    0.5189 C   0  0  2  0  0  0  0  0  0  0  0  0
    5.6350   -2.0025    1.1429 C   0  0  1  0  0  0  0  0  0  0  0  0
    5.3418   -0.6051    0.5924 C   0  0  0  0  0  0  0  0  0  0  0  0
    3.8517   -0.7810    0.9156 C   0  0  0  0  0  0  0  0  0  0  0  0
    4.2277   -1.9460    1.8372 C   0  0  1  0  0  0  0  0  0  0  0  0
    4.2701   -3.4590    1.6452 C   0  0  1  0  0  0  0  0  0  0  0  0
    3.2392   -4.4402    1.1999 C   0  0  0  0  0  0  0  0  0  0  0  0
    2.5243   -4.1719    0.0925 C   0  0  0  0  0  0  0  0  0  0  0  0
    3.2170   -3.4190   -0.9577 C   0  0  0  0  0  0  0  0  0  0  0  0
    2.5320   -3.0971   -2.1713 C   0  0  0  0  0  0  0  0  0  0  0  0
    3.2422   -2.5290   -3.2445 C   0  0  0  0  0  0  0  0  0  0  0  0
    4.6229   -2.2862   -3.0941 C   0  0  0  0  0  0  0  0  0  0  0  0
    5.2541   -2.6085   -1.8662 C   0  0  0  0  0  0  0  0  0  0  0  0
    4.5454   -3.1288   -0.8331 N   0  0  0  0  0  0  0  0  0  0  0  0
    6.8784   -7.7937    2.7841 H   0  0  0  0  0  0  0  0  0  0  0  0
    8.6624   -5.5030    3.6421 H   0  0  0  0  0  0  0  0  0  0  0  0
    9.1622   -7.0113    2.8693 H   0  0  0  0  0  0  0  0  0  0  0  0
    8.8044   -4.8174    1.3349 H   0  0  0  0  0  0  0  0  0  0  0  0
    8.1164   -6.3518    0.7705 H   0  0  0  0  0  0  0  0  0  0  0  0
    5.9603   -5.0491    3.6040 H   0  0  0  0  0  0  0  0  0  0  0  0
    4.5982   -7.4074    2.4870 H   0  0  0  0  0  0  0  0  0  0  0  0
    3.9337   -6.0900    3.3781 H   0  0  0  0  0  0  0  0  0  0  0  0
    3.1242   -6.5727    0.9378 H   0  0  0  0  0  0  0  0  0  0  0  0
    5.5086   -6.8427    0.1626 H   0  0  0  0  0  0  0  0  0  0  0  0
    4.6161   -5.7726   -0.8560 H   0  0  0  0  0  0  0  0  0  0  0  0
    6.7924   -4.6466   -0.3434 H   0  0  0  0  0  0  0  0  0  0  0  0
    6.4662   -2.0554    1.8667 H   0  0  0  0  0  0  0  0  0  0  0  0
    5.8039    0.1636    1.2050 H   0  0  0  0  0  0  0  0  0  0  0  0
    5.5667   -0.4390   -0.4609 H   0  0  0  0  0  0  0  0  0  0  0  0
    3.4379    0.0694    1.4522 H   0  0  0  0  0  0  0  0  0  0  0  0
    3.2152   -1.0436    0.0691 H   0  0  0  0  0  0  0  0  0  0  0  0
    4.3170   -1.6379    2.8897 H   0  0  0  0  0  0  0  0  0  0  0  0
    4.6685   -3.7611    2.6051 H   0  0  0  0  0  0  0  0  0  0  0  0
    1.9471   -4.9737   -0.3367 H   0  0  0  0  0  0  0  0  0  0  0  0
    1.4856   -3.3259   -2.2958 H   0  0  0  0  0  0  0  0  0  0  0  0
    2.7400   -2.3092   -4.1692 H   0  0  0  0  0  0  0  0  0  0  0  0
    5.1655   -1.8540   -3.9090 H   0  0  0  0  0  0  0  0  0  0  0  0
    6.2964   -2.4195   -1.6867 H   0  0  0  0  0  0  0  0  0  0  0  0
  1  2  1  0
  2  6  1  0
  2  3  1  0
  2 25  1  6
  3  4  1  0
  3 26  1  0
  3 27  1  0
  4  5  1  0
  4 28  1  0
  4 29  1  0
  5 10  1  0
  5  6  1  0
  6  7  1  0
  6 30  1  1
  7  8  1  0
  7 31  1  0
  7 32  1  0
  8 17  1  0
  8  9  1  0
  8 33  1  6
  9 10  1  0
  9 34  1  0
  9 35  1  0
 10 11  1  0
 10 36  1  6
 11 16  1  0
 11 24  1  6
 11 12  1  0
 12 15  1  0
 12 13  1  0
 12 37  1  1
 13 14  1  0
 13 38  1  0
 13 39  1  0
 14 15  1  0
 14 40  1  0
 14 41  1  0
 15 16  1  0
 15 42  1  1
 16 17  1  0
 16 43  1  1
 17 18  2  0
 18 19  1  0
 18 44  1  0
 19 24  2  0
 19 20  1  0
 20 21  2  0
 20 45  1  0
 21 22  1  0
 21 46  1  0
 22 23  2  0
 22 47  1  0
 23 24  1  0
 23 48  1  0
M  CHG  1  24   1
M  END
>  <i_m_ct_stereo_status>  (236) 
1

>  <s_m_source_file>  (236) 
/var/tmp/pbs.5076255.sched01/tmprva83imr/861x3d95ot.sdf

>  <i_m_source_file_index>  (236) 
9

>  <i_lp_mmshare_version>  (236) 
48012

>  <i_f3d_flags>  (236) 
0

>  <s_epik_input>  (236) 
W0NIMl0xW0NIMl1bQ0BASF0oQnIpW0NAQEhdKE4xW0NAQEhdMltDQF0zNDUpW0NIMl1bQ0BIXShbQ0gyXTIpQyhbQ0BASF00W0NASF02W0NAQEhdM1tDSDJdW0NIMl02KT1bQ0hdYzdbbitdNVtjSF1bY0hdW2NIXVtjSF03

>  <s_epik_cmdline>  (236) 
J2VwaWtfcHl0aG9uJywgJy1waHQnLCAnMi4wJywgJy1waCcsICc3LjAnLCAnLXRuJywgJzgnLCAnLW1hJywgJzIwMCcsICctaW1hZScsICc8aW5maWxlLm1hZT4nLCAnLW9tYWUnLCAnPG91dGZpbGUubWFlPic=

>  <r_epik_Ionization_Penalty>  (236) 
1.72576

>  <r_epik_Ionization_Penalty_Charging>  (236) 
0

>  <r_epik_Ionization_Penalty_Neutral>  (236) 
1.72576

>  <r_epik_State_Penalty>  (236) 
1.83367

>  <r_epik_Charging_Adjusted_Penalty>  (236) 
1.83367

>  <i_epik_Tot_Q>  (236) 
1

>  <i_epik_Tot_abs_Q>  (236) 
1

>  <s_lp_Force_Field>  (236) 
OPLS3e

>  <r_lp_Energy>  (236) 
148.041

>  <b_lp_Chiralities_Consistent>  (236) 
1

>  <s_lp_Variant>  (236) 
68:0-2

>  <s_i_glide_gridfile>  (236) 
pfpi4k_grid

>  <i_i_glide_lignum>  (236) 
9

>  <i_i_glide_rotatable_bonds>  (236) 
0

>  <r_i_docking_score>  (236) 
-3.34136

>  <r_i_glide_ligand_efficiency>  (236) 
-0.139223

>  <r_i_glide_ligand_efficiency_sa>  (236) 
-0.40159

>  <r_i_glide_ligand_efficiency_ln>  (236) 
-0.799741

>  <r_i_glide_gscore>  (236) 
-3.34136

>  <r_i_glide_lipo>  (236) 
-0.946347

>  <r_i_glide_hbond>  (236) 
0

>  <r_i_glide_metal>  (236) 
-0

>  <r_i_glide_rewards>  (236) 
-0.811654

>  <r_i_glide_evdw>  (236) 
-27.2708

>  <r_i_glide_ecoul>  (236) 
-1.46548

>  <r_i_glide_erotb>  (236) 
0

>  <r_i_glide_esite>  (236) 
0

>  <r_i_glide_emodel>  (236) 
-34.4224

>  <r_i_glide_energy>  (236) 
-28.7363

>  <r_i_glide_einternal>  (236) 
0

>  <r_i_glide_intrahb_reward>  (236) 
-0

>  <i_i_glide_confnum>  (236) 
1

>  <i_i_glide_posenum>  (236) 
1

>  <r_i_glide_eff_state_penalty>  (236) 
0

>  <ligand_id>  (236) 
68

>  <original_smiles>  (236) 
BrC1CCN2C1CC1CC2C23C4CCC4C2C1=Cc1cccc[n+]13

>  <smiles>  (236) 
[H]C1=C2C3([H])C([H])([H])C4([H])N(C([H])([H])C([H])([H])C4([H])Br)C([H])(C3([H])[H])C3([n+]4c([H])c([H])c([H])c([H])c41)C2([H])C1([H])C([H])([H])C([H])([H])C13[H]

$$$$
68:1:2
     RDKit          3D

 48 54  0  0  1  0  0  0  0  0999 V2000
    3.8597   -2.7981   -3.5201 Br  0  0  0  0  0  0  0  0  0  0  0  0
    4.8463   -2.5688   -1.8045 C   0  0  2  0  0  0  0  0  0  0  0  0
    6.2900   -2.9966   -1.9519 C   0  0  0  0  0  0  0  0  0  0  0  0
    6.6974   -3.3141   -0.5154 C   0  0  0  0  0  0  0  0  0  0  0  0
    5.5070   -3.9213    0.0757 N   0  0  0  0  0  0  0  0  0  0  0  0
    4.3074   -3.5165   -0.7097 C   0  0  1  0  0  0  0  0  0  0  0  0
    3.0641   -2.9509    0.0616 C   0  0  0  0  0  0  0  0  0  0  0  0
    3.0763   -3.1009    1.6087 C   0  0  2  0  0  0  0  0  0  0  0  0
    4.5436   -2.7730    2.0038 C   0  0  0  0  0  0  0  0  0  0  0  0
    5.4815   -3.9402    1.5688 C   0  0  1  0  0  0  0  0  0  0  0  0
    4.9155   -5.2848    2.1201 C   0  0  2  0  0  0  0  0  0  0  0  0
    5.1680   -6.7598    1.6971 C   0  0  1  0  0  0  0  0  0  0  0  0
    5.3266   -7.9937    2.5982 C   0  0  0  0  0  0  0  0  0  0  0  0
    3.8347   -7.9298    2.9504 C   0  0  0  0  0  0  0  0  0  0  0  0
    3.6219   -7.0234    1.7412 C   0  0  1  0  0  0  0  0  0  0  0  0
    3.5405   -5.5076    1.5630 C   0  0  1  0  0  0  0  0  0  0  0  0
    2.6754   -4.4729    2.2001 C   0  0  0  0  0  0  0  0  0  0  0  0
    2.5262   -4.4891    3.5362 C   0  0  0  0  0  0  0  0  0  0  0  0
    3.7101   -4.9190    4.2998 C   0  0  0  0  0  0  0  0  0  0  0  0
    3.6603   -4.9362    5.7209 C   0  0  0  0  0  0  0  0  0  0  0  0
    4.8390   -5.2112    6.4562 C   0  0  0  0  0  0  0  0  0  0  0  0
    6.0354   -5.4566    5.7669 C   0  0  0  0  0  0  0  0  0  0  0  0
    6.0271   -5.4450    4.3472 C   0  0  0  0  0  0  0  0  0  0  0  0
    4.8853   -5.2076    3.6611 N   0  0  0  0  0  0  0  0  0  0  0  0
    4.7909   -1.5243   -1.5041 H   0  0  0  0  0  0  0  0  0  0  0  0
    6.3245   -3.8865   -2.5815 H   0  0  0  0  0  0  0  0  0  0  0  0
    6.9277   -2.2533   -2.4146 H   0  0  0  0  0  0  0  0  0  0  0  0
    7.5500   -3.9946   -0.4747 H   0  0  0  0  0  0  0  0  0  0  0  0
    6.9618   -2.3936    0.0023 H   0  0  0  0  0  0  0  0  0  0  0  0
    4.0019   -4.4153   -1.2333 H   0  0  0  0  0  0  0  0  0  0  0  0
    2.9551   -1.8859   -0.1518 H   0  0  0  0  0  0  0  0  0  0  0  0
    2.1514   -3.3962   -0.3555 H   0  0  0  0  0  0  0  0  0  0  0  0
    2.4024   -2.3431    2.0242 H   0  0  0  0  0  0  0  0  0  0  0  0
    4.8601   -1.8178    1.5826 H   0  0  0  0  0  0  0  0  0  0  0  0
    4.6069   -2.6271    3.0911 H   0  0  0  0  0  0  0  0  0  0  0  0
    6.4879   -3.7778    1.9332 H   0  0  0  0  0  0  0  0  0  0  0  0
    5.5887   -6.8670    0.6817 H   0  0  0  0  0  0  0  0  0  0  0  0
    5.5744   -8.8867    2.0281 H   0  0  0  0  0  0  0  0  0  0  0  0
    6.0054   -7.8855    3.4497 H   0  0  0  0  0  0  0  0  0  0  0  0
    3.3421   -8.8960    2.8429 H   0  0  0  0  0  0  0  0  0  0  0  0
    3.5949   -7.4845    3.9180 H   0  0  0  0  0  0  0  0  0  0  0  0
    3.2851   -7.5882    0.8620 H   0  0  0  0  0  0  0  0  0  0  0  0
    3.4436   -5.4466    0.4873 H   0  0  0  0  0  0  0  0  0  0  0  0
    2.0669   -3.6265    3.9934 H   0  0  0  0  0  0  0  0  0  0  0  0
    2.7482   -4.7155    6.2476 H   0  0  0  0  0  0  0  0  0  0  0  0
    4.8152   -5.2141    7.5325 H   0  0  0  0  0  0  0  0  0  0  0  0
    6.9430   -5.6643    6.3162 H   0  0  0  0  0  0  0  0  0  0  0  0
    6.9119   -5.6514    3.7671 H   0  0  0  0  0  0  0  0  0  0  0  0
  1  2  1  0
  2  6  1  0
  2  3  1  0
  2 25  1  1
  3  4  1  0
  3 26  1  0
  3 27  1  0
  4  5  1  0
  4 28  1  0
  4 29  1  0
  5 10  1  0
  5  6  1  0
  6  7  1  0
  6 30  1  6
  7  8  1  0
  7 31  1  0
  7 32  1  0
  8 17  1  0
  8  9  1  0
  8 33  1  1
  9 10  1  0
  9 34  1  0
  9 35  1  0
 10 11  1  0
 10 36  1  1
 11 16  1  0
 11 24  1  1
 11 12  1  0
 12 15  1  0
 12 13  1  0
 12 37  1  6
 13 14  1  0
 13 38  1  0
 13 39  1  0
 14 15  1  0
 14 40  1  0
 14 41  1  0
 15 16  1  0
 15 42  1  6
 16 17  1  0
 16 43  1  6
 17 18  2  0
 18 19  1  0
 18 44  1  0
 19 24  2  0
 19 20  1  0
 20 21  2  0
 20 45  1  0
 21 22  1  0
 21 46  1  0
 22 23  2  0
 22 47  1  0
 23 24  1  0
 23 48  1  0
M  CHG  1  24   1
M  END
>  <i_m_ct_stereo_status>  (237) 
1

>  <s_m_source_file>  (237) 
/var/tmp/pbs.5076255.sched01/tmprva83imr/861x3d95ot.sdf

>  <i_m_source_file_index>  (237) 
9

>  <i_lp_mmshare_version>  (237) 
48012

>  <i_f3d_flags>  (237) 
0

>  <s_epik_input>  (237) 
W0NIMl0xW0NIMl1bQ0BASF0oQnIpW0NAQEhdKE4xW0NAQEhdMltDQF0zNDUpW0NIMl1bQ0BIXShbQ0gyXTIpQyhbQ0BASF00W0NASF02W0NAQEhdM1tDSDJdW0NIMl02KT1bQ0hdYzdbbitdNVtjSF1bY0hdW2NIXVtjSF03

>  <s_epik_cmdline>  (237) 
J2VwaWtfcHl0aG9uJywgJy1waHQnLCAnMi4wJywgJy1waCcsICc3LjAnLCAnLXRuJywgJzgnLCAnLW1hJywgJzIwMCcsICctaW1hZScsICc8aW5maWxlLm1hZT4nLCAnLW9tYWUnLCAnPG91dGZpbGUubWFlPic=

>  <r_epik_Ionization_Penalty>  (237) 
1.72576

>  <r_epik_Ionization_Penalty_Charging>  (237) 
0

>  <r_epik_Ionization_Penalty_Neutral>  (237) 
1.72576

>  <r_epik_State_Penalty>  (237) 
1.83367

>  <r_epik_Charging_Adjusted_Penalty>  (237) 
1.83367

>  <i_epik_Tot_Q>  (237) 
1

>  <i_epik_Tot_abs_Q>  (237) 
1

>  <s_lp_Force_Field>  (237) 
OPLS3e

>  <r_lp_Energy>  (237) 
148.041

>  <b_lp_Chiralities_Consistent>  (237) 
1

>  <s_lp_Variant>  (237) 
68:0-2

>  <s_i_glide_gridfile>  (237) 
pfpi4k_grid

>  <i_i_glide_lignum>  (237) 
9

>  <i_i_glide_rotatable_bonds>  (237) 
0

>  <r_i_docking_score>  (237) 
-2.88941

>  <r_i_glide_ligand_efficiency>  (237) 
-0.120392

>  <r_i_glide_ligand_efficiency_sa>  (237) 
-0.34727

>  <r_i_glide_ligand_efficiency_ln>  (237) 
-0.691568

>  <r_i_glide_gscore>  (237) 
-2.88941

>  <r_i_glide_lipo>  (237) 
-0.626356

>  <r_i_glide_hbond>  (237) 
0

>  <r_i_glide_metal>  (237) 
-0

>  <r_i_glide_rewards>  (237) 
-0.790063

>  <r_i_glide_evdw>  (237) 
-24.3022

>  <r_i_glide_ecoul>  (237) 
-1.7192

>  <r_i_glide_erotb>  (237) 
0

>  <r_i_glide_esite>  (237) 
0

>  <r_i_glide_emodel>  (237) 
-30.9256

>  <r_i_glide_energy>  (237) 
-26.0214

>  <r_i_glide_einternal>  (237) 
0

>  <r_i_glide_intrahb_reward>  (237) 
-0

>  <i_i_glide_confnum>  (237) 
2

>  <i_i_glide_posenum>  (237) 
17

>  <r_i_glide_eff_state_penalty>  (237) 
0

>  <ligand_id>  (237) 
68

>  <original_smiles>  (237) 
BrC1CCN2C1CC1CC2C23C4CCC4C2C1=Cc1cccc[n+]13

>  <smiles>  (237) 
[H]C1=C2C3([H])C([H])([H])C4([H])N(C([H])([H])C([H])([H])C4([H])Br)C([H])(C3([H])[H])C3([n+]4c([H])c([H])c([H])c([H])c41)C2([H])C1([H])C([H])([H])C([H])([H])C13[H]

$$$$
69:0:0
     RDKit          3D

 37 40  0  0  1  0  0  0  0  0999 V2000
    1.4106   -8.6469    2.2838 C   0  0  0  0  0  0  0  0  0  0  0  0
    2.1058   -7.3602    2.2726 N   0  0  0  0  0  0  0  0  0  0  0  0
    1.7091   -6.2976    1.5613 C   0  0  0  0  0  0  0  0  0  0  0  0
    0.6810   -6.2702    0.8911 O   0  0  0  0  0  0  0  0  0  0  0  0
    2.6535   -5.1748    1.5200 C   0  0  0  0  0  0  0  0  0  0  0  0
    2.9619   -4.4183    0.4197 C   0  0  0  0  0  0  0  0  0  0  0  0
    3.9628   -3.3987    0.7324 C   0  0  0  0  0  0  0  0  0  0  0  0
    4.6546   -2.4031   -0.0275 C   0  0  0  0  0  0  0  0  0  0  0  0
    4.5109   -2.2209   -1.4133 N   0  0  0  0  0  0  0  0  0  0  0  0
    4.3893   -3.3475   -2.3376 C   0  0  0  0  0  0  0  0  0  0  0  0
    3.7008   -2.9085   -3.6409 C   0  0  1  0  0  0  0  0  0  0  0  0
    2.3238   -2.2587   -3.4328 C   0  0  0  0  0  0  0  0  0  0  0  0
    2.6622   -0.7697   -3.2836 C   0  0  0  0  0  0  0  0  0  0  0  0
    4.1811   -0.7436   -3.3772 C   0  0  1  0  0  0  0  0  0  0  0  0
    4.8927   -0.9370   -2.0196 C   0  0  0  0  0  0  0  0  0  0  0  0
    4.4512   -1.8527   -4.2149 O   0  0  0  0  0  0  0  0  0  0  0  0
    5.4904   -1.5542    0.6285 N   0  0  0  0  0  0  0  0  0  0  0  0
    5.6483   -1.6389    1.9461 C   0  0  0  0  0  0  0  0  0  0  0  0
    5.0905   -2.5198    2.7757 N   0  0  0  0  0  0  0  0  0  0  0  0
    4.2603   -3.3889    2.1296 C   0  0  0  0  0  0  0  0  0  0  0  0
    3.4049   -4.6562    2.9976 S   0  0  0  0  0  0  0  0  0  0  0  0
    1.9271   -9.3323    2.9618 H   0  0  0  0  0  0  0  0  0  0  0  0
    1.4183   -9.0970    1.2955 H   0  0  0  0  0  0  0  0  0  0  0  0
    0.3761   -8.5331    2.6179 H   0  0  0  0  0  0  0  0  0  0  0  0
    2.9910   -7.3098    2.7399 H   0  0  0  0  0  0  0  0  0  0  0  0
    2.5023   -4.6105   -0.5374 H   0  0  0  0  0  0  0  0  0  0  0  0
    5.3761   -3.8015   -2.5341 H   0  0  0  0  0  0  0  0  0  0  0  0
    3.7360   -4.1144   -1.9390 H   0  0  0  0  0  0  0  0  0  0  0  0
    3.6347   -3.7391   -4.3275 H   0  0  0  0  0  0  0  0  0  0  0  0
    1.6890   -2.4023   -4.3147 H   0  0  0  0  0  0  0  0  0  0  0  0
    1.7865   -2.6587   -2.5612 H   0  0  0  0  0  0  0  0  0  0  0  0
    2.2433   -0.1891   -4.1185 H   0  0  0  0  0  0  0  0  0  0  0  0
    2.3097   -0.3510   -2.3324 H   0  0  0  0  0  0  0  0  0  0  0  0
    4.5234    0.1554   -3.8823 H   0  0  0  0  0  0  0  0  0  0  0  0
    4.5963   -0.1226   -1.3561 H   0  0  0  0  0  0  0  0  0  0  0  0
    5.9701   -0.9008   -2.1485 H   0  0  0  0  0  0  0  0  0  0  0  0
    6.3042   -0.9271    2.4120 H   0  0  0  0  0  0  0  0  0  0  0  0
  1  2  1  0
  1 22  1  0
  1 23  1  0
  1 24  1  0
  2  3  1  0
  2 25  1  0
  3  4  2  0
  3  5  1  0
  5 21  1  0
  5  6  2  0
  6  7  1  0
  6 26  1  0
  7 20  2  0
  7  8  1  0
  8  9  1  0
  8 17  2  0
  9 15  1  0
  9 10  1  0
 10 11  1  0
 10 27  1  0
 10 28  1  0
 11 16  1  0
 11 12  1  0
 11 29  1  6
 12 13  1  0
 12 30  1  0
 12 31  1  0
 13 14  1  0
 13 32  1  0
 13 33  1  0
 14 15  1  0
 14 16  1  0
 14 34  1  6
 15 35  1  0
 15 36  1  0
 17 18  1  0
 18 19  2  0
 18 37  1  0
 19 20  1  0
 20 21  1  0
M  END
>  <i_m_ct_stereo_status>  (238) 
1

>  <s_m_source_file>  (238) 
/var/tmp/pbs.5076255.sched01/tmprva83imr/861x3d95ot.sdf

>  <i_m_source_file_index>  (238) 
10

>  <i_lp_mmshare_version>  (238) 
48012

>  <i_f3d_flags>  (238) 
0

>  <s_epik_input>  (238) 
W0NIM11bTkhdQyg9TyljKFtjSF0xKXNjKGMxMiluW2NIXW5jMk4oW0NIMl1bQ0BASF0zNClbQ0gyXVtDSF0oTzQpW0NIMl1bQ0gyXTM=

>  <s_epik_cmdline>  (238) 
J2VwaWtfcHl0aG9uJywgJy1waHQnLCAnMi4wJywgJy1waCcsICc3LjAnLCAnLXRuJywgJzgnLCAnLW1hJywgJzIwMCcsICctaW1hZScsICc8aW5maWxlLm1hZT4nLCAnLW9tYWUnLCAnPG91dGZpbGUubWFlPic=

>  <r_lp_tautomer_probability>  (238) 
1

>  <r_epik_Ionization_Penalty>  (238) 
5.67675e-06

>  <r_epik_Ionization_Penalty_Charging>  (238) 
0

>  <r_epik_Ionization_Penalty_Neutral>  (238) 
5.67675e-06

>  <r_epik_State_Penalty>  (238) 
-0

>  <r_epik_Charging_Adjusted_Penalty>  (238) 
0

>  <i_epik_Tot_Q>  (238) 
0

>  <i_epik_Tot_abs_Q>  (238) 
0

>  <s_lp_Force_Field>  (238) 
OPLS3e

>  <r_lp_Energy>  (238) 
42.0201

>  <b_lp_Chiralities_Consistent>  (238) 
1

>  <s_lp_Variant>  (238) 
69:0-1

>  <s_i_glide_gridfile>  (238) 
pfpi4k_grid

>  <i_i_glide_lignum>  (238) 
10

>  <i_i_glide_rotatable_bonds>  (238) 
3

>  <r_i_docking_score>  (238) 
-4.76089

>  <r_i_glide_ligand_efficiency>  (238) 
-0.226709

>  <r_i_glide_ligand_efficiency_sa>  (238) 
-0.625473

>  <r_i_glide_ligand_efficiency_ln>  (238) 
-1.17712

>  <r_i_glide_gscore>  (238) 
-4.76089

>  <r_i_glide_lipo>  (238) 
-0.653178

>  <r_i_glide_hbond>  (238) 
-0.48

>  <r_i_glide_metal>  (238) 
-0

>  <r_i_glide_rewards>  (238) 
-1.49377

>  <r_i_glide_evdw>  (238) 
-24.3624

>  <r_i_glide_ecoul>  (238) 
-8.20635

>  <r_i_glide_erotb>  (238) 
0.398125

>  <r_i_glide_esite>  (238) 
-0.0829874

>  <r_i_glide_emodel>  (238) 
-39.8331

>  <r_i_glide_energy>  (238) 
-32.5688

>  <r_i_glide_einternal>  (238) 
4.99785

>  <r_i_glide_intrahb_reward>  (238) 
-0

>  <i_i_glide_confnum>  (238) 
6

>  <i_i_glide_posenum>  (238) 
39

>  <r_i_glide_eff_state_penalty>  (238) 
0

>  <ligand_id>  (238) 
69

>  <original_smiles>  (238) 
CNC(=O)c1cc2c(N3CC4CCC(C3)O4)ncnc2s1

>  <smiles>  (238) 
[H]c1nc(N2C([H])([H])C3([H])OC([H])(C2([H])[H])C([H])([H])C3([H])[H])c2c([H])c(C(=O)N([H])C([H])([H])[H])sc2n1

$$$$
69:0:1
     RDKit          3D

 37 40  0  0  1  0  0  0  0  0999 V2000
    0.0035    1.4969    1.9726 C   0  0  0  0  0  0  0  0  0  0  0  0
    1.0193    0.4882    1.7283 N   0  0  0  0  0  0  0  0  0  0  0  0
    1.8050   -0.0499    2.6794 C   0  0  0  0  0  0  0  0  0  0  0  0
    1.6643    0.1778    3.8790 O   0  0  0  0  0  0  0  0  0  0  0  0
    2.8796   -0.9268    2.1639 C   0  0  0  0  0  0  0  0  0  0  0  0
    3.2241   -1.1166    0.8555 C   0  0  0  0  0  0  0  0  0  0  0  0
    4.3546   -2.0083    0.6850 C   0  0  0  0  0  0  0  0  0  0  0  0
    5.0712   -2.5410   -0.4388 C   0  0  0  0  0  0  0  0  0  0  0  0
    4.7563   -2.2902   -1.7899 N   0  0  0  0  0  0  0  0  0  0  0  0
    5.2249   -3.2147   -2.8362 C   0  0  0  0  0  0  0  0  0  0  0  0
    4.3157   -3.1307   -4.0855 C   0  0  1  0  0  0  0  0  0  0  0  0
    2.8533   -3.4850   -3.8203 C   0  0  0  0  0  0  0  0  0  0  0  0
    2.2312   -2.1743   -3.4411 C   0  0  0  0  0  0  0  0  0  0  0  0
    3.3922   -1.1737   -3.5414 C   0  0  1  0  0  0  0  0  0  0  0  0
    4.2118   -1.0125   -2.2494 C   0  0  0  0  0  0  0  0  0  0  0  0
    4.2229   -1.7749   -4.5080 O   0  0  0  0  0  0  0  0  0  0  0  0
    6.1069   -3.3833   -0.2063 N   0  0  0  0  0  0  0  0  0  0  0  0
    6.4068   -3.7441    1.0443 C   0  0  0  0  0  0  0  0  0  0  0  0
    5.8100   -3.3773    2.1658 N   0  0  0  0  0  0  0  0  0  0  0  0
    4.7992   -2.4875    1.9569 C   0  0  0  0  0  0  0  0  0  0  0  0
    3.8768   -1.8075    3.2887 S   0  0  0  0  0  0  0  0  0  0  0  0
   -0.5139    1.7372    1.0442 H   0  0  0  0  0  0  0  0  0  0  0  0
    0.4623    2.4141    2.3412 H   0  0  0  0  0  0  0  0  0  0  0  0
   -0.7271    1.1405    2.6976 H   0  0  0  0  0  0  0  0  0  0  0  0
    1.1153    0.1751    0.7674 H   0  0  0  0  0  0  0  0  0  0  0  0
    2.6496   -0.6392    0.0820 H   0  0  0  0  0  0  0  0  0  0  0  0
    6.2649   -3.0034   -3.1114 H   0  0  0  0  0  0  0  0  0  0  0  0
    5.1819   -4.2459   -2.4710 H   0  0  0  0  0  0  0  0  0  0  0  0
    4.7190   -3.7660   -4.8702 H   0  0  0  0  0  0  0  0  0  0  0  0
    2.3425   -3.8495   -4.7108 H   0  0  0  0  0  0  0  0  0  0  0  0
    2.7334   -4.2204   -3.0365 H   0  0  0  0  0  0  0  0  0  0  0  0
    1.4742   -1.9774   -4.2094 H   0  0  0  0  0  0  0  0  0  0  0  0
    1.8030   -2.2314   -2.4364 H   0  0  0  0  0  0  0  0  0  0  0  0
    3.0250   -0.2047   -3.8666 H   0  0  0  0  0  0  0  0  0  0  0  0
    3.4761   -0.6490   -1.5681 H   0  0  0  0  0  0  0  0  0  0  0  0
    4.9984   -0.2584   -2.3565 H   0  0  0  0  0  0  0  0  0  0  0  0
    7.2528   -4.4037    1.1680 H   0  0  0  0  0  0  0  0  0  0  0  0
  1  2  1  0
  1 22  1  0
  1 23  1  0
  1 24  1  0
  2  3  1  0
  2 25  1  0
  3  4  2  0
  3  5  1  0
  5 21  1  0
  5  6  2  0
  6  7  1  0
  6 26  1  0
  7 20  2  0
  7  8  1  0
  8  9  1  0
  8 17  2  0
  9 15  1  0
  9 10  1  0
 10 11  1  0
 10 27  1  0
 10 28  1  0
 11 16  1  0
 11 12  1  0
 11 29  1  6
 12 13  1  0
 12 30  1  0
 12 31  1  0
 13 14  1  0
 13 32  1  0
 13 33  1  0
 14 15  1  0
 14 16  1  0
 14 34  1  6
 15 35  1  0
 15 36  1  0
 17 18  1  0
 18 19  2  0
 18 37  1  0
 19 20  1  0
 20 21  1  0
M  END
>  <i_m_ct_stereo_status>  (239) 
1

>  <s_m_source_file>  (239) 
/var/tmp/pbs.5076255.sched01/tmprva83imr/861x3d95ot.sdf

>  <i_m_source_file_index>  (239) 
10

>  <i_lp_mmshare_version>  (239) 
48012

>  <i_f3d_flags>  (239) 
0

>  <s_epik_input>  (239) 
W0NIM11bTkhdQyg9TyljKFtjSF0xKXNjKGMxMiluW2NIXW5jMk4oW0NIMl1bQ0BASF0zNClbQ0gyXVtDSF0oTzQpW0NIMl1bQ0gyXTM=

>  <s_epik_cmdline>  (239) 
J2VwaWtfcHl0aG9uJywgJy1waHQnLCAnMi4wJywgJy1waCcsICc3LjAnLCAnLXRuJywgJzgnLCAnLW1hJywgJzIwMCcsICctaW1hZScsICc8aW5maWxlLm1hZT4nLCAnLW9tYWUnLCAnPG91dGZpbGUubWFlPic=

>  <r_lp_tautomer_probability>  (239) 
1

>  <r_epik_Ionization_Penalty>  (239) 
5.67675e-06

>  <r_epik_Ionization_Penalty_Charging>  (239) 
0

>  <r_epik_Ionization_Penalty_Neutral>  (239) 
5.67675e-06

>  <r_epik_State_Penalty>  (239) 
-0

>  <r_epik_Charging_Adjusted_Penalty>  (239) 
0

>  <i_epik_Tot_Q>  (239) 
0

>  <i_epik_Tot_abs_Q>  (239) 
0

>  <s_lp_Force_Field>  (239) 
OPLS3e

>  <r_lp_Energy>  (239) 
42.0201

>  <b_lp_Chiralities_Consistent>  (239) 
1

>  <s_lp_Variant>  (239) 
69:0-1

>  <s_i_glide_gridfile>  (239) 
pfpi4k_grid

>  <i_i_glide_lignum>  (239) 
10

>  <i_i_glide_rotatable_bonds>  (239) 
3

>  <r_i_docking_score>  (239) 
-4.63255

>  <r_i_glide_ligand_efficiency>  (239) 
-0.220597

>  <r_i_glide_ligand_efficiency_sa>  (239) 
-0.608612

>  <r_i_glide_ligand_efficiency_ln>  (239) 
-1.14539

>  <r_i_glide_gscore>  (239) 
-4.63255

>  <r_i_glide_lipo>  (239) 
-0.76033

>  <r_i_glide_hbond>  (239) 
-0.456

>  <r_i_glide_metal>  (239) 
-0

>  <r_i_glide_rewards>  (239) 
-1.45253

>  <r_i_glide_evdw>  (239) 
-21.7591

>  <r_i_glide_ecoul>  (239) 
-7.70311

>  <r_i_glide_erotb>  (239) 
0.398125

>  <r_i_glide_esite>  (239) 
-0.118392

>  <r_i_glide_emodel>  (239) 
-36.8701

>  <r_i_glide_energy>  (239) 
-29.4622

>  <r_i_glide_einternal>  (239) 
1.81286

>  <r_i_glide_intrahb_reward>  (239) 
-0

>  <i_i_glide_confnum>  (239) 
4

>  <i_i_glide_posenum>  (239) 
34

>  <r_i_glide_eff_state_penalty>  (239) 
0

>  <ligand_id>  (239) 
69

>  <original_smiles>  (239) 
CNC(=O)c1cc2c(N3CC4CCC(C3)O4)ncnc2s1

>  <smiles>  (239) 
[H]c1nc(N2C([H])([H])C3([H])OC([H])(C2([H])[H])C([H])([H])C3([H])[H])c2c([H])c(C(=O)N([H])C([H])([H])[H])sc2n1

$$$$
69:0:2
     RDKit          3D

 37 40  0  0  1  0  0  0  0  0999 V2000
    2.9749    0.1162   -4.8212 C   0  0  0  0  0  0  0  0  0  0  0  0
    3.4514   -0.4631   -3.5766 N   0  0  0  0  0  0  0  0  0  0  0  0
    3.8264   -1.7434   -3.4192 C   0  0  0  0  0  0  0  0  0  0  0  0
    3.8282   -2.5665   -4.3214 O   0  0  0  0  0  0  0  0  0  0  0  0
    4.2603   -2.0842   -2.0499 C   0  0  0  0  0  0  0  0  0  0  0  0
    3.8858   -1.4744   -0.8848 C   0  0  0  0  0  0  0  0  0  0  0  0
    4.4664   -2.0983    0.2920 C   0  0  0  0  0  0  0  0  0  0  0  0
    4.3997   -1.8604    1.7026 C   0  0  0  0  0  0  0  0  0  0  0  0
    3.6510   -0.8277    2.3310 N   0  0  0  0  0  0  0  0  0  0  0  0
    2.8571    0.1280    1.5516 C   0  0  0  0  0  0  0  0  0  0  0  0
    1.7388    0.7796    2.3863 C   0  0  1  0  0  0  0  0  0  0  0  0
    0.7363   -0.2511    2.9245 C   0  0  0  0  0  0  0  0  0  0  0  0
    1.3328   -0.6391    4.2748 C   0  0  0  0  0  0  0  0  0  0  0  0
    2.6165    0.2005    4.3530 C   0  0  1  0  0  0  0  0  0  0  0  0
    3.8548   -0.5121    3.7544 C   0  0  0  0  0  0  0  0  0  0  0  0
    2.3170    1.3348    3.5562 O   0  0  0  0  0  0  0  0  0  0  0  0
    5.0933   -2.6850    2.5234 N   0  0  0  0  0  0  0  0  0  0  0  0
    5.7958   -3.6961    2.0231 C   0  0  0  0  0  0  0  0  0  0  0  0
    5.9522   -4.0469    0.7548 N   0  0  0  0  0  0  0  0  0  0  0  0
    5.2699   -3.2248   -0.0882 C   0  0  0  0  0  0  0  0  0  0  0  0
    5.2881   -3.4655   -1.8337 S   0  0  0  0  0  0  0  0  0  0  0  0
    2.7823    1.1823   -4.7029 H   0  0  0  0  0  0  0  0  0  0  0  0
    2.0422   -0.3597   -5.1212 H   0  0  0  0  0  0  0  0  0  0  0  0
    3.7178   -0.0073   -5.6087 H   0  0  0  0  0  0  0  0  0  0  0  0
    3.4733    0.1455   -2.7707 H   0  0  0  0  0  0  0  0  0  0  0  0
    3.1966   -0.6567   -0.8844 H   0  0  0  0  0  0  0  0  0  0  0  0
    3.4980    0.8834    1.0846 H   0  0  0  0  0  0  0  0  0  0  0  0
    2.3024   -0.4174    0.8003 H   0  0  0  0  0  0  0  0  0  0  0  0
    1.2356    1.5340    1.7859 H   0  0  0  0  0  0  0  0  0  0  0  0
   -0.2432    0.2134    3.0620 H   0  0  0  0  0  0  0  0  0  0  0  0
    0.6225   -1.1080    2.2535 H   0  0  0  0  0  0  0  0  0  0  0  0
    0.6477   -0.3512    5.0753 H   0  0  0  0  0  0  0  0  0  0  0  0
    1.5421   -1.7093    4.3513 H   0  0  0  0  0  0  0  0  0  0  0  0
    2.8213    0.5121    5.3723 H   0  0  0  0  0  0  0  0  0  0  0  0
    3.9990   -1.4247    4.3329 H   0  0  0  0  0  0  0  0  0  0  0  0
    4.7499    0.1040    3.8859 H   0  0  0  0  0  0  0  0  0  0  0  0
    6.2945   -4.3206    2.7500 H   0  0  0  0  0  0  0  0  0  0  0  0
  1  2  1  0
  1 22  1  0
  1 23  1  0
  1 24  1  0
  2  3  1  0
  2 25  1  0
  3  4  2  0
  3  5  1  0
  5 21  1  0
  5  6  2  0
  6  7  1  0
  6 26  1  0
  7 20  2  0
  7  8  1  0
  8  9  1  0
  8 17  2  0
  9 15  1  0
  9 10  1  0
 10 11  1  0
 10 27  1  0
 10 28  1  0
 11 16  1  0
 11 12  1  0
 11 29  1  6
 12 13  1  0
 12 30  1  0
 12 31  1  0
 13 14  1  0
 13 32  1  0
 13 33  1  0
 14 15  1  0
 14 16  1  0
 14 34  1  1
 15 35  1  0
 15 36  1  0
 17 18  1  0
 18 19  2  0
 18 37  1  0
 19 20  1  0
 20 21  1  0
M  END
>  <i_m_ct_stereo_status>  (240) 
1

>  <s_m_source_file>  (240) 
/var/tmp/pbs.5076255.sched01/tmprva83imr/861x3d95ot.sdf

>  <i_m_source_file_index>  (240) 
10

>  <i_lp_mmshare_version>  (240) 
48012

>  <i_f3d_flags>  (240) 
0

>  <s_epik_input>  (240) 
W0NIM11bTkhdQyg9TyljKFtjSF0xKXNjKGMxMiluW2NIXW5jMk4oW0NIMl1bQ0BASF0zNClbQ0gyXVtDSF0oTzQpW0NIMl1bQ0gyXTM=

>  <s_epik_cmdline>  (240) 
J2VwaWtfcHl0aG9uJywgJy1waHQnLCAnMi4wJywgJy1waCcsICc3LjAnLCAnLXRuJywgJzgnLCAnLW1hJywgJzIwMCcsICctaW1hZScsICc8aW5maWxlLm1hZT4nLCAnLW9tYWUnLCAnPG91dGZpbGUubWFlPic=

>  <r_lp_tautomer_probability>  (240) 
1

>  <r_epik_Ionization_Penalty>  (240) 
5.67675e-06

>  <r_epik_Ionization_Penalty_Charging>  (240) 
0

>  <r_epik_Ionization_Penalty_Neutral>  (240) 
5.67675e-06

>  <r_epik_State_Penalty>  (240) 
-0

>  <r_epik_Charging_Adjusted_Penalty>  (240) 
0

>  <i_epik_Tot_Q>  (240) 
0

>  <i_epik_Tot_abs_Q>  (240) 
0

>  <s_lp_Force_Field>  (240) 
OPLS3e

>  <r_lp_Energy>  (240) 
42.0201

>  <b_lp_Chiralities_Consistent>  (240) 
1

>  <s_lp_Variant>  (240) 
69:0-1

>  <s_i_glide_gridfile>  (240) 
pfpi4k_grid

>  <i_i_glide_lignum>  (240) 
10

>  <i_i_glide_rotatable_bonds>  (240) 
3

>  <r_i_docking_score>  (240) 
-3.79744

>  <r_i_glide_ligand_efficiency>  (240) 
-0.18083

>  <r_i_glide_ligand_efficiency_sa>  (240) 
-0.498897

>  <r_i_glide_ligand_efficiency_ln>  (240) 
-0.938909

>  <r_i_glide_gscore>  (240) 
-3.79744

>  <r_i_glide_lipo>  (240) 
-0.253407

>  <r_i_glide_hbond>  (240) 
-0.32

>  <r_i_glide_metal>  (240) 
-0

>  <r_i_glide_rewards>  (240) 
-1.62474

>  <r_i_glide_evdw>  (240) 
-28.7639

>  <r_i_glide_ecoul>  (240) 
-3.72813

>  <r_i_glide_erotb>  (240) 
0.398125

>  <r_i_glide_esite>  (240) 
0

>  <r_i_glide_emodel>  (240) 
-39.7254

>  <r_i_glide_energy>  (240) 
-32.492

>  <r_i_glide_einternal>  (240) 
1.02239

>  <r_i_glide_intrahb_reward>  (240) 
-0

>  <i_i_glide_confnum>  (240) 
6

>  <i_i_glide_posenum>  (240) 
38

>  <r_i_glide_eff_state_penalty>  (240) 
0

>  <ligand_id>  (240) 
69

>  <original_smiles>  (240) 
CNC(=O)c1cc2c(N3CC4CCC(C3)O4)ncnc2s1

>  <smiles>  (240) 
[H]c1nc(N2C([H])([H])C3([H])OC([H])(C2([H])[H])C([H])([H])C3([H])[H])c2c([H])c(C(=O)N([H])C([H])([H])[H])sc2n1

$$$$
70:0:0
     RDKit          3D

 47 51  0  0  1  0  0  0  0  0999 V2000
    5.9673   -5.3563    0.5992 C   0  0  0  0  0  0  0  0  0  0  0  0
    6.2181   -3.9549    0.4583 O   0  0  0  0  0  0  0  0  0  0  0  0
    5.3364   -3.2434   -0.4066 C   0  0  1  0  0  0  0  0  0  0  0  0
    3.9018   -3.6743   -0.3928 C   0  0  0  0  0  0  0  0  0  0  0  0
    3.1542   -2.5582   -0.3683 C   0  0  0  0  0  0  0  0  0  0  0  0
    3.4414   -1.6371   -1.6285 C   0  0  1  0  0  0  0  0  0  0  0  0
    4.6505   -0.7396   -1.2823 C   0  0  0  0  0  0  0  0  0  0  0  0
    5.5423   -1.6526   -0.4889 C   0  0  1  0  0  0  0  0  0  0  0  0
    4.9358   -1.3977    0.9297 C   0  0  0  0  0  0  0  0  0  0  0  0
    3.3813   -1.7440    0.9443 C   0  0  1  0  0  0  0  0  0  0  0  0
    2.6555   -0.5216    0.8807 O   0  0  0  0  0  0  0  0  0  0  0  0
    2.9432   -2.4862    2.2359 C   0  0  0  0  0  0  0  0  0  0  0  0
    3.6976   -3.5630    2.7540 C   0  0  0  0  0  0  0  0  0  0  0  0
    3.3269   -4.2483    3.9231 C   0  0  0  0  0  0  0  0  0  0  0  0
    2.1881   -3.8438    4.6373 C   0  0  0  0  0  0  0  0  0  0  0  0
    1.4267   -2.7601    4.1603 C   0  0  0  0  0  0  0  0  0  0  0  0
    1.7919   -2.0926    2.9690 C   0  0  0  0  0  0  0  0  0  0  0  0
    5.9892   -2.7326   -1.5579 C   0  0  1  0  0  0  0  0  0  0  0  0
    7.4619   -2.8730   -1.8866 C   0  0  0  0  0  0  0  0  0  0  0  0
    5.1630   -3.0402   -2.7239 O   0  0  0  0  0  0  0  0  0  0  0  0
    3.8728   -2.3950   -2.9258 C   0  0  0  0  0  0  0  0  0  0  0  0
    2.7844   -3.3988   -3.3891 C   0  0  0  0  0  0  0  0  0  0  0  0
    4.0481   -1.4373   -4.1249 C   0  0  0  0  0  0  0  0  0  0  0  0
    6.7363   -5.8083    1.2273 H   0  0  0  0  0  0  0  0  0  0  0  0
    5.9465   -5.8655   -0.3599 H   0  0  0  0  0  0  0  0  0  0  0  0
    5.0134   -5.5735    1.0834 H   0  0  0  0  0  0  0  0  0  0  0  0
    3.7875   -4.4142   -1.1740 H   0  0  0  0  0  0  0  0  0  0  0  0
    2.6134   -0.9836   -1.8849 H   0  0  0  0  0  0  0  0  0  0  0  0
    5.1823   -0.3281   -2.1330 H   0  0  0  0  0  0  0  0  0  0  0  0
    4.3631    0.1505   -0.7204 H   0  0  0  0  0  0  0  0  0  0  0  0
    5.5019   -1.9785    1.6466 H   0  0  0  0  0  0  0  0  0  0  0  0
    5.1136   -0.3670    1.2628 H   0  0  0  0  0  0  0  0  0  0  0  0
    1.9171   -0.6564    0.2913 H   0  0  0  0  0  0  0  0  0  0  0  0
    4.6021   -3.8676    2.2735 H   0  0  0  0  0  0  0  0  0  0  0  0
    3.9409   -5.0654    4.2748 H   0  0  0  0  0  0  0  0  0  0  0  0
    1.9186   -4.3511    5.5545 H   0  0  0  0  0  0  0  0  0  0  0  0
    0.5627   -2.4229    4.7161 H   0  0  0  0  0  0  0  0  0  0  0  0
    1.1806   -1.2569    2.6470 H   0  0  0  0  0  0  0  0  0  0  0  0
    8.0965   -2.6866   -1.0174 H   0  0  0  0  0  0  0  0  0  0  0  0
    7.7300   -2.1682   -2.6657 H   0  0  0  0  0  0  0  0  0  0  0  0
    7.6752   -3.8530   -2.2920 H   0  0  0  0  0  0  0  0  0  0  0  0
    1.9286   -2.8948   -3.8371 H   0  0  0  0  0  0  0  0  0  0  0  0
    2.3413   -3.9694   -2.5823 H   0  0  0  0  0  0  0  0  0  0  0  0
    3.1794   -4.0903   -4.1313 H   0  0  0  0  0  0  0  0  0  0  0  0
    3.2472   -0.7000   -4.1905 H   0  0  0  0  0  0  0  0  0  0  0  0
    4.0227   -1.9776   -5.0593 H   0  0  0  0  0  0  0  0  0  0  0  0
    5.0042   -0.9158   -4.1177 H   0  0  0  0  0  0  0  0  0  0  0  0
  1  2  1  0
  1 24  1  0
  1 25  1  0
  1 26  1  0
  3  2  1  1
  3  8  1  0
  3 18  1  0
  3  4  1  0
  4  5  2  0
  4 27  1  0
  5 10  1  0
  5  6  1  0
  6 21  1  0
  6  7  1  0
  6 28  1  6
  7  8  1  0
  7 29  1  0
  7 30  1  0
  8  9  1  1
  8 18  1  0
  9 10  1  0
  9 31  1  0
  9 32  1  0
 10 11  1  6
 10 12  1  0
 11 33  1  0
 12 17  1  0
 12 13  2  0
 13 14  1  0
 13 34  1  0
 14 15  2  0
 14 35  1  0
 15 16  1  0
 15 36  1  0
 16 17  2  0
 16 37  1  0
 17 38  1  0
 18 19  1  6
 18 20  1  0
 19 39  1  0
 19 40  1  0
 19 41  1  0
 20 21  1  0
 21 22  1  0
 21 23  1  0
 22 42  1  0
 22 43  1  0
 22 44  1  0
 23 45  1  0
 23 46  1  0
 23 47  1  0
M  END
>  <i_m_ct_stereo_status>  (241) 
1

>  <s_m_source_file>  (241) 
/var/tmp/pbs.5076255.sched01/tmprva83imr/861x3d95ot.sdf

>  <i_m_source_file_index>  (241) 
11

>  <i_lp_mmshare_version>  (241) 
48012

>  <i_f3d_flags>  (241) 
0

>  <s_epik_input>  (241) 
W0NIM11PW0NAQF0xKFtDQEBdMjM0KVtDQEBdNChbQ0gzXSlPQyhbQ0gzXSkoW0NIM10pW0NASF0oW0NIMl0yKUMoPVtDSF0xKVtDQEBdKFtDSDJdMykoW09IXSljNVtjSF1bY0hdW2NIXVtjSF1bY0hdNQ==

>  <s_epik_cmdline>  (241) 
J2VwaWtfcHl0aG9uJywgJy1waHQnLCAnMi4wJywgJy1waCcsICc3LjAnLCAnLXRuJywgJzgnLCAnLW1hJywgJzIwMCcsICctaW1hZScsICc8aW5maWxlLm1hZT4nLCAnLW9tYWUnLCAnPG91dGZpbGUubWFlPic=

>  <r_lp_tautomer_probability>  (241) 
1

>  <r_epik_Ionization_Penalty>  (241) 
6.32198e-08

>  <r_epik_Ionization_Penalty_Charging>  (241) 
0

>  <r_epik_Ionization_Penalty_Neutral>  (241) 
6.32198e-08

>  <r_epik_State_Penalty>  (241) 
-0

>  <r_epik_Charging_Adjusted_Penalty>  (241) 
0

>  <i_epik_Tot_Q>  (241) 
0

>  <i_epik_Tot_abs_Q>  (241) 
0

>  <s_lp_Force_Field>  (241) 
OPLS3e

>  <r_lp_Energy>  (241) 
230.936

>  <b_lp_Chiralities_Consistent>  (241) 
1

>  <s_lp_Variant>  (241) 
70:0-1

>  <s_i_glide_gridfile>  (241) 
pfpi4k_grid

>  <i_i_glide_lignum>  (241) 
11

>  <i_i_glide_rotatable_bonds>  (241) 
3

>  <r_i_docking_score>  (241) 
-3.46031

>  <r_i_glide_ligand_efficiency>  (241) 
-0.150448

>  <r_i_glide_ligand_efficiency_sa>  (241) 
-0.427855

>  <r_i_glide_ligand_efficiency_ln>  (241) 
-0.836735

>  <r_i_glide_gscore>  (241) 
-3.46031

>  <r_i_glide_lipo>  (241) 
-0.510889

>  <r_i_glide_hbond>  (241) 
-0.16

>  <r_i_glide_metal>  (241) 
-0

>  <r_i_glide_rewards>  (241) 
-1.27907

>  <r_i_glide_evdw>  (241) 
-19.0806

>  <r_i_glide_ecoul>  (241) 
-4.97659

>  <r_i_glide_erotb>  (241) 
0.190165

>  <r_i_glide_esite>  (241) 
0

>  <r_i_glide_emodel>  (241) 
-25.7419

>  <r_i_glide_energy>  (241) 
-24.0571

>  <r_i_glide_einternal>  (241) 
5.34814

>  <r_i_glide_intrahb_reward>  (241) 
-0

>  <i_i_glide_confnum>  (241) 
4

>  <i_i_glide_posenum>  (241) 
40

>  <r_i_glide_eff_state_penalty>  (241) 
0

>  <ligand_id>  (241) 
70

>  <original_smiles>  (241) 
COC12C=C3C4CC1(CC3(O)c1ccccc1)C2(C)OC4(C)C

>  <smiles>  (241) 
[H]OC1(c2c([H])c([H])c([H])c([H])c2[H])C2=C([H])C3(OC([H])([H])[H])C4(C([H])([H])[H])OC(C([H])([H])[H])(C([H])([H])[H])C2([H])C([H])([H])C34C1([H])[H]

$$$$
70:0:1
     RDKit          3D

 47 51  0  0  1  0  0  0  0  0999 V2000
    3.1904   -0.2788    7.5053 C   0  0  0  0  0  0  0  0  0  0  0  0
    2.9430    0.9469    6.8109 O   0  0  0  0  0  0  0  0  0  0  0  0
    2.5063    0.8017    5.4658 C   0  0  1  0  0  0  0  0  0  0  0  0
    1.1854    0.1146    5.2866 C   0  0  0  0  0  0  0  0  0  0  0  0
    0.4855    0.8091    4.3713 C   0  0  0  0  0  0  0  0  0  0  0  0
    1.2379    0.8953    2.9840 C   0  0  1  0  0  0  0  0  0  0  0  0
    2.2160    2.0999    3.0639 C   0  0  0  0  0  0  0  0  0  0  0  0
    2.7186    2.0502    4.4885 C   0  0  1  0  0  0  0  0  0  0  0  0
    1.5902    2.8946    5.1658 C   0  0  0  0  0  0  0  0  0  0  0  0
    0.1686    2.2456    4.8745 C   0  0  1  0  0  0  0  0  0  0  0  0
   -0.4522    3.0015    3.8341 O   0  0  0  0  0  0  0  0  0  0  0  0
   -0.7660    2.2659    6.1149 C   0  0  0  0  0  0  0  0  0  0  0  0
   -0.2811    1.9669    7.4137 C   0  0  0  0  0  0  0  0  0  0  0  0
   -1.1139    2.0367    8.5467 C   0  0  0  0  0  0  0  0  0  0  0  0
   -2.4628    2.3915    8.4062 C   0  0  0  0  0  0  0  0  0  0  0  0
   -2.9792    2.6674    7.1301 C   0  0  0  0  0  0  0  0  0  0  0  0
   -2.1397    2.6039    5.9951 C   0  0  0  0  0  0  0  0  0  0  0  0
    3.5672    0.7059    4.5301 C   0  0  1  0  0  0  0  0  0  0  0  0
    5.0500    0.7423    4.8707 C   0  0  0  0  0  0  0  0  0  0  0  0
    3.2557   -0.4101    3.6444 O   0  0  0  0  0  0  0  0  0  0  0  0
    2.1815   -0.3237    2.6639 C   0  0  0  0  0  0  0  0  0  0  0  0
    1.3991   -1.6607    2.6101 C   0  0  0  0  0  0  0  0  0  0  0  0
    2.8909   -0.2149    1.2882 C   0  0  0  0  0  0  0  0  0  0  0  0
    3.5677   -0.0649    8.5070 H   0  0  0  0  0  0  0  0  0  0  0  0
    3.9424   -0.8845    6.9950 H   0  0  0  0  0  0  0  0  0  0  0  0
    2.2818   -0.8750    7.6207 H   0  0  0  0  0  0  0  0  0  0  0  0
    1.3849   -0.9370    5.1462 H   0  0  0  0  0  0  0  0  0  0  0  0
    0.5234    1.0402    2.1754 H   0  0  0  0  0  0  0  0  0  0  0  0
    3.0614    2.0609    2.3899 H   0  0  0  0  0  0  0  0  0  0  0  0
    1.7648    3.0559    2.8049 H   0  0  0  0  0  0  0  0  0  0  0  0
    1.8191    2.9948    6.2223 H   0  0  0  0  0  0  0  0  0  0  0  0
    1.6235    3.9300    4.8235 H   0  0  0  0  0  0  0  0  0  0  0  0
    0.1000    3.0103    3.0622 H   0  0  0  0  0  0  0  0  0  0  0  0
    0.7471    1.6938    7.5778 H   0  0  0  0  0  0  0  0  0  0  0  0
   -0.7002    1.8299    9.5244 H   0  0  0  0  0  0  0  0  0  0  0  0
   -3.1032    2.4441    9.2783 H   0  0  0  0  0  0  0  0  0  0  0  0
   -4.0208    2.9332    7.0142 H   0  0  0  0  0  0  0  0  0  0  0  0
   -2.5772    2.8339    5.0319 H   0  0  0  0  0  0  0  0  0  0  0  0
    5.2671    1.5366    5.5821 H   0  0  0  0  0  0  0  0  0  0  0  0
    5.6275    0.9246    3.9638 H   0  0  0  0  0  0  0  0  0  0  0  0
    5.3786   -0.2090    5.2884 H   0  0  0  0  0  0  0  0  0  0  0  0
    0.8132   -1.7107    1.6947 H   0  0  0  0  0  0  0  0  0  0  0  0
    0.6883   -1.8089    3.4185 H   0  0  0  0  0  0  0  0  0  0  0  0
    2.0720   -2.5194    2.6085 H   0  0  0  0  0  0  0  0  0  0  0  0
    2.2104    0.1321    0.5127 H   0  0  0  0  0  0  0  0  0  0  0  0
    3.2716   -1.1813    0.9574 H   0  0  0  0  0  0  0  0  0  0  0  0
    3.7523    0.4496    1.2872 H   0  0  0  0  0  0  0  0  0  0  0  0
  1  2  1  0
  1 24  1  0
  1 25  1  0
  1 26  1  0
  3  2  1  1
  3  8  1  0
  3 18  1  0
  3  4  1  0
  4  5  2  0
  4 27  1  0
  5 10  1  0
  5  6  1  0
  6 21  1  0
  6  7  1  0
  6 28  1  6
  7  8  1  0
  7 29  1  0
  7 30  1  0
  8  9  1  1
  8 18  1  0
  9 10  1  0
  9 31  1  0
  9 32  1  0
 10 11  1  6
 10 12  1  0
 11 33  1  0
 12 17  1  0
 12 13  2  0
 13 14  1  0
 13 34  1  0
 14 15  2  0
 14 35  1  0
 15 16  1  0
 15 36  1  0
 16 17  2  0
 16 37  1  0
 17 38  1  0
 18 19  1  1
 18 20  1  0
 19 39  1  0
 19 40  1  0
 19 41  1  0
 20 21  1  0
 21 22  1  0
 21 23  1  0
 22 42  1  0
 22 43  1  0
 22 44  1  0
 23 45  1  0
 23 46  1  0
 23 47  1  0
M  END
>  <i_m_ct_stereo_status>  (242) 
1

>  <s_m_source_file>  (242) 
/var/tmp/pbs.5076255.sched01/tmprva83imr/861x3d95ot.sdf

>  <i_m_source_file_index>  (242) 
11

>  <i_lp_mmshare_version>  (242) 
48012

>  <i_f3d_flags>  (242) 
0

>  <s_epik_input>  (242) 
W0NIM11PW0NAQF0xKFtDQEBdMjM0KVtDQEBdNChbQ0gzXSlPQyhbQ0gzXSkoW0NIM10pW0NASF0oW0NIMl0yKUMoPVtDSF0xKVtDQEBdKFtDSDJdMykoW09IXSljNVtjSF1bY0hdW2NIXVtjSF1bY0hdNQ==

>  <s_epik_cmdline>  (242) 
J2VwaWtfcHl0aG9uJywgJy1waHQnLCAnMi4wJywgJy1waCcsICc3LjAnLCAnLXRuJywgJzgnLCAnLW1hJywgJzIwMCcsICctaW1hZScsICc8aW5maWxlLm1hZT4nLCAnLW9tYWUnLCAnPG91dGZpbGUubWFlPic=

>  <r_lp_tautomer_probability>  (242) 
1

>  <r_epik_Ionization_Penalty>  (242) 
6.32198e-08

>  <r_epik_Ionization_Penalty_Charging>  (242) 
0

>  <r_epik_Ionization_Penalty_Neutral>  (242) 
6.32198e-08

>  <r_epik_State_Penalty>  (242) 
-0

>  <r_epik_Charging_Adjusted_Penalty>  (242) 
0

>  <i_epik_Tot_Q>  (242) 
0

>  <i_epik_Tot_abs_Q>  (242) 
0

>  <s_lp_Force_Field>  (242) 
OPLS3e

>  <r_lp_Energy>  (242) 
230.936

>  <b_lp_Chiralities_Consistent>  (242) 
1

>  <s_lp_Variant>  (242) 
70:0-1

>  <s_i_glide_gridfile>  (242) 
pfpi4k_grid

>  <i_i_glide_lignum>  (242) 
11

>  <i_i_glide_rotatable_bonds>  (242) 
3

>  <r_i_docking_score>  (242) 
-2.64702

>  <r_i_glide_ligand_efficiency>  (242) 
-0.115088

>  <r_i_glide_ligand_efficiency_sa>  (242) 
-0.327295

>  <r_i_glide_ligand_efficiency_ln>  (242) 
-0.640074

>  <r_i_glide_gscore>  (242) 
-2.64702

>  <r_i_glide_lipo>  (242) 
-0.339596

>  <r_i_glide_hbond>  (242) 
0

>  <r_i_glide_metal>  (242) 
-0

>  <r_i_glide_rewards>  (242) 
-1.27907

>  <r_i_glide_evdw>  (242) 
-16.4788

>  <r_i_glide_ecoul>  (242) 
-2.63051

>  <r_i_glide_erotb>  (242) 
0.190165

>  <r_i_glide_esite>  (242) 
0

>  <r_i_glide_emodel>  (242) 
-21.7052

>  <r_i_glide_energy>  (242) 
-19.1093

>  <r_i_glide_einternal>  (242) 
2.82015

>  <r_i_glide_intrahb_reward>  (242) 
-0

>  <i_i_glide_confnum>  (242) 
4

>  <i_i_glide_posenum>  (242) 
2

>  <r_i_glide_eff_state_penalty>  (242) 
0

>  <ligand_id>  (242) 
70

>  <original_smiles>  (242) 
COC12C=C3C4CC1(CC3(O)c1ccccc1)C2(C)OC4(C)C

>  <smiles>  (242) 
[H]OC1(c2c([H])c([H])c([H])c([H])c2[H])C2=C([H])C3(OC([H])([H])[H])C4(C([H])([H])[H])OC(C([H])([H])[H])(C([H])([H])[H])C2([H])C([H])([H])C34C1([H])[H]

$$$$
70:0:2
     RDKit          3D

 47 51  0  0  1  0  0  0  0  0999 V2000
   -1.4761   -2.2344    6.0711 C   0  0  0  0  0  0  0  0  0  0  0  0
   -0.5501   -1.2581    6.5439 O   0  0  0  0  0  0  0  0  0  0  0  0
   -0.1726   -0.2573    5.5954 C   0  0  1  0  0  0  0  0  0  0  0  0
   -1.2097    0.7896    5.3509 C   0  0  0  0  0  0  0  0  0  0  0  0
   -0.5835    1.9819    5.3264 C   0  0  0  0  0  0  0  0  0  0  0  0
    0.5355    2.0651    4.2198 C   0  0  1  0  0  0  0  0  0  0  0  0
    1.8296    1.4566    4.8246 C   0  0  0  0  0  0  0  0  0  0  0  0
    1.3163    0.3153    5.6765 C   0  0  1  0  0  0  0  0  0  0  0  0
    1.0340    1.1096    6.9902 C   0  0  0  0  0  0  0  0  0  0  0  0
    0.0331    2.3060    6.7130 C   0  0  1  0  0  0  0  0  0  0  0  0
    0.7827    3.5078    6.6491 O   0  0  0  0  0  0  0  0  0  0  0  0
   -1.0089    2.4795    7.8332 C   0  0  0  0  0  0  0  0  0  0  0  0
   -2.3502    2.8271    7.5410 C   0  0  0  0  0  0  0  0  0  0  0  0
   -3.2974    2.9944    8.5690 C   0  0  0  0  0  0  0  0  0  0  0  0
   -2.9127    2.8490    9.9115 C   0  0  0  0  0  0  0  0  0  0  0  0
   -1.5798    2.5298   10.2257 C   0  0  0  0  0  0  0  0  0  0  0  0
   -0.6308    2.3583    9.1932 C   0  0  0  0  0  0  0  0  0  0  0  0
    0.7360   -0.6994    4.6009 C   0  0  1  0  0  0  0  0  0  0  0  0
    1.3294   -2.0933    4.4701 C   0  0  0  0  0  0  0  0  0  0  0  0
    0.2143   -0.2290    3.3190 O   0  0  0  0  0  0  0  0  0  0  0  0
    0.2555    1.1800    2.9538 C   0  0  0  0  0  0  0  0  0  0  0  0
   -1.0617    1.5887    2.2483 C   0  0  0  0  0  0  0  0  0  0  0  0
    1.3528    1.2945    1.8637 C   0  0  0  0  0  0  0  0  0  0  0  0
   -1.6409   -2.9683    6.8602 H   0  0  0  0  0  0  0  0  0  0  0  0
   -1.0994   -2.7968    5.2192 H   0  0  0  0  0  0  0  0  0  0  0  0
   -2.4375   -1.7963    5.7897 H   0  0  0  0  0  0  0  0  0  0  0  0
   -1.8158    0.4815    4.5115 H   0  0  0  0  0  0  0  0  0  0  0  0
    0.7020    3.1000    3.9295 H   0  0  0  0  0  0  0  0  0  0  0  0
    2.5442    1.0697    4.1062 H   0  0  0  0  0  0  0  0  0  0  0  0
    2.4243    2.1791    5.3866 H   0  0  0  0  0  0  0  0  0  0  0  0
    0.6357    0.4309    7.7398 H   0  0  0  0  0  0  0  0  0  0  0  0
    1.9674    1.4655    7.4361 H   0  0  0  0  0  0  0  0  0  0  0  0
    0.2028    4.2122    6.4141 H   0  0  0  0  0  0  0  0  0  0  0  0
   -2.6749    2.9659    6.5216 H   0  0  0  0  0  0  0  0  0  0  0  0
   -4.3239    3.2315    8.3284 H   0  0  0  0  0  0  0  0  0  0  0  0
   -3.6376    2.9547   10.7061 H   0  0  0  0  0  0  0  0  0  0  0  0
   -1.2940    2.4073   11.2626 H   0  0  0  0  0  0  0  0  0  0  0  0
    0.3909    2.1311    9.4583 H   0  0  0  0  0  0  0  0  0  0  0  0
    1.6136   -2.4809    5.4502 H   0  0  0  0  0  0  0  0  0  0  0  0
    2.2115   -2.0607    3.8333 H   0  0  0  0  0  0  0  0  0  0  0  0
    0.6282   -2.7816    3.9991 H   0  0  0  0  0  0  0  0  0  0  0  0
   -0.9184    2.5351    1.7225 H   0  0  0  0  0  0  0  0  0  0  0  0
   -1.9096    1.7523    2.9057 H   0  0  0  0  0  0  0  0  0  0  0  0
   -1.3644    0.8510    1.5066 H   0  0  0  0  0  0  0  0  0  0  0  0
    1.6588    2.3304    1.7098 H   0  0  0  0  0  0  0  0  0  0  0  0
    0.9882    0.9279    0.9032 H   0  0  0  0  0  0  0  0  0  0  0  0
    2.2440    0.7053    2.0778 H   0  0  0  0  0  0  0  0  0  0  0  0
  1  2  1  0
  1 24  1  0
  1 25  1  0
  1 26  1  0
  3  2  1  1
  3  8  1  0
  3 18  1  0
  3  4  1  0
  4  5  2  0
  4 27  1  0
  5 10  1  0
  5  6  1  0
  6 21  1  0
  6  7  1  0
  6 28  1  6
  7  8  1  0
  7 29  1  0
  7 30  1  0
  8  9  1  1
  8 18  1  0
  9 10  1  0
  9 31  1  0
  9 32  1  0
 10 11  1  6
 10 12  1  0
 11 33  1  0
 12 17  1  0
 12 13  2  0
 13 14  1  0
 13 34  1  0
 14 15  2  0
 14 35  1  0
 15 16  1  0
 15 36  1  0
 16 17  2  0
 16 37  1  0
 17 38  1  0
 18 19  1  6
 18 20  1  0
 19 39  1  0
 19 40  1  0
 19 41  1  0
 20 21  1  0
 21 22  1  0
 21 23  1  0
 22 42  1  0
 22 43  1  0
 22 44  1  0
 23 45  1  0
 23 46  1  0
 23 47  1  0
M  END
>  <i_m_ct_stereo_status>  (243) 
1

>  <s_m_source_file>  (243) 
/var/tmp/pbs.5076255.sched01/tmprva83imr/861x3d95ot.sdf

>  <i_m_source_file_index>  (243) 
11

>  <i_lp_mmshare_version>  (243) 
48012

>  <i_f3d_flags>  (243) 
0

>  <s_epik_input>  (243) 
W0NIM11PW0NAQF0xKFtDQEBdMjM0KVtDQEBdNChbQ0gzXSlPQyhbQ0gzXSkoW0NIM10pW0NASF0oW0NIMl0yKUMoPVtDSF0xKVtDQEBdKFtDSDJdMykoW09IXSljNVtjSF1bY0hdW2NIXVtjSF1bY0hdNQ==

>  <s_epik_cmdline>  (243) 
J2VwaWtfcHl0aG9uJywgJy1waHQnLCAnMi4wJywgJy1waCcsICc3LjAnLCAnLXRuJywgJzgnLCAnLW1hJywgJzIwMCcsICctaW1hZScsICc8aW5maWxlLm1hZT4nLCAnLW9tYWUnLCAnPG91dGZpbGUubWFlPic=

>  <r_lp_tautomer_probability>  (243) 
1

>  <r_epik_Ionization_Penalty>  (243) 
6.32198e-08

>  <r_epik_Ionization_Penalty_Charging>  (243) 
0

>  <r_epik_Ionization_Penalty_Neutral>  (243) 
6.32198e-08

>  <r_epik_State_Penalty>  (243) 
-0

>  <r_epik_Charging_Adjusted_Penalty>  (243) 
0

>  <i_epik_Tot_Q>  (243) 
0

>  <i_epik_Tot_abs_Q>  (243) 
0

>  <s_lp_Force_Field>  (243) 
OPLS3e

>  <r_lp_Energy>  (243) 
230.936

>  <b_lp_Chiralities_Consistent>  (243) 
1

>  <s_lp_Variant>  (243) 
70:0-1

>  <s_i_glide_gridfile>  (243) 
pfpi4k_grid

>  <i_i_glide_lignum>  (243) 
11

>  <i_i_glide_rotatable_bonds>  (243) 
3

>  <r_i_docking_score>  (243) 
-2.35117

>  <r_i_glide_ligand_efficiency>  (243) 
-0.102225

>  <r_i_glide_ligand_efficiency_sa>  (243) 
-0.290713

>  <r_i_glide_ligand_efficiency_ln>  (243) 
-0.568534

>  <r_i_glide_gscore>  (243) 
-2.35117

>  <r_i_glide_lipo>  (243) 
-0.114

>  <r_i_glide_hbond>  (243) 
0

>  <r_i_glide_metal>  (243) 
-0

>  <r_i_glide_rewards>  (243) 
-1.27907

>  <r_i_glide_evdw>  (243) 
-19.3115

>  <r_i_glide_ecoul>  (243) 
-1.21789

>  <r_i_glide_erotb>  (243) 
0.190165

>  <r_i_glide_esite>  (243) 
0

>  <r_i_glide_emodel>  (243) 
-23.0495

>  <r_i_glide_energy>  (243) 
-20.5294

>  <r_i_glide_einternal>  (243) 
1.63148

>  <r_i_glide_intrahb_reward>  (243) 
-0

>  <i_i_glide_confnum>  (243) 
3

>  <i_i_glide_posenum>  (243) 
1

>  <r_i_glide_eff_state_penalty>  (243) 
0

>  <ligand_id>  (243) 
70

>  <original_smiles>  (243) 
COC12C=C3C4CC1(CC3(O)c1ccccc1)C2(C)OC4(C)C

>  <smiles>  (243) 
[H]OC1(c2c([H])c([H])c([H])c([H])c2[H])C2=C([H])C3(OC([H])([H])[H])C4(C([H])([H])[H])OC(C([H])([H])[H])(C([H])([H])[H])C2([H])C([H])([H])C34C1([H])[H]

$$$$
71:0:0
     RDKit          3D

 98105  0  0  1  0  0  0  0  0999 V2000
    0.1161   -9.5531    6.3725 C   0  0  0  0  0  0  0  0  0  0  0  0
    1.3239   -8.9925    5.8747 O   0  0  0  0  0  0  0  0  0  0  0  0
    1.2381   -7.6110    5.5378 C   0  0  2  0  0  0  0  0  0  0  0  0
    0.4950   -7.3274    4.2190 C   0  0  1  0  0  0  0  0  0  0  0  0
    1.3765   -7.8800    3.1080 C   0  0  2  0  0  0  0  0  0  0  0  0
    2.3229   -6.9019    2.3903 C   0  0  0  0  0  0  0  0  0  0  0  0
    3.8393   -7.2291    2.7199 C   0  0  1  0  0  0  0  0  0  0  0  0
    3.9245   -8.4466    1.7223 C   0  0  0  0  0  0  0  0  0  0  0  0
    4.2782   -8.3868    0.5575 O   0  0  0  0  0  0  0  0  0  0  0  0
    4.9479   -6.3059    2.4423 C   0  0  1  0  0  0  0  0  0  0  0  0
    4.4506   -4.7934    2.7697 C   0  0  1  0  0  0  0  0  0  0  0  0
    3.7573   -4.3356    1.6047 O   0  0  0  0  0  0  0  0  0  0  0  0
    4.4607   -3.5598    0.6583 C   0  0  2  0  0  0  0  0  0  0  0  0
    4.6785   -4.3884   -0.6409 C   0  0  0  0  0  0  0  0  0  0  0  0
    5.5015   -3.6077   -1.6940 C   0  0  1  0  0  0  0  0  0  0  0  0
    4.7261   -2.5879   -2.2932 O   0  0  0  0  0  0  0  0  0  0  0  0
    6.7663   -3.0438   -1.0183 C   0  0  1  0  0  0  0  0  0  0  0  0
    7.5626   -2.2810   -1.9180 O   0  0  0  0  0  0  0  0  0  0  0  0
    6.4232   -2.2513    0.2594 C   0  0  1  0  0  0  0  0  0  0  0  0
    5.6865   -0.9127    0.0263 C   0  0  0  0  0  0  0  0  0  0  0  0
    5.6910   -3.0880    1.1279 O   0  0  0  0  0  0  0  0  0  0  0  0
    3.5683   -4.3761    4.1030 C   0  0  2  0  0  0  0  0  0  0  0  0
    2.5658   -5.3189    5.0382 C   0  0  2  0  0  0  0  0  0  0  0  0
    1.8389   -4.3150    6.0034 C   0  0  0  0  0  0  0  0  0  0  0  0
    2.5131   -2.9584    5.7157 C   0  0  2  0  0  0  0  0  0  0  0  0
    3.7005   -2.8924    6.7392 C   0  0  0  0  0  0  0  0  0  0  0  0
    1.8464   -1.5882    5.7880 C   0  0  0  0  0  0  0  0  0  0  0  0
    2.6270   -0.8231    4.8387 O   0  0  0  0  0  0  0  0  0  0  0  0
    3.3842   -1.6481    3.9670 C   0  0  1  0  0  0  0  0  0  0  0  0
    4.7661   -1.5977    4.2255 O   0  0  0  0  0  0  0  0  0  0  0  0
    2.7669   -3.0387    4.1890 C   0  0  1  0  0  0  0  0  0  0  0  0
    1.4850   -3.0392    3.2791 C   0  0  0  0  0  0  0  0  0  0  0  0
    2.6586   -6.8883    5.6127 C   0  0  2  0  0  0  0  0  0  0  0  0
    3.9848   -7.8117    5.3388 C   0  0  1  0  0  0  0  0  0  0  0  0
    4.7258   -7.8878    6.5681 O   0  0  0  0  0  0  0  0  0  0  0  0
    4.1019   -9.3145    4.9627 C   0  0  0  0  0  0  0  0  0  0  0  0
    5.5550   -9.6921    4.4711 C   0  0  0  0  0  0  0  0  0  0  0  0
    6.2396   -8.7903    3.3870 C   0  0  0  0  0  0  0  0  0  0  0  0
    7.0092   -9.3306    2.5907 O   0  0  0  0  0  0  0  0  0  0  0  0
    5.9113   -7.2695    3.4034 C   0  0  1  0  0  0  0  0  0  0  0  0
    7.2987   -6.5856    3.5838 C   0  0  0  0  0  0  0  0  0  0  0  0
    4.6557   -7.1018    4.2183 C   0  0  1  0  0  0  0  0  0  0  0  0
    5.2374   -6.0767    5.0408 O   0  0  0  0  0  0  0  0  0  0  0  0
   -0.0903   -8.0911    3.0246 C   0  0  0  0  0  0  0  0  0  0  0  0
   -0.6553   -9.4896    3.1627 C   0  0  0  0  0  0  0  0  0  0  0  0
   -0.8567   -7.3252    1.9713 C   0  0  0  0  0  0  0  0  0  0  0  0
    0.2476  -10.6297    6.4342 H   0  0  0  0  0  0  0  0  0  0  0  0
   -0.7218   -9.3645    5.7001 H   0  0  0  0  0  0  0  0  0  0  0  0
   -0.1104   -9.1888    7.3752 H   0  0  0  0  0  0  0  0  0  0  0  0
    0.6466   -7.1356    6.3175 H   0  0  0  0  0  0  0  0  0  0  0  0
    0.0494   -6.3276    4.2115 H   0  0  0  0  0  0  0  0  0  0  0  0
    1.8361   -8.8432    3.2769 H   0  0  0  0  0  0  0  0  0  0  0  0
    2.0998   -7.0155    1.3277 H   0  0  0  0  0  0  0  0  0  0  0  0
    2.0284   -5.8600    2.4789 H   0  0  0  0  0  0  0  0  0  0  0  0
    3.6318   -9.4202    2.1513 H   0  0  0  0  0  0  0  0  0  0  0  0
    5.3351   -6.3417    1.4265 H   0  0  0  0  0  0  0  0  0  0  0  0
    5.3575   -4.2175    2.9274 H   0  0  0  0  0  0  0  0  0  0  0  0
    3.8118   -2.7129    0.4431 H   0  0  0  0  0  0  0  0  0  0  0  0
    5.1931   -5.3205   -0.4062 H   0  0  0  0  0  0  0  0  0  0  0  0
    3.6998   -4.6592   -1.0380 H   0  0  0  0  0  0  0  0  0  0  0  0
    5.7939   -4.2741   -2.5023 H   0  0  0  0  0  0  0  0  0  0  0  0
    3.8661   -2.9330   -2.4717 H   0  0  0  0  0  0  0  0  0  0  0  0
    7.3929   -3.8832   -0.7172 H   0  0  0  0  0  0  0  0  0  0  0  0
    7.8630   -2.8239   -2.6428 H   0  0  0  0  0  0  0  0  0  0  0  0
    7.3690   -2.0335    0.7529 H   0  0  0  0  0  0  0  0  0  0  0  0
    6.2077   -0.2564   -0.6707 H   0  0  0  0  0  0  0  0  0  0  0  0
    5.6070   -0.3500    0.9518 H   0  0  0  0  0  0  0  0  0  0  0  0
    4.6901   -1.0597   -0.3889 H   0  0  0  0  0  0  0  0  0  0  0  0
    4.3894   -4.0526    4.7156 H   0  0  0  0  0  0  0  0  0  0  0  0
    1.7845   -5.3795    4.3388 H   0  0  0  0  0  0  0  0  0  0  0  0
    0.7710   -4.2698    5.7826 H   0  0  0  0  0  0  0  0  0  0  0  0
    1.9212   -4.6086    7.0510 H   0  0  0  0  0  0  0  0  0  0  0  0
    4.3307   -2.0152    6.6081 H   0  0  0  0  0  0  0  0  0  0  0  0
    4.3474   -3.7713    6.7488 H   0  0  0  0  0  0  0  0  0  0  0  0
    3.3099   -2.8165    7.7549 H   0  0  0  0  0  0  0  0  0  0  0  0
    0.7933   -1.6276    5.5006 H   0  0  0  0  0  0  0  0  0  0  0  0
    1.8993   -1.1380    6.7815 H   0  0  0  0  0  0  0  0  0  0  0  0
    3.2578   -1.3016    2.9390 H   0  0  0  0  0  0  0  0  0  0  0  0
    5.0582   -0.7178    4.0212 H   0  0  0  0  0  0  0  0  0  0  0  0
    0.9249   -2.1077    3.3357 H   0  0  0  0  0  0  0  0  0  0  0  0
    0.7521   -3.8170    3.4786 H   0  0  0  0  0  0  0  0  0  0  0  0
    1.7572   -3.1330    2.2291 H   0  0  0  0  0  0  0  0  0  0  0  0
    2.7570   -6.7137    6.6845 H   0  0  0  0  0  0  0  0  0  0  0  0
    4.2523   -8.4476    7.1616 H   0  0  0  0  0  0  0  0  0  0  0  0
    3.8466   -9.9438    5.8094 H   0  0  0  0  0  0  0  0  0  0  0  0
    3.4043   -9.6300    4.2063 H   0  0  0  0  0  0  0  0  0  0  0  0
    6.2261   -9.6903    5.3329 H   0  0  0  0  0  0  0  0  0  0  0  0
    5.5388  -10.7166    4.0890 H   0  0  0  0  0  0  0  0  0  0  0  0
    7.2294   -5.4921    3.6041 H   0  0  0  0  0  0  0  0  0  0  0  0
    7.9599   -6.8109    2.7416 H   0  0  0  0  0  0  0  0  0  0  0  0
    7.8082   -6.9038    4.4934 H   0  0  0  0  0  0  0  0  0  0  0  0
    5.8738   -6.5327    5.5914 H   0  0  0  0  0  0  0  0  0  0  0  0
   -0.7480   -9.9662    2.1864 H   0  0  0  0  0  0  0  0  0  0  0  0
   -1.6502   -9.4371    3.6048 H   0  0  0  0  0  0  0  0  0  0  0  0
   -0.0319  -10.1022    3.8230 H   0  0  0  0  0  0  0  0  0  0  0  0
   -0.8164   -7.8578    1.0225 H   0  0  0  0  0  0  0  0  0  0  0  0
   -0.4320   -6.3312    1.8188 H   0  0  0  0  0  0  0  0  0  0  0  0
   -1.8961   -7.2273    2.2747 H   0  0  0  0  0  0  0  0  0  0  0  0
  1  2  1  0
  1 47  1  0
  1 48  1  0
  1 49  1  0
  2  3  1  0
  3 33  1  0
  3  4  1  0
  3 50  1  1
  4 44  1  0
  4  5  1  0
  4 51  1  6
  5  6  1  0
  5 44  1  0
  5 52  1  1
  6  7  1  0
  6 53  1  0
  6 54  1  0
  7 42  1  0
  7  8  1  6
  7 10  1  0
  8  9  2  0
  8 55  1  0
 10 40  1  0
 10 11  1  0
 10 56  1  6
 11 12  1  0
 11 22  1  0
 11 57  1  1
 12 13  1  0
 13 21  1  0
 13 14  1  0
 13 58  1  6
 14 15  1  0
 14 59  1  0
 14 60  1  0
 15 16  1  0
 15 17  1  0
 15 61  1  6
 16 62  1  0
 17 18  1  0
 17 19  1  0
 17 63  1  1
 18 64  1  0
 19 20  1  0
 19 21  1  0
 19 65  1  1
 20 66  1  0
 20 67  1  0
 20 68  1  0
 22 31  1  0
 22 23  1  0
 22 69  1  1
 23 24  1  0
 23 33  1  0
 23 70  1  6
 24 25  1  0
 24 71  1  0
 24 72  1  0
 25 31  1  0
 25 26  1  1
 25 27  1  0
 26 73  1  0
 26 74  1  0
 26 75  1  0
 27 28  1  0
 27 76  1  0
 27 77  1  0
 28 29  1  0
 29 30  1  0
 29 31  1  0
 29 78  1  6
 30 79  1  0
 31 32  1  6
 32 80  1  0
 32 81  1  0
 32 82  1  0
 33 34  1  0
 33 83  1  1
 34 42  1  0
 34 35  1  1
 34 36  1  0
 35 84  1  0
 36 37  1  0
 36 85  1  0
 36 86  1  0
 37 38  1  0
 37 87  1  0
 37 88  1  0
 38 39  2  0
 38 40  1  0
 40 41  1  1
 40 42  1  0
 41 89  1  0
 41 90  1  0
 41 91  1  0
 42 43  1  1
 43 92  1  0
 44 45  1  0
 44 46  1  0
 45 93  1  0
 45 94  1  0
 45 95  1  0
 46 96  1  0
 46 97  1  0
 46 98  1  0
M  END
>  <i_m_ct_stereo_status>  (244) 
1

>  <s_m_source_file>  (244) 
/var/tmp/pbs.5076255.sched01/tmprva83imr/861x3d95ot.sdf

>  <i_m_source_file_index>  (244) 
12

>  <i_lp_mmshare_version>  (244) 
48012

>  <i_f3d_flags>  (244) 
0

>  <s_epik_input>  (244) 
Tz1bQ0hdW0NAQF0xMltDQEBIXTNbQ0BAXTQoW0NIM10pW0NAXTIoW09IXSlbQ0BdKFtPSF0pKFtDSDJdW0NIMl1DND1PKVtDQEhdKFtDQEhdKE9bQ0gzXSlbQ0BIXTVbQ0BIXShbQ0gyXTEpQzUoW0NIM10pW0NIM10pW0NAQEhdNltDQEhdKFtDQEBdNyhbQ0gzXSlbQ0BAXShbQ0gyXTYpKFtDSDNdKVtDSDJdT1tDQEhdN1tPSF0pW0NAQEhdM09bQ0BASF04W0NIMl1bQ0BASF0oW09IXSlbQ0BASF0oW09IXSlbQ0BIXShPOClbQ0gzXQ==

>  <s_epik_cmdline>  (244) 
J2VwaWtfcHl0aG9uJywgJy1waHQnLCAnMi4wJywgJy1waCcsICc3LjAnLCAnLXRuJywgJzgnLCAnLW1hJywgJzIwMCcsICctaW1hZScsICc8aW5maWxlLm1hZT4nLCAnLW9tYWUnLCAnPG91dGZpbGUubWFlPic=

>  <r_lp_tautomer_probability>  (244) 
1

>  <r_epik_Ionization_Penalty>  (244) 
3.45272e-07

>  <r_epik_Ionization_Penalty_Charging>  (244) 
0

>  <r_epik_Ionization_Penalty_Neutral>  (244) 
3.45272e-07

>  <r_epik_State_Penalty>  (244) 
-0

>  <r_epik_Charging_Adjusted_Penalty>  (244) 
0

>  <i_epik_Tot_Q>  (244) 
0

>  <i_epik_Tot_abs_Q>  (244) 
0

>  <s_epik_Chemistry_Notes>  (244) 
This compound contains an acetal/aminal-like group ( X-CH(R)-Y where X, Y are N, S, or O) that may be acid/base labile, releasing an aldehyde.

>  <s_lp_Force_Field>  (244) 
OPLS3e

>  <r_lp_Energy>  (244) 
333.682

>  <b_lp_Chiralities_Consistent>  (244) 
1

>  <s_lp_Variant>  (244) 
71:0-1

>  <s_i_glide_gridfile>  (244) 
pfpi4k_grid

>  <i_i_glide_lignum>  (244) 
12

>  <i_i_glide_rotatable_bonds>  (244) 
9

>  <r_i_docking_score>  (244) 
-3.05282

>  <r_i_glide_ligand_efficiency>  (244) 
-0.0663657

>  <r_i_glide_ligand_efficiency_sa>  (244) 
-0.237792

>  <r_i_glide_ligand_efficiency_ln>  (244) 
-0.632232

>  <r_i_glide_gscore>  (244) 
-3.05282

>  <r_i_glide_lipo>  (244) 
-0.225141

>  <r_i_glide_hbond>  (244) 
0

>  <r_i_glide_metal>  (244) 
-0

>  <r_i_glide_rewards>  (244) 
-0.0408168

>  <r_i_glide_evdw>  (244) 
-28.7416

>  <r_i_glide_ecoul>  (244) 
-9.55103

>  <r_i_glide_erotb>  (244) 
0.100866

>  <r_i_glide_esite>  (244) 
-0.0179952

>  <r_i_glide_emodel>  (244) 
-40.7979

>  <r_i_glide_energy>  (244) 
-38.2926

>  <r_i_glide_einternal>  (244) 
7.27988

>  <r_i_glide_intrahb_reward>  (244) 
-0

>  <i_i_glide_confnum>  (244) 
1

>  <i_i_glide_posenum>  (244) 
33

>  <r_i_glide_eff_state_penalty>  (244) 
0

>  <ligand_id>  (244) 
71

>  <original_smiles>  (244) 
COC1C2C(CC3(C=O)C4C(OC5CC(O)C(O)C(C)O5)C5C(CC6(C)COC(O)C56C)C1C1(O)CCC(=O)C4(C)C13O)C2(C)C

>  <smiles>  (244) 
[H]OC1([H])OC([H])([H])C2(C([H])([H])[H])C([H])([H])C3([H])C4([H])C([H])(OC([H])([H])[H])C5([H])C([H])(C([H])([H])C6(C([H])=O)C([H])(C([H])(OC7([H])OC([H])(C([H])([H])[H])C([H])(O[H])C([H])(O[H])C7([H])[H])C3([H])C12C([H])([H])[H])C1(C([H])([H])[H])C(=O)C([H])([H])C([H])([H])C4(O[H])C16O[H])C5(C([H])([H])[H])C([H])([H])[H]

$$$$
71:0:1
     RDKit          3D

 98105  0  0  1  0  0  0  0  0999 V2000
    1.8136   -9.5438    6.0938 C   0  0  0  0  0  0  0  0  0  0  0  0
    2.7726   -8.8012    5.3463 O   0  0  0  0  0  0  0  0  0  0  0  0
    2.4225   -7.4379    5.1153 C   0  0  2  0  0  0  0  0  0  0  0  0
    1.3819   -7.2349    4.0085 C   0  0  1  0  0  0  0  0  0  0  0  0
    2.0612   -7.6109    2.7018 C   0  0  2  0  0  0  0  0  0  0  0  0
    2.6807   -6.4924    1.8668 C   0  0  0  0  0  0  0  0  0  0  0  0
    4.2635   -6.5901    1.8566 C   0  0  1  0  0  0  0  0  0  0  0  0
    4.3026   -7.7291    0.7893 C   0  0  0  0  0  0  0  0  0  0  0  0
    4.2921   -8.9506    0.9445 O   0  0  0  0  0  0  0  0  0  0  0  0
    5.1340   -5.5043    1.3951 C   0  0  1  0  0  0  0  0  0  0  0  0
    4.4928   -4.0794    1.8912 C   0  0  1  0  0  0  0  0  0  0  0  0
    3.4879   -3.6441    0.9672 O   0  0  0  0  0  0  0  0  0  0  0  0
    3.9344   -3.1482   -0.2604 C   0  0  2  0  0  0  0  0  0  0  0  0
    4.0082   -1.5967   -0.2115 C   0  0  0  0  0  0  0  0  0  0  0  0
    4.4635   -1.0574   -1.5863 C   0  0  1  0  0  0  0  0  0  0  0  0
    5.8207   -1.3880   -1.7428 O   0  0  0  0  0  0  0  0  0  0  0  0
    3.5826   -1.6481   -2.7103 C   0  0  1  0  0  0  0  0  0  0  0  0
    3.9510   -1.2028   -4.0111 O   0  0  0  0  0  0  0  0  0  0  0  0
    3.5166   -3.1898   -2.6195 C   0  0  1  0  0  0  0  0  0  0  0  0
    4.8119   -3.9452   -3.0624 C   0  0  0  0  0  0  0  0  0  0  0  0
    3.0846   -3.5357   -1.2971 O   0  0  0  0  0  0  0  0  0  0  0  0
    3.9231   -3.8333    3.4150 C   0  0  2  0  0  0  0  0  0  0  0  0
    3.2815   -4.9530    4.4780 C   0  0  2  0  0  0  0  0  0  0  0  0
    2.6504   -4.1015    5.6363 C   0  0  0  0  0  0  0  0  0  0  0  0
    3.0494   -2.6518    5.2973 C   0  0  2  0  0  0  0  0  0  0  0  0
    4.4059   -2.4412    6.0507 C   0  0  0  0  0  0  0  0  0  0  0  0
    2.2258   -1.4018    5.5900 C   0  0  0  0  0  0  0  0  0  0  0  0
    2.6678   -0.4990    4.5502 O   0  0  0  0  0  0  0  0  0  0  0  0
    3.3267   -1.1786    3.4897 C   0  0  1  0  0  0  0  0  0  0  0  0
    4.7064   -0.9335    3.4466 O   0  0  0  0  0  0  0  0  0  0  0  0
    2.9664   -2.6437    3.7530 C   0  0  1  0  0  0  0  0  0  0  0  0
    1.5307   -2.8158    3.1444 C   0  0  0  0  0  0  0  0  0  0  0  0
    3.7097   -6.5087    4.9297 C   0  0  2  0  0  0  0  0  0  0  0  0
    5.0699   -7.2223    4.3480 C   0  0  1  0  0  0  0  0  0  0  0  0
    6.0395   -7.2336    5.3988 O   0  0  0  0  0  0  0  0  0  0  0  0
    5.3090   -8.6733    3.8772 C   0  0  0  0  0  0  0  0  0  0  0  0
    6.6589   -8.8096    3.0622 C   0  0  0  0  0  0  0  0  0  0  0  0
    6.9572   -7.7806    1.9130 C   0  0  0  0  0  0  0  0  0  0  0  0
    7.6342   -8.1774    0.9650 O   0  0  0  0  0  0  0  0  0  0  0  0
    6.4224   -6.3357    2.0782 C   0  0  1  0  0  0  0  0  0  0  0  0
    7.7061   -5.4612    2.0061 C   0  0  0  0  0  0  0  0  0  0  0  0
    5.3654   -6.3841    3.1443 C   0  0  1  0  0  0  0  0  0  0  0  0
    5.9377   -5.3224    3.9063 O   0  0  0  0  0  0  0  0  0  0  0  0
    0.6520   -8.0417    2.9144 C   0  0  0  0  0  0  0  0  0  0  0  0
    0.3325   -9.5103    3.0727 C   0  0  0  0  0  0  0  0  0  0  0  0
   -0.4202   -7.3710    2.0931 C   0  0  0  0  0  0  0  0  0  0  0  0
    2.1045  -10.5926    6.0543 H   0  0  0  0  0  0  0  0  0  0  0  0
    0.8025   -9.4716    5.6926 H   0  0  0  0  0  0  0  0  0  0  0  0
    1.7795   -9.2393    7.1340 H   0  0  0  0  0  0  0  0  0  0  0  0
    1.9579   -7.0791    6.0303 H   0  0  0  0  0  0  0  0  0  0  0  0
    0.8111   -6.3109    4.1511 H   0  0  0  0  0  0  0  0  0  0  0  0
    2.6775   -8.5002    2.7235 H   0  0  0  0  0  0  0  0  0  0  0  0
    2.2551   -6.6090    0.8642 H   0  0  0  0  0  0  0  0  0  0  0  0
    2.2653   -5.5062    2.0709 H   0  0  0  0  0  0  0  0  0  0  0  0
    4.3246   -7.3402   -0.2433 H   0  0  0  0  0  0  0  0  0  0  0  0
    5.2875   -5.5111    0.3118 H   0  0  0  0  0  0  0  0  0  0  0  0
    5.2741   -3.3198    1.7971 H   0  0  0  0  0  0  0  0  0  0  0  0
    4.9120   -3.5698   -0.4497 H   0  0  0  0  0  0  0  0  0  0  0  0
    3.0322   -1.1949    0.0698 H   0  0  0  0  0  0  0  0  0  0  0  0
    4.7241   -1.3071    0.5562 H   0  0  0  0  0  0  0  0  0  0  0  0
    4.3862    0.0306   -1.6156 H   0  0  0  0  0  0  0  0  0  0  0  0
    5.8753   -2.2901   -2.0040 H   0  0  0  0  0  0  0  0  0  0  0  0
    2.5747   -1.2515   -2.5603 H   0  0  0  0  0  0  0  0  0  0  0  0
    3.2056   -1.2900   -4.5899 H   0  0  0  0  0  0  0  0  0  0  0  0
    2.7057   -3.5061   -3.2701 H   0  0  0  0  0  0  0  0  0  0  0  0
    5.1338   -3.6263   -4.0495 H   0  0  0  0  0  0  0  0  0  0  0  0
    4.6423   -5.0151   -3.1274 H   0  0  0  0  0  0  0  0  0  0  0  0
    5.6731   -3.8310   -2.4026 H   0  0  0  0  0  0  0  0  0  0  0  0
    4.8229   -3.4113    3.8375 H   0  0  0  0  0  0  0  0  0  0  0  0
    2.3814   -5.1081    3.9589 H   0  0  0  0  0  0  0  0  0  0  0  0
    1.5663   -4.2157    5.6483 H   0  0  0  0  0  0  0  0  0  0  0  0
    3.0035   -4.4115    6.6181 H   0  0  0  0  0  0  0  0  0  0  0  0
    4.8580   -1.4685    5.8604 H   0  0  0  0  0  0  0  0  0  0  0  0
    5.1568   -3.2130    5.8727 H   0  0  0  0  0  0  0  0  0  0  0  0
    4.2286   -2.4594    7.1255 H   0  0  0  0  0  0  0  0  0  0  0  0
    1.1540   -1.5879    5.5180 H   0  0  0  0  0  0  0  0  0  0  0  0
    2.4164   -0.9793    6.5796 H   0  0  0  0  0  0  0  0  0  0  0  0
    2.9263   -0.8207    2.5333 H   0  0  0  0  0  0  0  0  0  0  0  0
    5.0726   -1.3056    4.2543 H   0  0  0  0  0  0  0  0  0  0  0  0
    0.8707   -1.9783    3.3724 H   0  0  0  0  0  0  0  0  0  0  0  0
    0.9720   -3.7033    3.4367 H   0  0  0  0  0  0  0  0  0  0  0  0
    1.5653   -2.8242    2.0592 H   0  0  0  0  0  0  0  0  0  0  0  0
    4.0161   -6.3496    5.9631 H   0  0  0  0  0  0  0  0  0  0  0  0
    5.7480   -7.8546    6.0575 H   0  0  0  0  0  0  0  0  0  0  0  0
    5.3549   -9.3496    4.7267 H   0  0  0  0  0  0  0  0  0  0  0  0
    4.5031   -9.0728    3.2919 H   0  0  0  0  0  0  0  0  0  0  0  0
    7.4961   -8.7399    3.7550 H   0  0  0  0  0  0  0  0  0  0  0  0
    6.6990   -9.8058    2.6236 H   0  0  0  0  0  0  0  0  0  0  0  0
    7.5008   -4.3917    2.0811 H   0  0  0  0  0  0  0  0  0  0  0  0
    8.2034   -5.5836    1.0379 H   0  0  0  0  0  0  0  0  0  0  0  0
    8.4384   -5.7263    2.7719 H   0  0  0  0  0  0  0  0  0  0  0  0
    6.2694   -4.6965    3.2592 H   0  0  0  0  0  0  0  0  0  0  0  0
    0.0983   -9.9682    2.1111 H   0  0  0  0  0  0  0  0  0  0  0  0
   -0.5342   -9.6246    3.7279 H   0  0  0  0  0  0  0  0  0  0  0  0
    1.1787  -10.0493    3.5030 H   0  0  0  0  0  0  0  0  0  0  0  0
   -0.5065   -7.8626    1.1258 H   0  0  0  0  0  0  0  0  0  0  0  0
   -0.1772   -6.3222    1.9239 H   0  0  0  0  0  0  0  0  0  0  0  0
   -1.3802   -7.4391    2.6040 H   0  0  0  0  0  0  0  0  0  0  0  0
  1  2  1  0
  1 47  1  0
  1 48  1  0
  1 49  1  0
  2  3  1  0
  3 33  1  0
  3  4  1  0
  3 50  1  1
  4 44  1  0
  4  5  1  0
  4 51  1  6
  5  6  1  0
  5 44  1  0
  5 52  1  1
  6  7  1  0
  6 53  1  0
  6 54  1  0
  7 42  1  0
  7  8  1  6
  7 10  1  0
  8  9  2  0
  8 55  1  0
 10 40  1  0
 10 11  1  0
 10 56  1  6
 11 12  1  0
 11 22  1  0
 11 57  1  1
 12 13  1  0
 13 21  1  0
 13 14  1  0
 13 58  1  6
 14 15  1  0
 14 59  1  0
 14 60  1  0
 15 16  1  0
 15 17  1  0
 15 61  1  1
 16 62  1  0
 17 18  1  0
 17 19  1  0
 17 63  1  1
 18 64  1  0
 19 20  1  0
 19 21  1  0
 19 65  1  6
 20 66  1  0
 20 67  1  0
 20 68  1  0
 22 31  1  0
 22 23  1  0
 22 69  1  1
 23 24  1  0
 23 33  1  0
 23 70  1  6
 24 25  1  0
 24 71  1  0
 24 72  1  0
 25 31  1  0
 25 26  1  6
 25 27  1  0
 26 73  1  0
 26 74  1  0
 26 75  1  0
 27 28  1  0
 27 76  1  0
 27 77  1  0
 28 29  1  0
 29 30  1  0
 29 31  1  0
 29 78  1  6
 30 79  1  0
 31 32  1  1
 32 80  1  0
 32 81  1  0
 32 82  1  0
 33 34  1  0
 33 83  1  1
 34 42  1  0
 34 35  1  1
 34 36  1  0
 35 84  1  0
 36 37  1  0
 36 85  1  0
 36 86  1  0
 37 38  1  0
 37 87  1  0
 37 88  1  0
 38 39  2  0
 38 40  1  0
 40 41  1  1
 40 42  1  0
 41 89  1  0
 41 90  1  0
 41 91  1  0
 42 43  1  1
 43 92  1  0
 44 45  1  0
 44 46  1  0
 45 93  1  0
 45 94  1  0
 45 95  1  0
 46 96  1  0
 46 97  1  0
 46 98  1  0
M  END
>  <i_m_ct_stereo_status>  (245) 
1

>  <s_m_source_file>  (245) 
/var/tmp/pbs.5076255.sched01/tmprva83imr/861x3d95ot.sdf

>  <i_m_source_file_index>  (245) 
12

>  <i_lp_mmshare_version>  (245) 
48012

>  <i_f3d_flags>  (245) 
0

>  <s_epik_input>  (245) 
Tz1bQ0hdW0NAQF0xMltDQEBIXTNbQ0BAXTQoW0NIM10pW0NAXTIoW09IXSlbQ0BdKFtPSF0pKFtDSDJdW0NIMl1DND1PKVtDQEhdKFtDQEhdKE9bQ0gzXSlbQ0BIXTVbQ0BIXShbQ0gyXTEpQzUoW0NIM10pW0NIM10pW0NAQEhdNltDQEhdKFtDQEBdNyhbQ0gzXSlbQ0BAXShbQ0gyXTYpKFtDSDNdKVtDSDJdT1tDQEhdN1tPSF0pW0NAQEhdM09bQ0BASF04W0NIMl1bQ0BASF0oW09IXSlbQ0BASF0oW09IXSlbQ0BIXShPOClbQ0gzXQ==

>  <s_epik_cmdline>  (245) 
J2VwaWtfcHl0aG9uJywgJy1waHQnLCAnMi4wJywgJy1waCcsICc3LjAnLCAnLXRuJywgJzgnLCAnLW1hJywgJzIwMCcsICctaW1hZScsICc8aW5maWxlLm1hZT4nLCAnLW9tYWUnLCAnPG91dGZpbGUubWFlPic=

>  <r_lp_tautomer_probability>  (245) 
1

>  <r_epik_Ionization_Penalty>  (245) 
3.45272e-07

>  <r_epik_Ionization_Penalty_Charging>  (245) 
0

>  <r_epik_Ionization_Penalty_Neutral>  (245) 
3.45272e-07

>  <r_epik_State_Penalty>  (245) 
-0

>  <r_epik_Charging_Adjusted_Penalty>  (245) 
0

>  <i_epik_Tot_Q>  (245) 
0

>  <i_epik_Tot_abs_Q>  (245) 
0

>  <s_epik_Chemistry_Notes>  (245) 
This compound contains an acetal/aminal-like group ( X-CH(R)-Y where X, Y are N, S, or O) that may be acid/base labile, releasing an aldehyde.

>  <s_lp_Force_Field>  (245) 
OPLS3e

>  <r_lp_Energy>  (245) 
333.682

>  <b_lp_Chiralities_Consistent>  (245) 
1

>  <s_lp_Variant>  (245) 
71:0-1

>  <s_i_glide_gridfile>  (245) 
pfpi4k_grid

>  <i_i_glide_lignum>  (245) 
12

>  <i_i_glide_rotatable_bonds>  (245) 
9

>  <r_i_docking_score>  (245) 
-2.53205

>  <r_i_glide_ligand_efficiency>  (245) 
-0.0550445

>  <r_i_glide_ligand_efficiency_sa>  (245) 
-0.197227

>  <r_i_glide_ligand_efficiency_ln>  (245) 
-0.524381

>  <r_i_glide_gscore>  (245) 
-2.53205

>  <r_i_glide_lipo>  (245) 
-0.257383

>  <r_i_glide_hbond>  (245) 
0

>  <r_i_glide_metal>  (245) 
-0

>  <r_i_glide_rewards>  (245) 
-0.226347

>  <r_i_glide_evdw>  (245) 
-31.5814

>  <r_i_glide_ecoul>  (245) 
-3.80076

>  <r_i_glide_erotb>  (245) 
0.100866

>  <r_i_glide_esite>  (245) 
0

>  <r_i_glide_emodel>  (245) 
-38.6069

>  <r_i_glide_energy>  (245) 
-35.3822

>  <r_i_glide_einternal>  (245) 
3.94656

>  <r_i_glide_intrahb_reward>  (245) 
-0

>  <i_i_glide_confnum>  (245) 
1

>  <i_i_glide_posenum>  (245) 
22

>  <r_i_glide_eff_state_penalty>  (245) 
0

>  <ligand_id>  (245) 
71

>  <original_smiles>  (245) 
COC1C2C(CC3(C=O)C4C(OC5CC(O)C(O)C(C)O5)C5C(CC6(C)COC(O)C56C)C1C1(O)CCC(=O)C4(C)C13O)C2(C)C

>  <smiles>  (245) 
[H]OC1([H])OC([H])([H])C2(C([H])([H])[H])C([H])([H])C3([H])C4([H])C([H])(OC([H])([H])[H])C5([H])C([H])(C([H])([H])C6(C([H])=O)C([H])(C([H])(OC7([H])OC([H])(C([H])([H])[H])C([H])(O[H])C([H])(O[H])C7([H])[H])C3([H])C12C([H])([H])[H])C1(C([H])([H])[H])C(=O)C([H])([H])C([H])([H])C4(O[H])C16O[H])C5(C([H])([H])[H])C([H])([H])[H]

$$$$
71:0:2
     RDKit          3D

 98105  0  0  1  0  0  0  0  0999 V2000
    2.7970   -9.4041    6.6823 C   0  0  0  0  0  0  0  0  0  0  0  0
    2.3585   -9.0500    5.3727 O   0  0  0  0  0  0  0  0  0  0  0  0
    2.1058   -7.6470    5.1997 C   0  0  2  0  0  0  0  0  0  0  0  0
    1.1244   -7.3912    4.0550 C   0  0  1  0  0  0  0  0  0  0  0  0
    1.8244   -7.7565    2.7704 C   0  0  2  0  0  0  0  0  0  0  0  0
    2.5048   -6.6388    1.9847 C   0  0  0  0  0  0  0  0  0  0  0  0
    4.0780   -6.7550    2.0267 C   0  0  1  0  0  0  0  0  0  0  0  0
    4.1410   -7.8539    0.9195 C   0  0  0  0  0  0  0  0  0  0  0  0
    4.0538   -9.0699    1.0209 O   0  0  0  0  0  0  0  0  0  0  0  0
    4.9940   -5.6776    1.6604 C   0  0  1  0  0  0  0  0  0  0  0  0
    4.3672   -4.2641    2.1774 C   0  0  1  0  0  0  0  0  0  0  0  0
    3.4219   -3.7769    1.2256 O   0  0  0  0  0  0  0  0  0  0  0  0
    3.9427   -3.2709    0.0303 C   0  0  2  0  0  0  0  0  0  0  0  0
    3.9019   -1.7211    0.0488 C   0  0  0  0  0  0  0  0  0  0  0  0
    4.4269   -1.1614   -1.2985 C   0  0  1  0  0  0  0  0  0  0  0  0
    5.8254   -1.3251   -1.3824 O   0  0  0  0  0  0  0  0  0  0  0  0
    3.6711   -1.8513   -2.4727 C   0  0  1  0  0  0  0  0  0  0  0  0
    4.0937   -1.3979   -3.7683 O   0  0  0  0  0  0  0  0  0  0  0  0
    3.7134   -3.3893   -2.3490 C   0  0  1  0  0  0  0  0  0  0  0  0
    5.0755   -4.0678   -2.7016 C   0  0  0  0  0  0  0  0  0  0  0  0
    3.2217   -3.7555   -1.0572 O   0  0  0  0  0  0  0  0  0  0  0  0
    3.7427   -4.0602    3.6863 C   0  0  2  0  0  0  0  0  0  0  0  0
    3.0358   -5.1845    4.6723 C   0  0  2  0  0  0  0  0  0  0  0  0
    2.3727   -4.3673    5.8327 C   0  0  0  0  0  0  0  0  0  0  0  0
    2.8140   -2.9155    5.5713 C   0  0  2  0  0  0  0  0  0  0  0  0
    4.1528   -2.7651    6.3797 C   0  0  0  0  0  0  0  0  0  0  0  0
    2.0211   -1.6468    5.8583 C   0  0  0  0  0  0  0  0  0  0  0  0
    2.5449   -0.7253    4.8669 O   0  0  0  0  0  0  0  0  0  0  0  0
    3.2047   -1.3891    3.8077 C   0  0  1  0  0  0  0  0  0  0  0  0
    4.6203   -1.1989    3.8568 O   0  0  0  0  0  0  0  0  0  0  0  0
    2.8150   -2.8590    4.0179 C   0  0  1  0  0  0  0  0  0  0  0  0
    1.3912   -2.9624    3.3368 C   0  0  0  0  0  0  0  0  0  0  0  0
    3.4177   -6.7519    5.1025 C   0  0  2  0  0  0  0  0  0  0  0  0
    4.7638   -7.4840    4.5385 C   0  0  1  0  0  0  0  0  0  0  0  0
    5.6946   -7.5666    5.6408 O   0  0  0  0  0  0  0  0  0  0  0  0
    4.9884   -8.9416    4.0373 C   0  0  0  0  0  0  0  0  0  0  0  0
    6.3613   -9.0870    3.2733 C   0  0  0  0  0  0  0  0  0  0  0  0
    6.7196   -8.0360    2.1687 C   0  0  0  0  0  0  0  0  0  0  0  0
    7.3582   -8.4333    1.2073 O   0  0  0  0  0  0  0  0  0  0  0  0
    6.2195   -6.5683    2.3574 C   0  0  1  0  0  0  0  0  0  0  0  0
    7.5356   -5.7618    2.3672 C   0  0  0  0  0  0  0  0  0  0  0  0
    5.1166   -6.6398    3.3767 C   0  0  1  0  0  0  0  0  0  0  0  0
    5.7184   -5.6009    4.1798 O   0  0  0  0  0  0  0  0  0  0  0  0
    0.4046   -8.1473    2.9348 C   0  0  0  0  0  0  0  0  0  0  0  0
    0.0252   -9.6011    3.1062 C   0  0  0  0  0  0  0  0  0  0  0  0
   -0.6221   -7.4358    2.0800 C   0  0  0  0  0  0  0  0  0  0  0  0
    2.9071  -10.4872    6.7308 H   0  0  0  0  0  0  0  0  0  0  0  0
    2.0882   -9.1007    7.4580 H   0  0  0  0  0  0  0  0  0  0  0  0
    3.7678   -8.9622    6.9105 H   0  0  0  0  0  0  0  0  0  0  0  0
    1.5546   -7.3131    6.0840 H   0  0  0  0  0  0  0  0  0  0  0  0
    0.5605   -6.4691    4.2057 H   0  0  0  0  0  0  0  0  0  0  0  0
    2.4054   -8.6649    2.7749 H   0  0  0  0  0  0  0  0  0  0  0  0
    2.1152   -6.7118    0.9636 H   0  0  0  0  0  0  0  0  0  0  0  0
    2.0994   -5.6526    2.2031 H   0  0  0  0  0  0  0  0  0  0  0  0
    4.2753   -7.4487   -0.0810 H   0  0  0  0  0  0  0  0  0  0  0  0
    5.1925   -5.6587    0.5937 H   0  0  0  0  0  0  0  0  0  0  0  0
    5.1627   -3.5257    2.1481 H   0  0  0  0  0  0  0  0  0  0  0  0
    4.9566   -3.6272   -0.0708 H   0  0  0  0  0  0  0  0  0  0  0  0
    2.8844   -1.3874    0.2462 H   0  0  0  0  0  0  0  0  0  0  0  0
    4.5251   -1.3756    0.8673 H   0  0  0  0  0  0  0  0  0  0  0  0
    4.2334   -0.0876   -1.3450 H   0  0  0  0  0  0  0  0  0  0  0  0
    5.9886   -2.2527   -1.5179 H   0  0  0  0  0  0  0  0  0  0  0  0
    2.6234   -1.5356   -2.4058 H   0  0  0  0  0  0  0  0  0  0  0  0
    3.9193   -0.4846   -3.8441 H   0  0  0  0  0  0  0  0  0  0  0  0
    2.9679   -3.7526   -3.0478 H   0  0  0  0  0  0  0  0  0  0  0  0
    5.4263   -3.7625   -3.6889 H   0  0  0  0  0  0  0  0  0  0  0  0
    5.0080   -5.1498   -2.7460 H   0  0  0  0  0  0  0  0  0  0  0  0
    5.9004   -3.8824   -2.0133 H   0  0  0  0  0  0  0  0  0  0  0  0
    4.6322   -3.6628    4.1542 H   0  0  0  0  0  0  0  0  0  0  0  0
    2.1588   -5.2980    4.1091 H   0  0  0  0  0  0  0  0  0  0  0  0
    1.2897   -4.4488    5.7958 H   0  0  0  0  0  0  0  0  0  0  0  0
    2.6776   -4.7136    6.8163 H   0  0  0  0  0  0  0  0  0  0  0  0
    4.6389   -1.8016    6.2404 H   0  0  0  0  0  0  0  0  0  0  0  0
    4.8868   -3.5559    6.2067 H   0  0  0  0  0  0  0  0  0  0  0  0
    3.9274   -2.8167    7.4422 H   0  0  0  0  0  0  0  0  0  0  0  0
    0.9537   -1.8032    5.7253 H   0  0  0  0  0  0  0  0  0  0  0  0
    2.1766   -1.2705    6.8668 H   0  0  0  0  0  0  0  0  0  0  0  0
    2.8750   -0.9994    2.8541 H   0  0  0  0  0  0  0  0  0  0  0  0
    4.9273   -1.5699    4.6378 H   0  0  0  0  0  0  0  0  0  0  0  0
    0.7510   -2.1146    3.5671 H   0  0  0  0  0  0  0  0  0  0  0  0
    0.8022   -3.8432    3.5869 H   0  0  0  0  0  0  0  0  0  0  0  0
    1.4703   -2.9421    2.2565 H   0  0  0  0  0  0  0  0  0  0  0  0
    3.6822   -6.6295    6.1505 H   0  0  0  0  0  0  0  0  0  0  0  0
    5.3526   -8.1689    6.2588 H   0  0  0  0  0  0  0  0  0  0  0  0
    4.9851   -9.6501    4.8653 H   0  0  0  0  0  0  0  0  0  0  0  0
    4.1905   -9.2978    3.4070 H   0  0  0  0  0  0  0  0  0  0  0  0
    7.1651   -9.0648    4.0048 H   0  0  0  0  0  0  0  0  0  0  0  0
    6.3861  -10.0717    2.8082 H   0  0  0  0  0  0  0  0  0  0  0  0
    7.3545   -4.6957    2.4124 H   0  0  0  0  0  0  0  0  0  0  0  0
    8.0780   -5.8974    1.4319 H   0  0  0  0  0  0  0  0  0  0  0  0
    8.2208   -6.0467    3.1640 H   0  0  0  0  0  0  0  0  0  0  0  0
    6.3248   -5.1716    3.6305 H   0  0  0  0  0  0  0  0  0  0  0  0
   -0.1043  -10.0733    2.1282 H   0  0  0  0  0  0  0  0  0  0  0  0
   -0.9111   -9.6859    3.6622 H   0  0  0  0  0  0  0  0  0  0  0  0
    0.8044  -10.1425    3.6494 H   0  0  0  0  0  0  0  0  0  0  0  0
   -0.6658   -7.8902    1.0887 H   0  0  0  0  0  0  0  0  0  0  0  0
   -0.3412   -6.3902    1.9522 H   0  0  0  0  0  0  0  0  0  0  0  0
   -1.6119   -7.4940    2.5397 H   0  0  0  0  0  0  0  0  0  0  0  0
  1  2  1  0
  1 47  1  0
  1 48  1  0
  1 49  1  0
  2  3  1  0
  3 33  1  0
  3  4  1  0
  3 50  1  1
  4 44  1  0
  4  5  1  0
  4 51  1  6
  5  6  1  0
  5 44  1  0
  5 52  1  1
  6  7  1  0
  6 53  1  0
  6 54  1  0
  7 42  1  0
  7  8  1  6
  7 10  1  0
  8  9  2  0
  8 55  1  0
 10 40  1  0
 10 11  1  0
 10 56  1  6
 11 12  1  0
 11 22  1  0
 11 57  1  1
 12 13  1  0
 13 21  1  0
 13 14  1  0
 13 58  1  6
 14 15  1  0
 14 59  1  0
 14 60  1  0
 15 16  1  0
 15 17  1  0
 15 61  1  1
 16 62  1  0
 17 18  1  0
 17 19  1  0
 17 63  1  1
 18 64  1  0
 19 20  1  0
 19 21  1  0
 19 65  1  6
 20 66  1  0
 20 67  1  0
 20 68  1  0
 22 31  1  0
 22 23  1  0
 22 69  1  1
 23 24  1  0
 23 33  1  0
 23 70  1  6
 24 25  1  0
 24 71  1  0
 24 72  1  0
 25 31  1  0
 25 26  1  1
 25 27  1  0
 26 73  1  0
 26 74  1  0
 26 75  1  0
 27 28  1  0
 27 76  1  0
 27 77  1  0
 28 29  1  0
 29 30  1  0
 29 31  1  0
 29 78  1  6
 30 79  1  0
 31 32  1  6
 32 80  1  0
 32 81  1  0
 32 82  1  0
 33 34  1  0
 33 83  1  1
 34 42  1  0
 34 35  1  1
 34 36  1  0
 35 84  1  0
 36 37  1  0
 36 85  1  0
 36 86  1  0
 37 38  1  0
 37 87  1  0
 37 88  1  0
 38 39  2  0
 38 40  1  0
 40 41  1  1
 40 42  1  0
 41 89  1  0
 41 90  1  0
 41 91  1  0
 42 43  1  1
 43 92  1  0
 44 45  1  0
 44 46  1  0
 45 93  1  0
 45 94  1  0
 45 95  1  0
 46 96  1  0
 46 97  1  0
 46 98  1  0
M  END
>  <i_m_ct_stereo_status>  (246) 
1

>  <s_m_source_file>  (246) 
/var/tmp/pbs.5076255.sched01/tmprva83imr/861x3d95ot.sdf

>  <i_m_source_file_index>  (246) 
12

>  <i_lp_mmshare_version>  (246) 
48012

>  <i_f3d_flags>  (246) 
0

>  <s_epik_input>  (246) 
Tz1bQ0hdW0NAQF0xMltDQEBIXTNbQ0BAXTQoW0NIM10pW0NAXTIoW09IXSlbQ0BdKFtPSF0pKFtDSDJdW0NIMl1DND1PKVtDQEhdKFtDQEhdKE9bQ0gzXSlbQ0BIXTVbQ0BIXShbQ0gyXTEpQzUoW0NIM10pW0NIM10pW0NAQEhdNltDQEhdKFtDQEBdNyhbQ0gzXSlbQ0BAXShbQ0gyXTYpKFtDSDNdKVtDSDJdT1tDQEhdN1tPSF0pW0NAQEhdM09bQ0BASF04W0NIMl1bQ0BASF0oW09IXSlbQ0BASF0oW09IXSlbQ0BIXShPOClbQ0gzXQ==

>  <s_epik_cmdline>  (246) 
J2VwaWtfcHl0aG9uJywgJy1waHQnLCAnMi4wJywgJy1waCcsICc3LjAnLCAnLXRuJywgJzgnLCAnLW1hJywgJzIwMCcsICctaW1hZScsICc8aW5maWxlLm1hZT4nLCAnLW9tYWUnLCAnPG91dGZpbGUubWFlPic=

>  <r_lp_tautomer_probability>  (246) 
1

>  <r_epik_Ionization_Penalty>  (246) 
3.45272e-07

>  <r_epik_Ionization_Penalty_Charging>  (246) 
0

>  <r_epik_Ionization_Penalty_Neutral>  (246) 
3.45272e-07

>  <r_epik_State_Penalty>  (246) 
-0

>  <r_epik_Charging_Adjusted_Penalty>  (246) 
0

>  <i_epik_Tot_Q>  (246) 
0

>  <i_epik_Tot_abs_Q>  (246) 
0

>  <s_epik_Chemistry_Notes>  (246) 
This compound contains an acetal/aminal-like group ( X-CH(R)-Y where X, Y are N, S, or O) that may be acid/base labile, releasing an aldehyde.

>  <s_lp_Force_Field>  (246) 
OPLS3e

>  <r_lp_Energy>  (246) 
333.682

>  <b_lp_Chiralities_Consistent>  (246) 
1

>  <s_lp_Variant>  (246) 
71:0-1

>  <s_i_glide_gridfile>  (246) 
pfpi4k_grid

>  <i_i_glide_lignum>  (246) 
12

>  <i_i_glide_rotatable_bonds>  (246) 
9

>  <r_i_docking_score>  (246) 
-2.34029

>  <r_i_glide_ligand_efficiency>  (246) 
-0.0508758

>  <r_i_glide_ligand_efficiency_sa>  (246) 
-0.182291

>  <r_i_glide_ligand_efficiency_ln>  (246) 
-0.484668

>  <r_i_glide_gscore>  (246) 
-2.34029

>  <r_i_glide_lipo>  (246) 
-0.162353

>  <r_i_glide_hbond>  (246) 
0

>  <r_i_glide_metal>  (246) 
-0

>  <r_i_glide_rewards>  (246) 
-0.17658

>  <r_i_glide_evdw>  (246) 
-31.3189

>  <r_i_glide_ecoul>  (246) 
-3.57516

>  <r_i_glide_erotb>  (246) 
0.100866

>  <r_i_glide_esite>  (246) 
0

>  <r_i_glide_emodel>  (246) 
-37.696

>  <r_i_glide_energy>  (246) 
-34.8941

>  <r_i_glide_einternal>  (246) 
4.03988

>  <r_i_glide_intrahb_reward>  (246) 
-0

>  <i_i_glide_confnum>  (246) 
3

>  <i_i_glide_posenum>  (246) 
19

>  <r_i_glide_eff_state_penalty>  (246) 
0

>  <ligand_id>  (246) 
71

>  <original_smiles>  (246) 
COC1C2C(CC3(C=O)C4C(OC5CC(O)C(O)C(C)O5)C5C(CC6(C)COC(O)C56C)C1C1(O)CCC(=O)C4(C)C13O)C2(C)C

>  <smiles>  (246) 
[H]OC1([H])OC([H])([H])C2(C([H])([H])[H])C([H])([H])C3([H])C4([H])C([H])(OC([H])([H])[H])C5([H])C([H])(C([H])([H])C6(C([H])=O)C([H])(C([H])(OC7([H])OC([H])(C([H])([H])[H])C([H])(O[H])C([H])(O[H])C7([H])[H])C3([H])C12C([H])([H])[H])C1(C([H])([H])[H])C(=O)C([H])([H])C([H])([H])C4(O[H])C16O[H])C5(C([H])([H])[H])C([H])([H])[H]

$$$$
72:0:0
     RDKit          3D

 80 87  0  0  1  0  0  0  0  0999 V2000
   -0.4678   -6.3956    4.5335 C   0  0  0  0  0  0  0  0  0  0  0  0
    0.8389   -6.9758    5.1013 C   0  0  0  0  0  0  0  0  0  0  0  0
    1.9471   -6.0574    5.7275 C   0  0  1  0  0  0  0  0  0  0  0  0
    2.4222   -5.1858    4.5536 C   0  0  0  0  0  0  0  0  0  0  0  0
    3.5053   -5.8518    3.6976 C   0  0  0  0  0  0  0  0  0  0  0  0
    4.6872   -6.4071    4.5606 C   0  0  1  0  0  0  0  0  0  0  0  0
    5.6107   -7.0680    3.6678 N   0  0  0  0  0  0  0  0  0  0  0  0
    6.3822   -6.4763    2.6347 C   0  0  0  0  0  0  0  0  0  0  0  0
    7.3190   -7.2779    1.9615 C   0  0  0  0  0  0  0  0  0  0  0  0
    8.1133   -6.7434    0.9334 C   0  0  0  0  0  0  0  0  0  0  0  0
    7.9859   -5.3957    0.5600 C   0  0  0  0  0  0  0  0  0  0  0  0
    7.0429   -4.5780    1.2155 C   0  0  0  0  0  0  0  0  0  0  0  0
    6.8081   -3.2444    0.9305 O   0  0  0  0  0  0  0  0  0  0  0  0
    7.6204   -2.6162   -0.0409 C   0  0  0  0  0  0  0  0  0  0  0  0
    6.2485   -5.1201    2.2511 C   0  0  0  0  0  0  0  0  0  0  0  0
    5.5184   -5.3821    5.4079 C   0  0  0  0  0  0  0  0  0  0  0  0
    4.7227   -4.7374    6.5433 C   0  0  0  0  0  0  0  0  0  0  0  0
    3.8511   -5.7786    7.2668 C   0  0  1  0  0  0  0  0  0  0  0  0
    2.5510   -5.4958    8.0354 C   0  0  1  0  0  0  0  0  0  0  0  0
    2.7303   -4.2737    9.3370 Cl  0  0  0  0  0  0  0  0  0  0  0  0
    1.4359   -5.2108    6.9664 C   0  0  1  0  0  0  0  0  0  0  0  0
    1.0151   -3.7265    6.7138 C   0  0  0  0  0  0  0  0  0  0  0  0
    1.9167   -2.6380    6.7987 C   0  0  0  0  0  0  0  0  0  0  0  0
    1.5205   -1.3188    6.5063 C   0  0  0  0  0  0  0  0  0  0  0  0
    0.1949   -1.0476    6.1463 C   0  0  0  0  0  0  0  0  0  0  0  0
   -0.7234   -2.1044    6.0825 C   0  0  0  0  0  0  0  0  0  0  0  0
   -0.3259   -3.4154    6.3952 C   0  0  0  0  0  0  0  0  0  0  0  0
    2.3921   -6.9011    8.6879 C   0  0  1  0  0  0  0  0  0  0  0  0
    1.0076   -7.2740    9.2855 C   0  0  0  0  0  0  0  0  0  0  0  0
    0.0973   -7.9785    8.4074 O   0  0  0  0  0  0  0  0  0  0  0  0
    0.5139   -9.0419    7.6456 C   0  0  0  0  0  0  0  0  0  0  0  0
   -0.2838   -9.7706    7.0545 O   0  0  0  0  0  0  0  0  0  0  0  0
    2.0090   -9.1504    7.6098 C   0  0  1  0  0  0  0  0  0  0  0  0
    2.6266  -10.2440    6.7809 N   0  0  1  0  0  0  0  0  0  0  0  0
    2.3355  -10.2704    5.2969 C   0  0  0  0  0  0  0  0  0  0  0  0
    4.1054   -9.9954    7.0586 C   0  0  0  0  0  0  0  0  0  0  0  0
    4.1788   -8.7158    7.9059 C   0  0  0  0  0  0  0  0  0  0  0  0
    2.8881   -7.8915    7.5853 C   0  0  2  0  0  0  0  0  0  0  0  0
    3.1747   -6.8524    6.3903 C   0  0  1  0  0  0  0  0  0  0  0  0
    4.1192   -7.3499    5.4222 O   0  0  0  0  0  0  0  0  0  0  0  0
   -1.1537   -7.2072    4.3177 H   0  0  0  0  0  0  0  0  0  0  0  0
   -0.3383   -5.8155    3.6312 H   0  0  0  0  0  0  0  0  0  0  0  0
   -0.9897   -5.7974    5.2885 H   0  0  0  0  0  0  0  0  0  0  0  0
    0.4027   -7.5471    5.9156 H   0  0  0  0  0  0  0  0  0  0  0  0
    1.2712   -7.6911    4.3973 H   0  0  0  0  0  0  0  0  0  0  0  0
    1.6003   -4.9286    3.9045 H   0  0  0  0  0  0  0  0  0  0  0  0
    2.7799   -4.2070    4.8381 H   0  0  0  0  0  0  0  0  0  0  0  0
    3.0659   -6.6969    3.1302 H   0  0  0  0  0  0  0  0  0  0  0  0
    3.8337   -5.1079    2.9696 H   0  0  0  0  0  0  0  0  0  0  0  0
    6.0003   -7.9229    4.0527 H   0  0  0  0  0  0  0  0  0  0  0  0
    7.4376   -8.3212    2.2358 H   0  0  0  0  0  0  0  0  0  0  0  0
    8.8374   -7.3762    0.4329 H   0  0  0  0  0  0  0  0  0  0  0  0
    8.6134   -5.0106   -0.2346 H   0  0  0  0  0  0  0  0  0  0  0  0
    7.3083   -1.5770   -0.1267 H   0  0  0  0  0  0  0  0  0  0  0  0
    7.5012   -3.0908   -1.0168 H   0  0  0  0  0  0  0  0  0  0  0  0
    8.6693   -2.6331    0.2610 H   0  0  0  0  0  0  0  0  0  0  0  0
    5.5544   -4.4472    2.7307 H   0  0  0  0  0  0  0  0  0  0  0  0
    6.4003   -5.8938    5.8131 H   0  0  0  0  0  0  0  0  0  0  0  0
    5.9020   -4.5624    4.8049 H   0  0  0  0  0  0  0  0  0  0  0  0
    5.4140   -4.2992    7.2454 H   0  0  0  0  0  0  0  0  0  0  0  0
    4.2243   -3.8663    6.1275 H   0  0  0  0  0  0  0  0  0  0  0  0
    4.5895   -6.1939    7.9728 H   0  0  0  0  0  0  0  0  0  0  0  0
    0.5049   -5.6633    7.3421 H   0  0  0  0  0  0  0  0  0  0  0  0
    2.9456   -2.7619    7.1270 H   0  0  0  0  0  0  0  0  0  0  0  0
    2.2461   -0.5170    6.5862 H   0  0  0  0  0  0  0  0  0  0  0  0
   -0.1233   -0.0233    5.9558 H   0  0  0  0  0  0  0  0  0  0  0  0
   -1.7601   -1.9110    5.8141 H   0  0  0  0  0  0  0  0  0  0  0  0
   -1.0926   -4.1871    6.3969 H   0  0  0  0  0  0  0  0  0  0  0  0
    3.0915   -6.9473    9.5220 H   0  0  0  0  0  0  0  0  0  0  0  0
    1.1546   -7.9002   10.1673 H   0  0  0  0  0  0  0  0  0  0  0  0
    0.5163   -6.3680    9.6396 H   0  0  0  0  0  0  0  0  0  0  0  0
    2.1818   -9.5970    8.5806 H   0  0  0  0  0  0  0  0  0  0  0  0
    2.7221   -9.4020    4.7940 H   0  0  0  0  0  0  0  0  0  0  0  0
    1.2789  -10.3727    5.1214 H   0  0  0  0  0  0  0  0  0  0  0  0
    2.8285  -11.1435    4.8990 H   0  0  0  0  0  0  0  0  0  0  0  0
    4.5103  -10.8531    7.5704 H   0  0  0  0  0  0  0  0  0  0  0  0
    4.6472   -9.8711    6.1346 H   0  0  0  0  0  0  0  0  0  0  0  0
    4.1795   -8.9889    8.9649 H   0  0  0  0  0  0  0  0  0  0  0  0
    5.1296   -8.2017    7.7277 H   0  0  0  0  0  0  0  0  0  0  0  0
    2.3181  -11.1262    7.1557 H   0  0  0  0  0  0  0  0  0  0  0  0
  1  2  1  0
  1 41  1  0
  1 42  1  0
  1 43  1  0
  3  2  1  6
  2 44  1  0
  2 45  1  0
  3 21  1  0
  3 39  1  0
  3  4  1  0
  4  5  1  0
  4 46  1  0
  4 47  1  0
  5  6  1  0
  5 48  1  0
  5 49  1  0
  6 40  1  0
  6  7  1  6
  6 16  1  0
  7  8  1  0
  7 50  1  0
  8 15  1  0
  8  9  2  0
  9 10  1  0
  9 51  1  0
 10 11  2  0
 10 52  1  0
 11 12  1  0
 11 53  1  0
 12 13  1  0
 12 15  2  0
 13 14  1  0
 14 54  1  0
 14 55  1  0
 14 56  1  0
 15 57  1  0
 16 17  1  0
 16 58  1  0
 16 59  1  0
 17 18  1  0
 17 60  1  0
 17 61  1  0
 18 39  1  0
 18 19  1  0
 18 62  1  1
 19 20  1  1
 19 21  1  0
 19 28  1  0
 21 22  1  0
 21 63  1  1
 22 27  1  0
 22 23  2  0
 23 24  1  0
 23 64  1  0
 24 25  2  0
 24 65  1  0
 25 26  1  0
 25 66  1  0
 26 27  2  0
 26 67  1  0
 27 68  1  0
 28 38  1  0
 28 29  1  0
 28 69  1  1
 29 30  1  0
 29 70  1  0
 29 71  1  0
 30 31  1  0
 31 32  2  0
 31 33  1  0
 33 38  1  0
 33 34  1  0
 33 72  1  1
 34 35  1  0
 34 36  1  0
 34 80  1  1
 35 73  1  0
 35 74  1  0
 35 75  1  0
 36 37  1  0
 36 76  1  0
 36 77  1  0
 38 37  1  1
 37 78  1  0
 37 79  1  0
 38 39  1  0
 39 40  1  6
M  CHG  1  34   1
M  END
>  <i_m_ct_stereo_status>  (247) 
1

>  <s_m_source_file>  (247) 
/var/tmp/pbs.5076255.sched01/tmprva83imr/861x3d95ot.sdf

>  <i_m_source_file_index>  (247) 
13

>  <i_lp_mmshare_version>  (247) 
48012

>  <i_f3d_flags>  (247) 
0

>  <s_epik_input>  (247) 
W0NIM11PYyhbY0hdMSlbY0hdW2NIXVtjSF1jMVtOSF1bQ0BdKE8yKShbQ0gyXVtDSDJdW0NAXTMoW0NAQF0yNFtDQEBdNTY3KVtDSDJdW0NIM10pW0NIMl1bQ0gyXVtDQEhdNFtDQEBdKENsKShbQ0BIXTNjOFtjSF1bY0hdW2NIXVtjSF1bY0hdOClbQ0BIXTVbQ0gyXU9DKD1PKVtDQEhdNk4oW0NIM10pW0NIMl1bQ0gyXTc=

>  <s_epik_cmdline>  (247) 
J2VwaWtfcHl0aG9uJywgJy1waHQnLCAnMi4wJywgJy1waCcsICc3LjAnLCAnLXRuJywgJzgnLCAnLW1hJywgJzIwMCcsICctaW1hZScsICc8aW5maWxlLm1hZT4nLCAnLW9tYWUnLCAnPG91dGZpbGUubWFlPic=

>  <r_epik_Ionization_Penalty>  (247) 
0.0807238

>  <r_epik_Ionization_Penalty_Charging>  (247) 
0.0806924

>  <r_epik_Ionization_Penalty_Neutral>  (247) 
3.14515e-05

>  <r_epik_State_Penalty>  (247) 
0.0714834

>  <r_epik_Charging_Adjusted_Penalty>  (247) 
0.152176

>  <i_epik_Tot_Q>  (247) 
1

>  <i_epik_Tot_abs_Q>  (247) 
1

>  <s_epik_Chemistry_Notes>  (247) 
This compound has an ester and may undergo hydrolysis at high or low pH.

>  <s_lp_Force_Field>  (247) 
OPLS3e

>  <r_lp_Energy>  (247) 
150.247

>  <b_lp_Chiralities_Consistent>  (247) 
1

>  <s_lp_Variant>  (247) 
72:0-1

>  <s_i_glide_gridfile>  (247) 
pfpi4k_grid

>  <i_i_glide_lignum>  (247) 
13

>  <i_i_glide_rotatable_bonds>  (247) 
5

>  <r_i_docking_score>  (247) 
-2.38204

>  <r_i_glide_ligand_efficiency>  (247) 
-0.0595511

>  <r_i_glide_ligand_efficiency_sa>  (247) 
-0.203662

>  <r_i_glide_ligand_efficiency_ln>  (247) 
-0.508019

>  <r_i_glide_gscore>  (247) 
-2.38204

>  <r_i_glide_lipo>  (247) 
-0.368411

>  <r_i_glide_hbond>  (247) 
-0.2

>  <r_i_glide_metal>  (247) 
-0

>  <r_i_glide_rewards>  (247) 
0

>  <r_i_glide_evdw>  (247) 
-22.6323

>  <r_i_glide_ecoul>  (247) 
-4.17815

>  <r_i_glide_erotb>  (247) 
0.112299

>  <r_i_glide_esite>  (247) 
-0.167594

>  <r_i_glide_emodel>  (247) 
-30.0335

>  <r_i_glide_energy>  (247) 
-26.8104

>  <r_i_glide_einternal>  (247) 
5.06724

>  <r_i_glide_intrahb_reward>  (247) 
-0

>  <i_i_glide_confnum>  (247) 
3

>  <i_i_glide_posenum>  (247) 
15

>  <r_i_glide_eff_state_penalty>  (247) 
0

>  <ligand_id>  (247) 
72

>  <original_smiles>  (247) 
CCC12CCC3(Nc4cccc(OC)c4)CCC4C(Cl)(C1c1ccccc1)C1COC(=O)C5N(C)CCC51C42O3

>  <smiles>  (247) 
[H]c1c([H])c([H])c(C2([H])C3(Cl)C4([H])C([H])([H])C([H])([H])C5(N([H])c6c([H])c([H])c([H])c(OC([H])([H])[H])c6[H])OC4(C2(C([H])([H])C([H])([H])[H])C([H])([H])C5([H])[H])C24C([H])([H])C([H])([H])[N+]([H])(C([H])([H])[H])C2([H])C(=O)OC([H])([H])C34[H])c([H])c1[H]

$$$$
72:0:1
     RDKit          3D

 80 87  0  0  1  0  0  0  0  0999 V2000
    3.1718   -9.3774    0.9453 C   0  0  0  0  0  0  0  0  0  0  0  0
    4.0818   -8.2638    1.5344 C   0  0  0  0  0  0  0  0  0  0  0  0
    3.5901   -7.5708    2.8527 C   0  0  1  0  0  0  0  0  0  0  0  0
    2.7103   -6.4137    2.3161 C   0  0  0  0  0  0  0  0  0  0  0  0
    3.5196   -5.1648    1.9431 C   0  0  0  0  0  0  0  0  0  0  0  0
    4.4940   -4.7163    3.0867 C   0  0  1  0  0  0  0  0  0  0  0  0
    5.2584   -3.5799    2.5942 N   0  0  0  0  0  0  0  0  0  0  0  0
    4.7529   -2.3579    2.1359 C   0  0  0  0  0  0  0  0  0  0  0  0
    5.6432   -1.4851    1.4653 C   0  0  0  0  0  0  0  0  0  0  0  0
    5.2085   -0.2412    0.9863 C   0  0  0  0  0  0  0  0  0  0  0  0
    3.8750    0.1785    1.2179 C   0  0  0  0  0  0  0  0  0  0  0  0
    2.9654   -0.6759    1.8874 C   0  0  0  0  0  0  0  0  0  0  0  0
    1.6709   -0.3741    2.2017 O   0  0  0  0  0  0  0  0  0  0  0  0
    1.1297    0.8658    1.7731 C   0  0  0  0  0  0  0  0  0  0  0  0
    3.3994   -1.9555    2.3086 C   0  0  0  0  0  0  0  0  0  0  0  0
    3.9042   -4.2881    4.4820 C   0  0  0  0  0  0  0  0  0  0  0  0
    3.2085   -5.4559    5.1829 C   0  0  0  0  0  0  0  0  0  0  0  0
    4.0646   -6.7330    5.1217 C   0  0  1  0  0  0  0  0  0  0  0  0
    3.5249   -8.1723    5.2279 C   0  0  1  0  0  0  0  0  0  0  0  0
    2.5890   -8.4845    6.7142 Cl  0  0  0  0  0  0  0  0  0  0  0  0
    2.8070   -8.5069    3.8670 C   0  0  1  0  0  0  0  0  0  0  0  0
    1.2412   -8.4562    3.8403 C   0  0  0  0  0  0  0  0  0  0  0  0
    0.4628   -7.5730    4.6154 C   0  0  0  0  0  0  0  0  0  0  0  0
   -0.9434   -7.5096    4.4802 C   0  0  0  0  0  0  0  0  0  0  0  0
   -1.6106   -8.3920    3.6140 C   0  0  0  0  0  0  0  0  0  0  0  0
   -0.8531   -9.3199    2.8690 C   0  0  0  0  0  0  0  0  0  0  0  0
    0.5431   -9.3631    2.9756 C   0  0  0  0  0  0  0  0  0  0  0  0
    4.9163   -8.8839    5.3338 C   0  0  1  0  0  0  0  0  0  0  0  0
    4.9707  -10.4222    5.0780 C   0  0  0  0  0  0  0  0  0  0  0  0
    5.2623  -10.8300    3.7206 O   0  0  0  0  0  0  0  0  0  0  0  0
    6.2843  -10.2770    3.0294 C   0  0  0  0  0  0  0  0  0  0  0  0
    6.7626  -10.7797    1.9968 O   0  0  0  0  0  0  0  0  0  0  0  0
    6.8127   -8.9952    3.6683 C   0  0  1  0  0  0  0  0  0  0  0  0
    7.8607   -8.2107    3.0108 N   0  0  1  0  0  0  0  0  0  0  0  0
    7.6239   -7.7222    1.6069 C   0  0  0  0  0  0  0  0  0  0  0  0
    8.0827   -7.1050    3.9678 C   0  0  0  0  0  0  0  0  0  0  0  0
    7.0051   -7.2605    5.0640 C   0  0  0  0  0  0  0  0  0  0  0  0
    5.8228   -8.0455    4.3965 C   0  0  2  0  0  0  0  0  0  0  0  0
    4.7687   -7.0144    3.7799 C   0  0  1  0  0  0  0  0  0  0  0  0
    5.3695   -5.8070    3.2681 O   0  0  0  0  0  0  0  0  0  0  0  0
    3.7322   -9.7534    0.0986 H   0  0  0  0  0  0  0  0  0  0  0  0
    2.1703   -9.0970    0.5729 H   0  0  0  0  0  0  0  0  0  0  0  0
    3.0420  -10.2301    1.6158 H   0  0  0  0  0  0  0  0  0  0  0  0
    5.0460   -8.6938    1.6967 H   0  0  0  0  0  0  0  0  0  0  0  0
    4.3161   -7.5200    0.7500 H   0  0  0  0  0  0  0  0  0  0  0  0
    2.2180   -6.7658    1.4104 H   0  0  0  0  0  0  0  0  0  0  0  0
    1.8766   -6.1202    2.9414 H   0  0  0  0  0  0  0  0  0  0  0  0
    4.1115   -5.3554    1.0419 H   0  0  0  0  0  0  0  0  0  0  0  0
    2.7874   -4.4126    1.6622 H   0  0  0  0  0  0  0  0  0  0  0  0
    6.2208   -3.5936    2.9079 H   0  0  0  0  0  0  0  0  0  0  0  0
    6.6782   -1.7827    1.2853 H   0  0  0  0  0  0  0  0  0  0  0  0
    5.8849    0.4113    0.4655 H   0  0  0  0  0  0  0  0  0  0  0  0
    3.5637    1.1547    0.8786 H   0  0  0  0  0  0  0  0  0  0  0  0
    0.0852    0.9424    2.0819 H   0  0  0  0  0  0  0  0  0  0  0  0
    1.1597    0.8908    0.6881 H   0  0  0  0  0  0  0  0  0  0  0  0
    1.6787    1.7014    2.2088 H   0  0  0  0  0  0  0  0  0  0  0  0
    2.6523   -2.5729    2.7811 H   0  0  0  0  0  0  0  0  0  0  0  0
    4.7266   -3.9132    5.1089 H   0  0  0  0  0  0  0  0  0  0  0  0
    3.1326   -3.5196    4.4109 H   0  0  0  0  0  0  0  0  0  0  0  0
    3.0791   -5.1976    6.2327 H   0  0  0  0  0  0  0  0  0  0  0  0
    2.2040   -5.5186    4.8111 H   0  0  0  0  0  0  0  0  0  0  0  0
    4.7542   -6.5686    5.9528 H   0  0  0  0  0  0  0  0  0  0  0  0
    3.0527   -9.5461    3.6577 H   0  0  0  0  0  0  0  0  0  0  0  0
    0.8849   -6.9152    5.3734 H   0  0  0  0  0  0  0  0  0  0  0  0
   -1.5077   -6.8241    5.0877 H   0  0  0  0  0  0  0  0  0  0  0  0
   -2.6891   -8.4359    3.5762 H   0  0  0  0  0  0  0  0  0  0  0  0
   -1.3410  -10.0523    2.2421 H   0  0  0  0  0  0  0  0  0  0  0  0
    1.0574  -10.1266    2.4198 H   0  0  0  0  0  0  0  0  0  0  0  0
    5.2615   -8.7246    6.3607 H   0  0  0  0  0  0  0  0  0  0  0  0
    5.7306  -10.8402    5.7462 H   0  0  0  0  0  0  0  0  0  0  0  0
    4.0263  -10.8533    5.3969 H   0  0  0  0  0  0  0  0  0  0  0  0
    7.3869   -9.4378    4.4871 H   0  0  0  0  0  0  0  0  0  0  0  0
    6.8161   -6.9901    1.5718 H   0  0  0  0  0  0  0  0  0  0  0  0
    7.4221   -8.5443    0.9205 H   0  0  0  0  0  0  0  0  0  0  0  0
    8.5477   -7.2388    1.2929 H   0  0  0  0  0  0  0  0  0  0  0  0
    9.0860   -7.1612    4.3871 H   0  0  0  0  0  0  0  0  0  0  0  0
    7.9929   -6.1349    3.4873 H   0  0  0  0  0  0  0  0  0  0  0  0
    7.4140   -7.8525    5.8822 H   0  0  0  0  0  0  0  0  0  0  0  0
    6.7613   -6.2784    5.4654 H   0  0  0  0  0  0  0  0  0  0  0  0
    8.7206   -8.7808    2.9670 H   0  0  0  0  0  0  0  0  0  0  0  0
  1  2  1  0
  1 41  1  0
  1 42  1  0
  1 43  1  0
  3  2  1  6
  2 44  1  0
  2 45  1  0
  3 21  1  0
  3 39  1  0
  3  4  1  0
  4  5  1  0
  4 46  1  0
  4 47  1  0
  5  6  1  0
  5 48  1  0
  5 49  1  0
  6 40  1  0
  6  7  1  6
  6 16  1  0
  7  8  1  0
  7 50  1  0
  8 15  1  0
  8  9  2  0
  9 10  1  0
  9 51  1  0
 10 11  2  0
 10 52  1  0
 11 12  1  0
 11 53  1  0
 12 13  1  0
 12 15  2  0
 13 14  1  0
 14 54  1  0
 14 55  1  0
 14 56  1  0
 15 57  1  0
 16 17  1  0
 16 58  1  0
 16 59  1  0
 17 18  1  0
 17 60  1  0
 17 61  1  0
 18 39  1  0
 18 19  1  0
 18 62  1  1
 19 20  1  1
 19 21  1  0
 19 28  1  0
 21 22  1  0
 21 63  1  6
 22 27  1  0
 22 23  2  0
 23 24  1  0
 23 64  1  0
 24 25  2  0
 24 65  1  0
 25 26  1  0
 25 66  1  0
 26 27  2  0
 26 67  1  0
 27 68  1  0
 28 38  1  0
 28 29  1  0
 28 69  1  1
 29 30  1  0
 29 70  1  0
 29 71  1  0
 30 31  1  0
 31 32  2  0
 31 33  1  0
 33 38  1  0
 33 34  1  0
 33 72  1  1
 34 35  1  0
 34 36  1  0
 34 80  1  6
 35 73  1  0
 35 74  1  0
 35 75  1  0
 36 37  1  0
 36 76  1  0
 36 77  1  0
 38 37  1  1
 37 78  1  0
 37 79  1  0
 38 39  1  0
 39 40  1  6
M  CHG  1  34   1
M  END
>  <i_m_ct_stereo_status>  (248) 
1

>  <s_m_source_file>  (248) 
/var/tmp/pbs.5076255.sched01/tmprva83imr/861x3d95ot.sdf

>  <i_m_source_file_index>  (248) 
13

>  <i_lp_mmshare_version>  (248) 
48012

>  <i_f3d_flags>  (248) 
0

>  <s_epik_input>  (248) 
W0NIM11PYyhbY0hdMSlbY0hdW2NIXVtjSF1jMVtOSF1bQ0BdKE8yKShbQ0gyXVtDSDJdW0NAXTMoW0NAQF0yNFtDQEBdNTY3KVtDSDJdW0NIM10pW0NIMl1bQ0gyXVtDQEhdNFtDQEBdKENsKShbQ0BIXTNjOFtjSF1bY0hdW2NIXVtjSF1bY0hdOClbQ0BIXTVbQ0gyXU9DKD1PKVtDQEhdNk4oW0NIM10pW0NIMl1bQ0gyXTc=

>  <s_epik_cmdline>  (248) 
J2VwaWtfcHl0aG9uJywgJy1waHQnLCAnMi4wJywgJy1waCcsICc3LjAnLCAnLXRuJywgJzgnLCAnLW1hJywgJzIwMCcsICctaW1hZScsICc8aW5maWxlLm1hZT4nLCAnLW9tYWUnLCAnPG91dGZpbGUubWFlPic=

>  <r_epik_Ionization_Penalty>  (248) 
0.0807238

>  <r_epik_Ionization_Penalty_Charging>  (248) 
0.0806924

>  <r_epik_Ionization_Penalty_Neutral>  (248) 
3.14515e-05

>  <r_epik_State_Penalty>  (248) 
0.0714834

>  <r_epik_Charging_Adjusted_Penalty>  (248) 
0.152176

>  <i_epik_Tot_Q>  (248) 
1

>  <i_epik_Tot_abs_Q>  (248) 
1

>  <s_epik_Chemistry_Notes>  (248) 
This compound has an ester and may undergo hydrolysis at high or low pH.

>  <s_lp_Force_Field>  (248) 
OPLS3e

>  <r_lp_Energy>  (248) 
150.247

>  <b_lp_Chiralities_Consistent>  (248) 
1

>  <s_lp_Variant>  (248) 
72:0-1

>  <s_i_glide_gridfile>  (248) 
pfpi4k_grid

>  <i_i_glide_lignum>  (248) 
13

>  <i_i_glide_rotatable_bonds>  (248) 
5

>  <r_i_docking_score>  (248) 
-2.05911

>  <r_i_glide_ligand_efficiency>  (248) 
-0.0514779

>  <r_i_glide_ligand_efficiency_sa>  (248) 
-0.176052

>  <r_i_glide_ligand_efficiency_ln>  (248) 
-0.439149

>  <r_i_glide_gscore>  (248) 
-2.05911

>  <r_i_glide_lipo>  (248) 
-0.389643

>  <r_i_glide_hbond>  (248) 
0

>  <r_i_glide_metal>  (248) 
-0

>  <r_i_glide_rewards>  (248) 
-0.00554508

>  <r_i_glide_evdw>  (248) 
-30.7762

>  <r_i_glide_ecoul>  (248) 
-1.40303

>  <r_i_glide_erotb>  (248) 
0.112299

>  <r_i_glide_esite>  (248) 
-0.0269631

>  <r_i_glide_emodel>  (248) 
-32.9246

>  <r_i_glide_energy>  (248) 
-32.1792

>  <r_i_glide_einternal>  (248) 
7.59192

>  <r_i_glide_intrahb_reward>  (248) 
-0

>  <i_i_glide_confnum>  (248) 
3

>  <i_i_glide_posenum>  (248) 
31

>  <r_i_glide_eff_state_penalty>  (248) 
0

>  <ligand_id>  (248) 
72

>  <original_smiles>  (248) 
CCC12CCC3(Nc4cccc(OC)c4)CCC4C(Cl)(C1c1ccccc1)C1COC(=O)C5N(C)CCC51C42O3

>  <smiles>  (248) 
[H]c1c([H])c([H])c(C2([H])C3(Cl)C4([H])C([H])([H])C([H])([H])C5(N([H])c6c([H])c([H])c([H])c(OC([H])([H])[H])c6[H])OC4(C2(C([H])([H])C([H])([H])[H])C([H])([H])C5([H])[H])C24C([H])([H])C([H])([H])[N+]([H])(C([H])([H])[H])C2([H])C(=O)OC([H])([H])C34[H])c([H])c1[H]

$$$$
72:0:2
     RDKit          3D

 80 87  0  0  1  0  0  0  0  0999 V2000
    2.7696  -10.9120    2.7133 C   0  0  0  0  0  0  0  0  0  0  0  0
    4.0359  -10.1795    3.2220 C   0  0  0  0  0  0  0  0  0  0  0  0
    3.8893   -8.7978    3.9508 C   0  0  1  0  0  0  0  0  0  0  0  0
    3.5699   -7.8122    2.7941 C   0  0  0  0  0  0  0  0  0  0  0  0
    4.8087   -7.2997    2.0569 C   0  0  0  0  0  0  0  0  0  0  0  0
    5.8705   -6.7131    3.0493 C   0  0  1  0  0  0  0  0  0  0  0  0
    7.0208   -6.2892    2.2607 N   0  0  0  0  0  0  0  0  0  0  0  0
    7.0448   -5.2728    1.2979 C   0  0  0  0  0  0  0  0  0  0  0  0
    8.3263   -4.8440    0.8360 C   0  0  0  0  0  0  0  0  0  0  0  0
    8.4320   -3.8294   -0.1323 C   0  0  0  0  0  0  0  0  0  0  0  0
    7.2834   -3.2396   -0.6972 C   0  0  0  0  0  0  0  0  0  0  0  0
    5.9953   -3.6612   -0.2390 C   0  0  0  0  0  0  0  0  0  0  0  0
    4.8054   -3.1776   -0.7093 O   0  0  0  0  0  0  0  0  0  0  0  0
    4.7970   -2.1539   -1.6833 C   0  0  0  0  0  0  0  0  0  0  0  0
    5.8959   -4.6307    0.7632 C   0  0  0  0  0  0  0  0  0  0  0  0
    5.4638   -5.4832    3.9344 C   0  0  0  0  0  0  0  0  0  0  0  0
    4.3861   -5.8134    4.9713 C   0  0  0  0  0  0  0  0  0  0  0  0
    4.6642   -7.1768    5.6546 C   0  0  1  0  0  0  0  0  0  0  0  0
    3.6006   -8.1009    6.2812 C   0  0  1  0  0  0  0  0  0  0  0  0
    2.6121   -7.3160    7.5412 Cl  0  0  0  0  0  0  0  0  0  0  0  0
    2.8006   -8.7842    5.1035 C   0  0  1  0  0  0  0  0  0  0  0  0
    1.3835   -8.2198    4.7538 C   0  0  0  0  0  0  0  0  0  0  0  0
    1.0566   -6.8466    4.8578 C   0  0  0  0  0  0  0  0  0  0  0  0
   -0.2151   -6.3687    4.4823 C   0  0  0  0  0  0  0  0  0  0  0  0
   -1.2146   -7.2596    4.0359 C   0  0  0  0  0  0  0  0  0  0  0  0
   -0.9096   -8.6257    3.9538 C   0  0  0  0  0  0  0  0  0  0  0  0
    0.3613   -9.1108    4.3183 C   0  0  0  0  0  0  0  0  0  0  0  0
    4.5906   -9.1192    6.9494 C   0  0  1  0  0  0  0  0  0  0  0  0
    4.0277  -10.5078    7.3970 C   0  0  0  0  0  0  0  0  0  0  0  0
    4.1401  -11.5861    6.4486 O   0  0  0  0  0  0  0  0  0  0  0  0
    5.2941  -11.8383    5.7657 C   0  0  0  0  0  0  0  0  0  0  0  0
    5.5004  -12.8736    5.1444 O   0  0  0  0  0  0  0  0  0  0  0  0
    6.2854  -10.6691    5.8810 C   0  0  1  0  0  0  0  0  0  0  0  0
    7.5793  -10.7331    5.1452 N   0  0  1  0  0  0  0  0  0  0  0  0
    7.5516  -10.9084    3.6695 C   0  0  0  0  0  0  0  0  0  0  0  0
    8.2048   -9.4544    5.5664 C   0  0  0  0  0  0  0  0  0  0  0  0
    7.1518   -8.6844    6.4034 C   0  0  0  0  0  0  0  0  0  0  0  0
    5.7648   -9.2153    5.9378 C   0  0  2  0  0  0  0  0  0  0  0  0
    5.2011   -8.3044    4.7456 C   0  0  1  0  0  0  0  0  0  0  0  0
    6.2413   -7.7728    3.9089 O   0  0  0  0  0  0  0  0  0  0  0  0
    3.0628  -11.9278    2.4294 H   0  0  0  0  0  0  0  0  0  0  0  0
    2.2931  -10.4273    1.8501 H   0  0  0  0  0  0  0  0  0  0  0  0
    2.0493  -11.1010    3.5115 H   0  0  0  0  0  0  0  0  0  0  0  0
    4.3537  -10.8736    3.9256 H   0  0  0  0  0  0  0  0  0  0  0  0
    4.8066  -10.1457    2.4364 H   0  0  0  0  0  0  0  0  0  0  0  0
    2.9132   -8.2991    2.0704 H   0  0  0  0  0  0  0  0  0  0  0  0
    2.9705   -6.9610    3.0975 H   0  0  0  0  0  0  0  0  0  0  0  0
    5.2798   -8.1115    1.4809 H   0  0  0  0  0  0  0  0  0  0  0  0
    4.3863   -6.5825    1.3749 H   0  0  0  0  0  0  0  0  0  0  0  0
    7.8937   -6.4744    2.7306 H   0  0  0  0  0  0  0  0  0  0  0  0
    9.2170   -5.2927    1.2592 H   0  0  0  0  0  0  0  0  0  0  0  0
    9.4112   -3.4753   -0.4604 H   0  0  0  0  0  0  0  0  0  0  0  0
    7.3823   -2.4688   -1.4482 H   0  0  0  0  0  0  0  0  0  0  0  0
    3.7620   -1.8917   -1.9241 H   0  0  0  0  0  0  0  0  0  0  0  0
    5.2880   -2.4963   -2.5961 H   0  0  0  0  0  0  0  0  0  0  0  0
    5.2935   -1.2651   -1.2906 H   0  0  0  0  0  0  0  0  0  0  0  0
    4.8870   -4.8363    1.1012 H   0  0  0  0  0  0  0  0  0  0  0  0
    6.3503   -5.0818    4.4370 H   0  0  0  0  0  0  0  0  0  0  0  0
    5.0737   -4.6776    3.3136 H   0  0  0  0  0  0  0  0  0  0  0  0
    4.3784   -5.0435    5.7451 H   0  0  0  0  0  0  0  0  0  0  0  0
    3.4403   -5.6618    4.4863 H   0  0  0  0  0  0  0  0  0  0  0  0
    5.3681   -6.8820    6.4380 H   0  0  0  0  0  0  0  0  0  0  0  0
    2.5978   -9.8154    5.4026 H   0  0  0  0  0  0  0  0  0  0  0  0
    1.7377   -6.1152    5.2673 H   0  0  0  0  0  0  0  0  0  0  0  0
   -0.4265   -5.3202    4.5795 H   0  0  0  0  0  0  0  0  0  0  0  0
   -2.2170   -6.9188    3.8130 H   0  0  0  0  0  0  0  0  0  0  0  0
   -1.6553   -9.3440    3.6579 H   0  0  0  0  0  0  0  0  0  0  0  0
    0.4995  -10.1808    4.3033 H   0  0  0  0  0  0  0  0  0  0  0  0
    4.9710   -8.6376    7.8530 H   0  0  0  0  0  0  0  0  0  0  0  0
    4.5530  -10.8110    8.3054 H   0  0  0  0  0  0  0  0  0  0  0  0
    2.9826  -10.3818    7.6850 H   0  0  0  0  0  0  0  0  0  0  0  0
    6.6556  -10.8704    6.8962 H   0  0  0  0  0  0  0  0  0  0  0  0
    7.1135  -10.0482    3.1499 H   0  0  0  0  0  0  0  0  0  0  0  0
    7.0256  -11.8192    3.3595 H   0  0  0  0  0  0  0  0  0  0  0  0
    8.5833  -11.0053    3.3118 H   0  0  0  0  0  0  0  0  0  0  0  0
    9.1064   -9.6546    6.1402 H   0  0  0  0  0  0  0  0  0  0  0  0
    8.5174   -8.8665    4.7056 H   0  0  0  0  0  0  0  0  0  0  0  0
    7.3106   -8.9294    7.4539 H   0  0  0  0  0  0  0  0  0  0  0  0
    7.3198   -7.6173    6.3082 H   0  0  0  0  0  0  0  0  0  0  0  0
    8.1030  -11.5086    5.5276 H   0  0  0  0  0  0  0  0  0  0  0  0
  1  2  1  0
  1 41  1  0
  1 42  1  0
  1 43  1  0
  3  2  1  6
  2 44  1  0
  2 45  1  0
  3 21  1  0
  3 39  1  0
  3  4  1  0
  4  5  1  0
  4 46  1  0
  4 47  1  0
  5  6  1  0
  5 48  1  0
  5 49  1  0
  6 40  1  0
  6  7  1  6
  6 16  1  0
  7  8  1  0
  7 50  1  0
  8 15  1  0
  8  9  2  0
  9 10  1  0
  9 51  1  0
 10 11  2  0
 10 52  1  0
 11 12  1  0
 11 53  1  0
 12 13  1  0
 12 15  2  0
 13 14  1  0
 14 54  1  0
 14 55  1  0
 14 56  1  0
 15 57  1  0
 16 17  1  0
 16 58  1  0
 16 59  1  0
 17 18  1  0
 17 60  1  0
 17 61  1  0
 18 39  1  0
 18 19  1  0
 18 62  1  1
 19 20  1  1
 19 21  1  0
 19 28  1  0
 21 22  1  0
 21 63  1  1
 22 27  1  0
 22 23  2  0
 23 24  1  0
 23 64  1  0
 24 25  2  0
 24 65  1  0
 25 26  1  0
 25 66  1  0
 26 27  2  0
 26 67  1  0
 27 68  1  0
 28 38  1  0
 28 29  1  0
 28 69  1  1
 29 30  1  0
 29 70  1  0
 29 71  1  0
 30 31  1  0
 31 32  2  0
 31 33  1  0
 33 38  1  0
 33 34  1  0
 33 72  1  1
 34 35  1  0
 34 36  1  0
 34 80  1  1
 35 73  1  0
 35 74  1  0
 35 75  1  0
 36 37  1  0
 36 76  1  0
 36 77  1  0
 38 37  1  1
 37 78  1  0
 37 79  1  0
 38 39  1  0
 39 40  1  6
M  CHG  1  34   1
M  END
>  <i_m_ct_stereo_status>  (249) 
1

>  <s_m_source_file>  (249) 
/var/tmp/pbs.5076255.sched01/tmprva83imr/861x3d95ot.sdf

>  <i_m_source_file_index>  (249) 
13

>  <i_lp_mmshare_version>  (249) 
48012

>  <i_f3d_flags>  (249) 
0

>  <s_epik_input>  (249) 
W0NIM11PYyhbY0hdMSlbY0hdW2NIXVtjSF1jMVtOSF1bQ0BdKE8yKShbQ0gyXVtDSDJdW0NAXTMoW0NAQF0yNFtDQEBdNTY3KVtDSDJdW0NIM10pW0NIMl1bQ0gyXVtDQEhdNFtDQEBdKENsKShbQ0BIXTNjOFtjSF1bY0hdW2NIXVtjSF1bY0hdOClbQ0BIXTVbQ0gyXU9DKD1PKVtDQEhdNk4oW0NIM10pW0NIMl1bQ0gyXTc=

>  <s_epik_cmdline>  (249) 
J2VwaWtfcHl0aG9uJywgJy1waHQnLCAnMi4wJywgJy1waCcsICc3LjAnLCAnLXRuJywgJzgnLCAnLW1hJywgJzIwMCcsICctaW1hZScsICc8aW5maWxlLm1hZT4nLCAnLW9tYWUnLCAnPG91dGZpbGUubWFlPic=

>  <r_epik_Ionization_Penalty>  (249) 
0.0807238

>  <r_epik_Ionization_Penalty_Charging>  (249) 
0.0806924

>  <r_epik_Ionization_Penalty_Neutral>  (249) 
3.14515e-05

>  <r_epik_State_Penalty>  (249) 
0.0714834

>  <r_epik_Charging_Adjusted_Penalty>  (249) 
0.152176

>  <i_epik_Tot_Q>  (249) 
1

>  <i_epik_Tot_abs_Q>  (249) 
1

>  <s_epik_Chemistry_Notes>  (249) 
This compound has an ester and may undergo hydrolysis at high or low pH.

>  <s_lp_Force_Field>  (249) 
OPLS3e

>  <r_lp_Energy>  (249) 
150.247

>  <b_lp_Chiralities_Consistent>  (249) 
1

>  <s_lp_Variant>  (249) 
72:0-1

>  <s_i_glide_gridfile>  (249) 
pfpi4k_grid

>  <i_i_glide_lignum>  (249) 
13

>  <i_i_glide_rotatable_bonds>  (249) 
5

>  <r_i_docking_score>  (249) 
-1.95641

>  <r_i_glide_ligand_efficiency>  (249) 
-0.0489104

>  <r_i_glide_ligand_efficiency_sa>  (249) 
-0.167271

>  <r_i_glide_ligand_efficiency_ln>  (249) 
-0.417246

>  <r_i_glide_gscore>  (249) 
-1.95641

>  <r_i_glide_lipo>  (249) 
-0.577522

>  <r_i_glide_hbond>  (249) 
0

>  <r_i_glide_metal>  (249) 
-0

>  <r_i_glide_rewards>  (249) 
-0.00671925

>  <r_i_glide_evdw>  (249) 
-28.2293

>  <r_i_glide_ecoul>  (249) 
-0.369513

>  <r_i_glide_erotb>  (249) 
0.112299

>  <r_i_glide_esite>  (249) 
-0.0175776

>  <r_i_glide_emodel>  (249) 
-29.1125

>  <r_i_glide_energy>  (249) 
-28.5989

>  <r_i_glide_einternal>  (249) 
5.19516

>  <r_i_glide_intrahb_reward>  (249) 
-0

>  <i_i_glide_confnum>  (249) 
3

>  <i_i_glide_posenum>  (249) 
16

>  <r_i_glide_eff_state_penalty>  (249) 
0

>  <ligand_id>  (249) 
72

>  <original_smiles>  (249) 
CCC12CCC3(Nc4cccc(OC)c4)CCC4C(Cl)(C1c1ccccc1)C1COC(=O)C5N(C)CCC51C42O3

>  <smiles>  (249) 
[H]c1c([H])c([H])c(C2([H])C3(Cl)C4([H])C([H])([H])C([H])([H])C5(N([H])c6c([H])c([H])c([H])c(OC([H])([H])[H])c6[H])OC4(C2(C([H])([H])C([H])([H])[H])C([H])([H])C5([H])[H])C24C([H])([H])C([H])([H])[N+]([H])(C([H])([H])[H])C2([H])C(=O)OC([H])([H])C34[H])c([H])c1[H]

$$$$
72:1:0
     RDKit          3D

 79 86  0  0  1  0  0  0  0  0999 V2000
   -1.3342    0.0157    6.0327 C   0  0  0  0  0  0  0  0  0  0  0  0
   -0.4270   -1.0600    6.6887 C   0  0  0  0  0  0  0  0  0  0  0  0
    0.9872   -1.3731    6.0948 C   0  0  1  0  0  0  0  0  0  0  0  0
    0.6661   -1.9912    4.7152 C   0  0  0  0  0  0  0  0  0  0  0  0
    0.2959   -3.4640    4.7961 C   0  0  0  0  0  0  0  0  0  0  0  0
    1.3708   -4.3083    5.5758 C   0  0  1  0  0  0  0  0  0  0  0  0
    0.9016   -5.6796    5.6483 N   0  0  0  0  0  0  0  0  0  0  0  0
    0.6537   -6.5413    4.5672 C   0  0  0  0  0  0  0  0  0  0  0  0
    0.1848   -7.8534    4.8519 C   0  0  0  0  0  0  0  0  0  0  0  0
   -0.1242   -8.7234    3.8046 C   0  0  0  0  0  0  0  0  0  0  0  0
    0.0054   -8.3191    2.4742 C   0  0  0  0  0  0  0  0  0  0  0  0
    0.5067   -7.0294    2.1543 C   0  0  0  0  0  0  0  0  0  0  0  0
    0.6521   -6.6399    0.8401 O   0  0  0  0  0  0  0  0  0  0  0  0
    1.8149   -5.8638    0.5169 C   0  0  0  0  0  0  0  0  0  0  0  0
    0.8264   -6.1653    3.2188 C   0  0  0  0  0  0  0  0  0  0  0  0
    2.8455   -4.3575    5.0311 C   0  0  0  0  0  0  0  0  0  0  0  0
    3.5362   -2.9990    5.0675 C   0  0  0  0  0  0  0  0  0  0  0  0
    3.2676   -2.2764    6.4075 C   0  0  1  0  0  0  0  0  0  0  0  0
    3.3052   -0.7503    6.6264 C   0  0  1  0  0  0  0  0  0  0  0  0
    4.8295    0.0136    6.0934 Cl  0  0  0  0  0  0  0  0  0  0  0  0
    1.9747   -0.1485    6.0232 C   0  0  1  0  0  0  0  0  0  0  0  0
    2.0881    0.6010    4.6721 C   0  0  0  0  0  0  0  0  0  0  0  0
    2.9277    0.1825    3.6070 C   0  0  0  0  0  0  0  0  0  0  0  0
    2.9200    0.8418    2.3675 C   0  0  0  0  0  0  0  0  0  0  0  0
    2.1215    1.9839    2.2036 C   0  0  0  0  0  0  0  0  0  0  0  0
    1.3234    2.4498    3.2428 C   0  0  0  0  0  0  0  0  0  0  0  0
    1.3028    1.7726    4.4697 C   0  0  0  0  0  0  0  0  0  0  0  0
    3.2510   -0.7933    8.1897 C   0  0  1  0  0  0  0  0  0  0  0  0
    2.9687    0.5298    8.9476 C   0  0  0  0  0  0  0  0  0  0  0  0
    1.5908    0.8267    9.1758 O   0  0  0  0  0  0  0  0  0  0  0  0
    0.7340   -0.0921    9.6673 C   0  0  0  0  0  0  0  0  0  0  0  0
   -0.4003    0.2014   10.0301 O   0  0  0  0  0  0  0  0  0  0  0  0
    1.3072   -1.5294    9.6613 C   0  0  1  0  0  0  0  0  0  0  0  0
    0.4706   -2.7140    9.9017 N   0  0  0  0  0  0  0  0  0  0  0  0
   -0.3190   -2.6994   11.1333 C   0  0  0  0  0  0  0  0  0  0  0  0
    1.4996   -3.7576    9.9296 C   0  0  0  0  0  0  0  0  0  0  0  0
    2.7556   -3.1645    9.2509 C   0  0  0  0  0  0  0  0  0  0  0  0
    2.2352   -1.9312    8.4820 C   0  0  2  0  0  0  0  0  0  0  0  0
    1.8419   -2.3872    6.9876 C   0  0  1  0  0  0  0  0  0  0  0  0
    1.3998   -3.7541    6.8769 O   0  0  0  0  0  0  0  0  0  0  0  0
   -2.1576    0.2343    6.7077 H   0  0  0  0  0  0  0  0  0  0  0  0
   -1.7572   -0.2485    5.0595 H   0  0  0  0  0  0  0  0  0  0  0  0
   -0.8265    0.9711    5.9639 H   0  0  0  0  0  0  0  0  0  0  0  0
   -0.2785   -0.6109    7.6198 H   0  0  0  0  0  0  0  0  0  0  0  0
   -0.9818   -1.9967    6.8662 H   0  0  0  0  0  0  0  0  0  0  0  0
   -0.1698   -1.4657    4.2595 H   0  0  0  0  0  0  0  0  0  0  0  0
    1.4368   -1.8651    3.9768 H   0  0  0  0  0  0  0  0  0  0  0  0
   -0.6595   -3.5883    5.3256 H   0  0  0  0  0  0  0  0  0  0  0  0
    0.1637   -3.7212    3.7523 H   0  0  0  0  0  0  0  0  0  0  0  0
    1.1941   -6.1405    6.4987 H   0  0  0  0  0  0  0  0  0  0  0  0
    0.0649   -8.1834    5.8734 H   0  0  0  0  0  0  0  0  0  0  0  0
   -0.4482   -9.7455    4.0128 H   0  0  0  0  0  0  0  0  0  0  0  0
   -0.2336   -9.0245    1.6932 H   0  0  0  0  0  0  0  0  0  0  0  0
    1.7951   -5.5424   -0.5267 H   0  0  0  0  0  0  0  0  0  0  0  0
    2.6933   -6.4869    0.6785 H   0  0  0  0  0  0  0  0  0  0  0  0
    1.9611   -4.9430    1.0786 H   0  0  0  0  0  0  0  0  0  0  0  0
    1.1984   -5.1830    2.9866 H   0  0  0  0  0  0  0  0  0  0  0  0
    3.4112   -5.1007    5.6008 H   0  0  0  0  0  0  0  0  0  0  0  0
    2.8955   -4.6754    3.9927 H   0  0  0  0  0  0  0  0  0  0  0  0
    4.6136   -3.1558    4.9793 H   0  0  0  0  0  0  0  0  0  0  0  0
    3.2902   -2.5039    4.1476 H   0  0  0  0  0  0  0  0  0  0  0  0
    4.0147   -2.7501    7.0494 H   0  0  0  0  0  0  0  0  0  0  0  0
    1.6170    0.6148    6.7160 H   0  0  0  0  0  0  0  0  0  0  0  0
    3.6278   -0.6356    3.6951 H   0  0  0  0  0  0  0  0  0  0  0  0
    3.5533    0.4909    1.5719 H   0  0  0  0  0  0  0  0  0  0  0  0
    2.1493    2.5593    1.2791 H   0  0  0  0  0  0  0  0  0  0  0  0
    0.7354    3.3512    3.0972 H   0  0  0  0  0  0  0  0  0  0  0  0
    0.6950    2.1787    5.2700 H   0  0  0  0  0  0  0  0  0  0  0  0
    4.2320   -1.1261    8.5301 H   0  0  0  0  0  0  0  0  0  0  0  0
    3.4534    0.4772    9.9253 H   0  0  0  0  0  0  0  0  0  0  0  0
    3.4329    1.3593    8.4097 H   0  0  0  0  0  0  0  0  0  0  0  0
    1.9547   -1.4678   10.5442 H   0  0  0  0  0  0  0  0  0  0  0  0
   -0.7842   -3.6729   11.2901 H   0  0  0  0  0  0  0  0  0  0  0  0
   -1.1230   -1.9665   11.0999 H   0  0  0  0  0  0  0  0  0  0  0  0
    0.3051   -2.4843   11.9996 H   0  0  0  0  0  0  0  0  0  0  0  0
    1.7539   -4.0803   10.9373 H   0  0  0  0  0  0  0  0  0  0  0  0
    1.1414   -4.6378    9.4026 H   0  0  0  0  0  0  0  0  0  0  0  0
    3.4568   -2.8447   10.0198 H   0  0  0  0  0  0  0  0  0  0  0  0
    3.2716   -3.9133    8.6563 H   0  0  0  0  0  0  0  0  0  0  0  0
  1  2  1  0
  1 41  1  0
  1 42  1  0
  1 43  1  0
  3  2  1  1
  2 44  1  0
  2 45  1  0
  3 21  1  0
  3 39  1  0
  3  4  1  0
  4  5  1  0
  4 46  1  0
  4 47  1  0
  5  6  1  0
  5 48  1  0
  5 49  1  0
  6 40  1  0
  6  7  1  1
  6 16  1  0
  7  8  1  0
  7 50  1  0
  8 15  1  0
  8  9  2  0
  9 10  1  0
  9 51  1  0
 10 11  2  0
 10 52  1  0
 11 12  1  0
 11 53  1  0
 12 13  1  0
 12 15  2  0
 13 14  1  0
 14 54  1  0
 14 55  1  0
 14 56  1  0
 15 57  1  0
 16 17  1  0
 16 58  1  0
 16 59  1  0
 17 18  1  0
 17 60  1  0
 17 61  1  0
 18 39  1  0
 18 19  1  0
 18 62  1  1
 19 20  1  1
 19 21  1  0
 19 28  1  0
 21 22  1  0
 21 63  1  1
 22 27  1  0
 22 23  2  0
 23 24  1  0
 23 64  1  0
 24 25  2  0
 24 65  1  0
 25 26  1  0
 25 66  1  0
 26 27  2  0
 26 67  1  0
 27 68  1  0
 28 38  1  0
 28 29  1  0
 28 69  1  1
 29 30  1  0
 29 70  1  0
 29 71  1  0
 30 31  1  0
 31 32  2  0
 31 33  1  0
 33 38  1  0
 33 34  1  0
 33 72  1  1
 34 35  1  0
 34 36  1  0
 35 73  1  0
 35 74  1  0
 35 75  1  0
 36 37  1  0
 36 76  1  0
 36 77  1  0
 38 37  1  1
 37 78  1  0
 37 79  1  0
 38 39  1  0
 39 40  1  1
M  END
>  <i_m_ct_stereo_status>  (250) 
1

>  <s_m_source_file>  (250) 
/var/tmp/pbs.5076255.sched01/tmprva83imr/861x3d95ot.sdf

>  <i_m_source_file_index>  (250) 
14

>  <i_lp_mmshare_version>  (250) 
48012

>  <i_f3d_flags>  (250) 
0

>  <s_epik_input>  (250) 
W0NIM11PYyhbY0hdMSlbY0hdW2NIXVtjSF1jMVtOSF1bQ0BdKE8yKShbQ0gyXVtDSDJdW0NAXTMoW0NAQF0yNFtDQEBdNTY3KVtDSDJdW0NIM10pW0NIMl1bQ0gyXVtDQEhdNFtDQEBdKENsKShbQ0BIXTNjOFtjSF1bY0hdW2NIXVtjSF1bY0hdOClbQ0BIXTVbQ0gyXU9DKD1PKVtDQEhdNk4oW0NIM10pW0NIMl1bQ0gyXTc=

>  <s_epik_cmdline>  (250) 
J2VwaWtfcHl0aG9uJywgJy1waHQnLCAnMi4wJywgJy1waCcsICc3LjAnLCAnLXRuJywgJzgnLCAnLW1hJywgJzIwMCcsICctaW1hZScsICc8aW5maWxlLm1hZT4nLCAnLW9tYWUnLCAnPG91dGZpbGUubWFlPic=

>  <r_epik_Ionization_Penalty>  (250) 
1.22117

>  <r_epik_Ionization_Penalty_Charging>  (250) 
0

>  <r_epik_Ionization_Penalty_Neutral>  (250) 
1.22117

>  <r_epik_State_Penalty>  (250) 
1.28841

>  <r_epik_Charging_Adjusted_Penalty>  (250) 
1.28841

>  <i_epik_Tot_Q>  (250) 
0

>  <i_epik_Tot_abs_Q>  (250) 
0

>  <s_epik_Chemistry_Notes>  (250) 
This compound has an ester and may undergo hydrolysis at high or low pH.

>  <s_lp_Force_Field>  (250) 
OPLS3e

>  <r_lp_Energy>  (250) 
132.628

>  <b_lp_Chiralities_Consistent>  (250) 
1

>  <s_lp_Variant>  (250) 
72:0-2

>  <s_i_glide_gridfile>  (250) 
pfpi4k_grid

>  <i_i_glide_lignum>  (250) 
14

>  <i_i_glide_rotatable_bonds>  (250) 
5

>  <r_i_docking_score>  (250) 
-1.84996

>  <r_i_glide_ligand_efficiency>  (250) 
-0.046249

>  <r_i_glide_ligand_efficiency_sa>  (250) 
-0.158169

>  <r_i_glide_ligand_efficiency_ln>  (250) 
-0.394542

>  <r_i_glide_gscore>  (250) 
-1.84996

>  <r_i_glide_lipo>  (250) 
-0.0659622

>  <r_i_glide_hbond>  (250) 
-0.124736

>  <r_i_glide_metal>  (250) 
-0

>  <r_i_glide_rewards>  (250) 
0

>  <r_i_glide_evdw>  (250) 
-24.5415

>  <r_i_glide_ecoul>  (250) 
-3.51717

>  <r_i_glide_erotb>  (250) 
0.113994

>  <r_i_glide_esite>  (250) 
-0.0186035

>  <r_i_glide_emodel>  (250) 
-25.2151

>  <r_i_glide_energy>  (250) 
-28.0587

>  <r_i_glide_einternal>  (250) 
10.1185

>  <r_i_glide_intrahb_reward>  (250) 
-0

>  <i_i_glide_confnum>  (250) 
3

>  <i_i_glide_posenum>  (250) 
35

>  <r_i_glide_eff_state_penalty>  (250) 
0

>  <ligand_id>  (250) 
72

>  <original_smiles>  (250) 
CCC12CCC3(Nc4cccc(OC)c4)CCC4C(Cl)(C1c1ccccc1)C1COC(=O)C5N(C)CCC51C42O3

>  <smiles>  (250) 
[H]c1c([H])c([H])c(C2([H])C3(Cl)C4([H])C([H])([H])C([H])([H])C5(N([H])c6c([H])c([H])c([H])c(OC([H])([H])[H])c6[H])OC4(C2(C([H])([H])C([H])([H])[H])C([H])([H])C5([H])[H])C24C([H])(C(=O)OC([H])([H])C32[H])N(C([H])([H])[H])C([H])([H])C4([H])[H])c([H])c1[H]

$$$$
72:1:1
     RDKit          3D

 79 86  0  0  1  0  0  0  0  0999 V2000
   -1.4531   -1.5255    5.2856 C   0  0  0  0  0  0  0  0  0  0  0  0
    0.0586   -1.8208    5.4527 C   0  0  0  0  0  0  0  0  0  0  0  0
    1.1388   -0.7356    5.0862 C   0  0  1  0  0  0  0  0  0  0  0  0
    1.0345   -0.5970    3.5544 C   0  0  0  0  0  0  0  0  0  0  0  0
    1.8196   -1.6713    2.7930 C   0  0  0  0  0  0  0  0  0  0  0  0
    3.2916   -1.8062    3.3045 C   0  0  1  0  0  0  0  0  0  0  0  0
    3.9126   -2.8951    2.5781 N   0  0  0  0  0  0  0  0  0  0  0  0
    4.1182   -2.9952    1.1876 C   0  0  0  0  0  0  0  0  0  0  0  0
    4.7212   -4.1675    0.6800 C   0  0  0  0  0  0  0  0  0  0  0  0
    4.9431   -4.3231   -0.6956 C   0  0  0  0  0  0  0  0  0  0  0  0
    4.5692   -3.3132   -1.5999 C   0  0  0  0  0  0  0  0  0  0  0  0
    3.9655   -2.1294   -1.1124 C   0  0  0  0  0  0  0  0  0  0  0  0
    3.5690   -1.0579   -1.8936 O   0  0  0  0  0  0  0  0  0  0  0  0
    3.5928   -1.2020   -3.2989 C   0  0  0  0  0  0  0  0  0  0  0  0
    3.7410   -1.9875    0.2653 C   0  0  0  0  0  0  0  0  0  0  0  0
    4.2250   -0.5544    3.1529 C   0  0  0  0  0  0  0  0  0  0  0  0
    3.8074    0.6336    4.0236 C   0  0  0  0  0  0  0  0  0  0  0  0
    3.4140    0.1593    5.4298 C   0  0  1  0  0  0  0  0  0  0  0  0
    2.4671    0.8984    6.3856 C   0  0  1  0  0  0  0  0  0  0  0  0
    2.9465    2.5956    6.7116 Cl  0  0  0  0  0  0  0  0  0  0  0  0
    0.9996    0.6461    5.8510 C   0  0  1  0  0  0  0  0  0  0  0  0
    0.2746    1.8043    5.1032 C   0  0  0  0  0  0  0  0  0  0  0  0
    0.9582    2.7605    4.3228 C   0  0  0  0  0  0  0  0  0  0  0  0
    0.2740    3.7950    3.6401 C   0  0  0  0  0  0  0  0  0  0  0  0
   -1.1285    3.8639    3.7218 C   0  0  0  0  0  0  0  0  0  0  0  0
   -1.8223    2.9281    4.4895 C   0  0  0  0  0  0  0  0  0  0  0  0
   -1.1355    1.9295    5.1952 C   0  0  0  0  0  0  0  0  0  0  0  0
    2.7863    0.0668    7.6508 C   0  0  1  0  0  0  0  0  0  0  0  0
    1.8504    0.2245    8.8721 C   0  0  0  0  0  0  0  0  0  0  0  0
    0.7028   -0.6406    8.8961 O   0  0  0  0  0  0  0  0  0  0  0  0
    0.8396   -1.9830    8.6638 C   0  0  0  0  0  0  0  0  0  0  0  0
   -0.1071   -2.7395    8.8775 O   0  0  0  0  0  0  0  0  0  0  0  0
    2.2107   -2.3841    8.0969 C   0  0  1  0  0  0  0  0  0  0  0  0
    2.4912   -3.6956    7.5441 N   0  0  0  0  0  0  0  0  0  0  0  0
    2.1810   -4.8363    8.4022 C   0  0  0  0  0  0  0  0  0  0  0  0
    3.9285   -3.5984    7.2714 C   0  0  0  0  0  0  0  0  0  0  0  0
    4.2657   -2.0922    7.2676 C   0  0  0  0  0  0  0  0  0  0  0  0
    2.8927   -1.3879    7.1168 C   0  0  2  0  0  0  0  0  0  0  0  0
    2.6111   -1.1500    5.5393 C   0  0  1  0  0  0  0  0  0  0  0  0
    3.1966   -2.1374    4.6658 O   0  0  0  0  0  0  0  0  0  0  0  0
   -2.0075   -2.3573    5.7073 H   0  0  0  0  0  0  0  0  0  0  0  0
   -1.7846   -1.3930    4.2615 H   0  0  0  0  0  0  0  0  0  0  0  0
   -1.7543   -0.6534    5.8734 H   0  0  0  0  0  0  0  0  0  0  0  0
    0.1086   -1.9922    6.5112 H   0  0  0  0  0  0  0  0  0  0  0  0
    0.3202   -2.7880    4.9988 H   0  0  0  0  0  0  0  0  0  0  0  0
    0.0019   -0.6517    3.2404 H   0  0  0  0  0  0  0  0  0  0  0  0
    1.3267    0.3682    3.1722 H   0  0  0  0  0  0  0  0  0  0  0  0
    1.3211   -2.6508    2.9158 H   0  0  0  0  0  0  0  0  0  0  0  0
    1.7810   -1.4086    1.7254 H   0  0  0  0  0  0  0  0  0  0  0  0
    4.5480   -3.4439    3.1534 H   0  0  0  0  0  0  0  0  0  0  0  0
    5.0020   -4.9663    1.3619 H   0  0  0  0  0  0  0  0  0  0  0  0
    5.4130   -5.2308   -1.0684 H   0  0  0  0  0  0  0  0  0  0  0  0
    4.7520   -3.4602   -2.6571 H   0  0  0  0  0  0  0  0  0  0  0  0
    3.2244   -0.2800   -3.7470 H   0  0  0  0  0  0  0  0  0  0  0  0
    2.9477   -2.0210   -3.6231 H   0  0  0  0  0  0  0  0  0  0  0  0
    4.6134   -1.3645   -3.6462 H   0  0  0  0  0  0  0  0  0  0  0  0
    3.2464   -1.0758    0.5875 H   0  0  0  0  0  0  0  0  0  0  0  0
    5.2478   -0.8585    3.4102 H   0  0  0  0  0  0  0  0  0  0  0  0
    4.2715   -0.1868    2.1263 H   0  0  0  0  0  0  0  0  0  0  0  0
    4.6471    1.3104    4.0974 H   0  0  0  0  0  0  0  0  0  0  0  0
    3.0805    1.2263    3.4849 H   0  0  0  0  0  0  0  0  0  0  0  0
    4.4135    0.0805    5.8868 H   0  0  0  0  0  0  0  0  0  0  0  0
    0.3614    0.4913    6.7303 H   0  0  0  0  0  0  0  0  0  0  0  0
    2.0357    2.7738    4.2253 H   0  0  0  0  0  0  0  0  0  0  0  0
    0.8263    4.5157    3.0686 H   0  0  0  0  0  0  0  0  0  0  0  0
   -1.6520    4.6535    3.1918 H   0  0  0  0  0  0  0  0  0  0  0  0
   -2.9084    2.9674    4.5580 H   0  0  0  0  0  0  0  0  0  0  0  0
   -1.7184    1.2554    5.8165 H   0  0  0  0  0  0  0  0  0  0  0  0
    3.7712    0.3691    7.9963 H   0  0  0  0  0  0  0  0  0  0  0  0
    2.4255    0.0371    9.7843 H   0  0  0  0  0  0  0  0  0  0  0  0
    1.5049    1.2554    8.9361 H   0  0  0  0  0  0  0  0  0  0  0  0
    2.8054   -2.3351    9.0140 H   0  0  0  0  0  0  0  0  0  0  0  0
    2.5403   -5.7642    7.9500 H   0  0  0  0  0  0  0  0  0  0  0  0
    1.1053   -4.9517    8.5447 H   0  0  0  0  0  0  0  0  0  0  0  0
    2.6524   -4.7346    9.3817 H   0  0  0  0  0  0  0  0  0  0  0  0
    4.5419   -4.1054    8.0215 H   0  0  0  0  0  0  0  0  0  0  0  0
    4.1549   -4.0593    6.3102 H   0  0  0  0  0  0  0  0  0  0  0  0
    4.7076   -1.8215    8.2276 H   0  0  0  0  0  0  0  0  0  0  0  0
    5.0138   -1.8532    6.5109 H   0  0  0  0  0  0  0  0  0  0  0  0
  1  2  1  0
  1 41  1  0
  1 42  1  0
  1 43  1  0
  3  2  1  1
  2 44  1  0
  2 45  1  0
  3 21  1  0
  3 39  1  0
  3  4  1  0
  4  5  1  0
  4 46  1  0
  4 47  1  0
  5  6  1  0
  5 48  1  0
  5 49  1  0
  6 40  1  0
  6  7  1  6
  6 16  1  0
  7  8  1  0
  7 50  1  0
  8 15  1  0
  8  9  2  0
  9 10  1  0
  9 51  1  0
 10 11  2  0
 10 52  1  0
 11 12  1  0
 11 53  1  0
 12 13  1  0
 12 15  2  0
 13 14  1  0
 14 54  1  0
 14 55  1  0
 14 56  1  0
 15 57  1  0
 16 17  1  0
 16 58  1  0
 16 59  1  0
 17 18  1  0
 17 60  1  0
 17 61  1  0
 18 39  1  0
 18 19  1  0
 18 62  1  1
 19 20  1  1
 19 21  1  0
 19 28  1  0
 21 22  1  0
 21 63  1  1
 22 27  1  0
 22 23  2  0
 23 24  1  0
 23 64  1  0
 24 25  2  0
 24 65  1  0
 25 26  1  0
 25 66  1  0
 26 27  2  0
 26 67  1  0
 27 68  1  0
 28 38  1  0
 28 29  1  0
 28 69  1  1
 29 30  1  0
 29 70  1  0
 29 71  1  0
 30 31  1  0
 31 32  2  0
 31 33  1  0
 33 38  1  0
 33 34  1  0
 33 72  1  1
 34 35  1  0
 34 36  1  0
 35 73  1  0
 35 74  1  0
 35 75  1  0
 36 37  1  0
 36 76  1  0
 36 77  1  0
 38 37  1  6
 37 78  1  0
 37 79  1  0
 38 39  1  0
 39 40  1  6
M  END
>  <i_m_ct_stereo_status>  (251) 
1

>  <s_m_source_file>  (251) 
/var/tmp/pbs.5076255.sched01/tmprva83imr/861x3d95ot.sdf

>  <i_m_source_file_index>  (251) 
14

>  <i_lp_mmshare_version>  (251) 
48012

>  <i_f3d_flags>  (251) 
0

>  <s_epik_input>  (251) 
W0NIM11PYyhbY0hdMSlbY0hdW2NIXVtjSF1jMVtOSF1bQ0BdKE8yKShbQ0gyXVtDSDJdW0NAXTMoW0NAQF0yNFtDQEBdNTY3KVtDSDJdW0NIM10pW0NIMl1bQ0gyXVtDQEhdNFtDQEBdKENsKShbQ0BIXTNjOFtjSF1bY0hdW2NIXVtjSF1bY0hdOClbQ0BIXTVbQ0gyXU9DKD1PKVtDQEhdNk4oW0NIM10pW0NIMl1bQ0gyXTc=

>  <s_epik_cmdline>  (251) 
J2VwaWtfcHl0aG9uJywgJy1waHQnLCAnMi4wJywgJy1waCcsICc3LjAnLCAnLXRuJywgJzgnLCAnLW1hJywgJzIwMCcsICctaW1hZScsICc8aW5maWxlLm1hZT4nLCAnLW9tYWUnLCAnPG91dGZpbGUubWFlPic=

>  <r_epik_Ionization_Penalty>  (251) 
1.22117

>  <r_epik_Ionization_Penalty_Charging>  (251) 
0

>  <r_epik_Ionization_Penalty_Neutral>  (251) 
1.22117

>  <r_epik_State_Penalty>  (251) 
1.28841

>  <r_epik_Charging_Adjusted_Penalty>  (251) 
1.28841

>  <i_epik_Tot_Q>  (251) 
0

>  <i_epik_Tot_abs_Q>  (251) 
0

>  <s_epik_Chemistry_Notes>  (251) 
This compound has an ester and may undergo hydrolysis at high or low pH.

>  <s_lp_Force_Field>  (251) 
OPLS3e

>  <r_lp_Energy>  (251) 
132.628

>  <b_lp_Chiralities_Consistent>  (251) 
1

>  <s_lp_Variant>  (251) 
72:0-2

>  <s_i_glide_gridfile>  (251) 
pfpi4k_grid

>  <i_i_glide_lignum>  (251) 
14

>  <i_i_glide_rotatable_bonds>  (251) 
5

>  <r_i_docking_score>  (251) 
-1.83021

>  <r_i_glide_ligand_efficiency>  (251) 
-0.0457553

>  <r_i_glide_ligand_efficiency_sa>  (251) 
-0.156481

>  <r_i_glide_ligand_efficiency_ln>  (251) 
-0.39033

>  <r_i_glide_gscore>  (251) 
-1.83021

>  <r_i_glide_lipo>  (251) 
-0.228039

>  <r_i_glide_hbond>  (251) 
-0.16

>  <r_i_glide_metal>  (251) 
-0

>  <r_i_glide_rewards>  (251) 
0

>  <r_i_glide_evdw>  (251) 
-27.8934

>  <r_i_glide_ecoul>  (251) 
-0.893998

>  <r_i_glide_erotb>  (251) 
0.113994

>  <r_i_glide_esite>  (251) 
-0.0273998

>  <r_i_glide_emodel>  (251) 
-28.2499

>  <r_i_glide_energy>  (251) 
-28.7874

>  <r_i_glide_einternal>  (251) 
5.68002

>  <r_i_glide_intrahb_reward>  (251) 
-0

>  <i_i_glide_confnum>  (251) 
3

>  <i_i_glide_posenum>  (251) 
16

>  <r_i_glide_eff_state_penalty>  (251) 
0

>  <ligand_id>  (251) 
72

>  <original_smiles>  (251) 
CCC12CCC3(Nc4cccc(OC)c4)CCC4C(Cl)(C1c1ccccc1)C1COC(=O)C5N(C)CCC51C42O3

>  <smiles>  (251) 
[H]c1c([H])c([H])c(C2([H])C3(Cl)C4([H])C([H])([H])C([H])([H])C5(N([H])c6c([H])c([H])c([H])c(OC([H])([H])[H])c6[H])OC4(C2(C([H])([H])C([H])([H])[H])C([H])([H])C5([H])[H])C24C([H])(C(=O)OC([H])([H])C32[H])N(C([H])([H])[H])C([H])([H])C4([H])[H])c([H])c1[H]

$$$$
72:1:2
     RDKit          3D

 79 86  0  0  1  0  0  0  0  0999 V2000
    0.2710   -3.4848    4.5577 C   0  0  0  0  0  0  0  0  0  0  0  0
    0.1007   -1.9960    4.9619 C   0  0  0  0  0  0  0  0  0  0  0  0
    1.2944   -1.0235    4.6767 C   0  0  1  0  0  0  0  0  0  0  0  0
    1.1804   -0.7311    3.1589 C   0  0  0  0  0  0  0  0  0  0  0  0
    1.9466   -1.6892    2.2637 C   0  0  0  0  0  0  0  0  0  0  0  0
    3.4183   -1.8891    2.7532 C   0  0  1  0  0  0  0  0  0  0  0  0
    4.0281   -2.9142    1.9306 N   0  0  0  0  0  0  0  0  0  0  0  0
    4.2187   -2.8892    0.5285 C   0  0  0  0  0  0  0  0  0  0  0  0
    4.7773   -4.0282   -0.0873 C   0  0  0  0  0  0  0  0  0  0  0  0
    4.9876   -4.0555   -1.4770 C   0  0  0  0  0  0  0  0  0  0  0  0
    4.6333   -2.9556   -2.2796 C   0  0  0  0  0  0  0  0  0  0  0  0
    4.0727   -1.8071   -1.6848 C   0  0  0  0  0  0  0  0  0  0  0  0
    3.7096   -0.6566   -2.3496 O   0  0  0  0  0  0  0  0  0  0  0  0
    3.6357   -0.6911   -3.7531 C   0  0  0  0  0  0  0  0  0  0  0  0
    3.8737   -1.7865   -0.2980 C   0  0  0  0  0  0  0  0  0  0  0  0
    4.3784   -0.6504    2.7289 C   0  0  0  0  0  0  0  0  0  0  0  0
    3.9627    0.4393    3.7047 C   0  0  0  0  0  0  0  0  0  0  0  0
    3.5782   -0.1680    5.0694 C   0  0  1  0  0  0  0  0  0  0  0  0
    2.6355    0.4929    6.0921 C   0  0  1  0  0  0  0  0  0  0  0  0
    3.1172    2.1569    6.5628 Cl  0  0  0  0  0  0  0  0  0  0  0  0
    1.1772    0.2917    5.5376 C   0  0  1  0  0  0  0  0  0  0  0  0
    0.4494    1.5190    4.9227 C   0  0  0  0  0  0  0  0  0  0  0  0
    1.1328    2.5501    4.2165 C   0  0  0  0  0  0  0  0  0  0  0  0
    0.4327    3.6292    3.6691 C   0  0  0  0  0  0  0  0  0  0  0  0
   -0.9527    3.7157    3.7906 C   0  0  0  0  0  0  0  0  0  0  0  0
   -1.6535    2.7153    4.4851 C   0  0  0  0  0  0  0  0  0  0  0  0
   -0.9477    1.6180    5.0301 C   0  0  0  0  0  0  0  0  0  0  0  0
    2.9542   -0.4620    7.2787 C   0  0  1  0  0  0  0  0  0  0  0  0
    2.0171   -0.4084    8.5068 C   0  0  0  0  0  0  0  0  0  0  0  0
    0.8761   -1.2688    8.4277 O   0  0  0  0  0  0  0  0  0  0  0  0
    0.9833   -2.5636    8.0800 C   0  0  0  0  0  0  0  0  0  0  0  0
    0.0338   -3.3493    8.1665 O   0  0  0  0  0  0  0  0  0  0  0  0
    2.3660   -2.9135    7.4986 C   0  0  1  0  0  0  0  0  0  0  0  0
    2.6612   -4.2003    6.8560 N   0  0  0  0  0  0  0  0  0  0  0  0
    2.3141   -5.4124    7.5918 C   0  0  0  0  0  0  0  0  0  0  0  0
    4.0921   -4.0837    6.5651 C   0  0  0  0  0  0  0  0  0  0  0  0
    4.4279   -2.5769    6.6873 C   0  0  0  0  0  0  0  0  0  0  0  0
    3.0636   -1.8525    6.6026 C   0  0  2  0  0  0  0  0  0  0  0  0
    2.7668   -1.4879    5.0651 C   0  0  1  0  0  0  0  0  0  0  0  0
    3.3401   -2.3666    4.0855 O   0  0  0  0  0  0  0  0  0  0  0  0
   -0.5452   -4.0657    4.9422 H   0  0  0  0  0  0  0  0  0  0  0  0
    1.1584   -3.9652    4.9463 H   0  0  0  0  0  0  0  0  0  0  0  0
    0.2771   -3.6917    3.4958 H   0  0  0  0  0  0  0  0  0  0  0  0
   -0.7960   -1.6064    4.4665 H   0  0  0  0  0  0  0  0  0  0  0  0
   -0.2090   -1.9298    6.0008 H   0  0  0  0  0  0  0  0  0  0  0  0
    0.1374   -0.7400    2.8665 H   0  0  0  0  0  0  0  0  0  0  0  0
    1.4581    0.2719    2.8795 H   0  0  0  0  0  0  0  0  0  0  0  0
    1.4840   -2.6704    2.2215 H   0  0  0  0  0  0  0  0  0  0  0  0
    1.8597   -1.2970    1.2539 H   0  0  0  0  0  0  0  0  0  0  0  0
    4.6477   -3.5357    2.4457 H   0  0  0  0  0  0  0  0  0  0  0  0
    5.0309   -4.8952    0.5119 H   0  0  0  0  0  0  0  0  0  0  0  0
    5.4011   -4.9502   -1.9320 H   0  0  0  0  0  0  0  0  0  0  0  0
    4.8069   -3.0175   -3.3439 H   0  0  0  0  0  0  0  0  0  0  0  0
    3.3037    0.2872   -4.1036 H   0  0  0  0  0  0  0  0  0  0  0  0
    2.9246   -1.4383   -4.1045 H   0  0  0  0  0  0  0  0  0  0  0  0
    4.6137   -0.8817   -4.1846 H   0  0  0  0  0  0  0  0  0  0  0  0
    3.4414   -0.8756    0.0919 H   0  0  0  0  0  0  0  0  0  0  0  0
    5.3889   -0.9959    2.9688 H   0  0  0  0  0  0  0  0  0  0  0  0
    4.4278   -0.1823    1.7495 H   0  0  0  0  0  0  0  0  0  0  0  0
    4.8102    1.1063    3.8551 H   0  0  0  0  0  0  0  0  0  0  0  0
    3.2373    1.0785    3.2323 H   0  0  0  0  0  0  0  0  0  0  0  0
    4.5743   -0.2766    5.5144 H   0  0  0  0  0  0  0  0  0  0  0  0
    0.5526    0.0779    6.4030 H   0  0  0  0  0  0  0  0  0  0  0  0
    2.1884    2.5590    4.0995 H   0  0  0  0  0  0  0  0  0  0  0  0
    0.9759    4.3741    3.1160 H   0  0  0  0  0  0  0  0  0  0  0  0
   -1.4742    4.5459    3.3393 H   0  0  0  0  0  0  0  0  0  0  0  0
   -2.7293    2.7855    4.5876 H   0  0  0  0  0  0  0  0  0  0  0  0
   -1.5119    0.8494    5.5647 H   0  0  0  0  0  0  0  0  0  0  0  0
    3.9431   -0.1851    7.6433 H   0  0  0  0  0  0  0  0  0  0  0  0
    2.5922   -0.6826    9.3884 H   0  0  0  0  0  0  0  0  0  0  0  0
    1.6878    0.6192    8.6746 H   0  0  0  0  0  0  0  0  0  0  0  0
    2.9453   -2.9271    8.4287 H   0  0  0  0  0  0  0  0  0  0  0  0
    2.6493   -6.2811    7.0330 H   0  0  0  0  0  0  0  0  0  0  0  0
    1.2380   -5.5098    7.6991 H   0  0  0  0  0  0  0  0  0  0  0  0
    2.7708   -5.4336    8.5789 H   0  0  0  0  0  0  0  0  0  0  0  0
    4.7228   -4.6619    7.2441 H   0  0  0  0  0  0  0  0  0  0  0  0
    4.2635   -4.4443    5.5513 H   0  0  0  0  0  0  0  0  0  0  0  0
    4.8743   -2.3890    7.6635 H   0  0  0  0  0  0  0  0  0  0  0  0
    5.1623   -2.2735    5.9451 H   0  0  0  0  0  0  0  0  0  0  0  0
  1  2  1  0
  1 41  1  0
  1 42  1  0
  1 43  1  0
  3  2  1  1
  2 44  1  0
  2 45  1  0
  3 21  1  0
  3 39  1  0
  3  4  1  0
  4  5  1  0
  4 46  1  0
  4 47  1  0
  5  6  1  0
  5 48  1  0
  5 49  1  0
  6 40  1  0
  6  7  1  6
  6 16  1  0
  7  8  1  0
  7 50  1  0
  8 15  1  0
  8  9  2  0
  9 10  1  0
  9 51  1  0
 10 11  2  0
 10 52  1  0
 11 12  1  0
 11 53  1  0
 12 13  1  0
 12 15  2  0
 13 14  1  0
 14 54  1  0
 14 55  1  0
 14 56  1  0
 15 57  1  0
 16 17  1  0
 16 58  1  0
 16 59  1  0
 17 18  1  0
 17 60  1  0
 17 61  1  0
 18 39  1  0
 18 19  1  0
 18 62  1  1
 19 20  1  1
 19 21  1  0
 19 28  1  0
 21 22  1  0
 21 63  1  1
 22 27  1  0
 22 23  2  0
 23 24  1  0
 23 64  1  0
 24 25  2  0
 24 65  1  0
 25 26  1  0
 25 66  1  0
 26 27  2  0
 26 67  1  0
 27 68  1  0
 28 38  1  0
 28 29  1  0
 28 69  1  1
 29 30  1  0
 29 70  1  0
 29 71  1  0
 30 31  1  0
 31 32  2  0
 31 33  1  0
 33 38  1  0
 33 34  1  0
 33 72  1  1
 34 35  1  0
 34 36  1  0
 35 73  1  0
 35 74  1  0
 35 75  1  0
 36 37  1  0
 36 76  1  0
 36 77  1  0
 38 37  1  6
 37 78  1  0
 37 79  1  0
 38 39  1  0
 39 40  1  6
M  END
>  <i_m_ct_stereo_status>  (252) 
1

>  <s_m_source_file>  (252) 
/var/tmp/pbs.5076255.sched01/tmprva83imr/861x3d95ot.sdf

>  <i_m_source_file_index>  (252) 
14

>  <i_lp_mmshare_version>  (252) 
48012

>  <i_f3d_flags>  (252) 
0

>  <s_epik_input>  (252) 
W0NIM11PYyhbY0hdMSlbY0hdW2NIXVtjSF1jMVtOSF1bQ0BdKE8yKShbQ0gyXVtDSDJdW0NAXTMoW0NAQF0yNFtDQEBdNTY3KVtDSDJdW0NIM10pW0NIMl1bQ0gyXVtDQEhdNFtDQEBdKENsKShbQ0BIXTNjOFtjSF1bY0hdW2NIXVtjSF1bY0hdOClbQ0BIXTVbQ0gyXU9DKD1PKVtDQEhdNk4oW0NIM10pW0NIMl1bQ0gyXTc=

>  <s_epik_cmdline>  (252) 
J2VwaWtfcHl0aG9uJywgJy1waHQnLCAnMi4wJywgJy1waCcsICc3LjAnLCAnLXRuJywgJzgnLCAnLW1hJywgJzIwMCcsICctaW1hZScsICc8aW5maWxlLm1hZT4nLCAnLW9tYWUnLCAnPG91dGZpbGUubWFlPic=

>  <r_epik_Ionization_Penalty>  (252) 
1.22117

>  <r_epik_Ionization_Penalty_Charging>  (252) 
0

>  <r_epik_Ionization_Penalty_Neutral>  (252) 
1.22117

>  <r_epik_State_Penalty>  (252) 
1.28841

>  <r_epik_Charging_Adjusted_Penalty>  (252) 
1.28841

>  <i_epik_Tot_Q>  (252) 
0

>  <i_epik_Tot_abs_Q>  (252) 
0

>  <s_epik_Chemistry_Notes>  (252) 
This compound has an ester and may undergo hydrolysis at high or low pH.

>  <s_lp_Force_Field>  (252) 
OPLS3e

>  <r_lp_Energy>  (252) 
132.628

>  <b_lp_Chiralities_Consistent>  (252) 
1

>  <s_lp_Variant>  (252) 
72:0-2

>  <s_i_glide_gridfile>  (252) 
pfpi4k_grid

>  <i_i_glide_lignum>  (252) 
14

>  <i_i_glide_rotatable_bonds>  (252) 
5

>  <r_i_docking_score>  (252) 
-1.77408

>  <r_i_glide_ligand_efficiency>  (252) 
-0.0443519

>  <r_i_glide_ligand_efficiency_sa>  (252) 
-0.151681

>  <r_i_glide_ligand_efficiency_ln>  (252) 
-0.378358

>  <r_i_glide_gscore>  (252) 
-1.77408

>  <r_i_glide_lipo>  (252) 
-0.39528

>  <r_i_glide_hbond>  (252) 
0

>  <r_i_glide_metal>  (252) 
-0

>  <r_i_glide_rewards>  (252) 
0

>  <r_i_glide_evdw>  (252) 
-28.6364

>  <r_i_glide_ecoul>  (252) 
-0.308169

>  <r_i_glide_erotb>  (252) 
0.113994

>  <r_i_glide_esite>  (252) 
-0.0147441

>  <r_i_glide_emodel>  (252) 
-28.1151

>  <r_i_glide_energy>  (252) 
-28.9446

>  <r_i_glide_einternal>  (252) 
5.91866

>  <r_i_glide_intrahb_reward>  (252) 
-0

>  <i_i_glide_confnum>  (252) 
3

>  <i_i_glide_posenum>  (252) 
2

>  <r_i_glide_eff_state_penalty>  (252) 
0

>  <ligand_id>  (252) 
72

>  <original_smiles>  (252) 
CCC12CCC3(Nc4cccc(OC)c4)CCC4C(Cl)(C1c1ccccc1)C1COC(=O)C5N(C)CCC51C42O3

>  <smiles>  (252) 
[H]c1c([H])c([H])c(C2([H])C3(Cl)C4([H])C([H])([H])C([H])([H])C5(N([H])c6c([H])c([H])c([H])c(OC([H])([H])[H])c6[H])OC4(C2(C([H])([H])C([H])([H])[H])C([H])([H])C5([H])[H])C24C([H])(C(=O)OC([H])([H])C32[H])N(C([H])([H])[H])C([H])([H])C4([H])[H])c([H])c1[H]

$$$$
73:0:0
     RDKit          3D

 29 31  0  0  1  0  0  0  0  0999 V2000
    3.1431   -5.5012    2.4844 C   0  0  0  0  0  0  0  0  0  0  0  0
    3.5219   -4.5747    1.3896 N   0  0  0  0  0  0  0  0  0  0  0  0
    2.7833   -4.5626    0.2536 C   0  0  0  0  0  0  0  0  0  0  0  0
    1.8166   -5.3084    0.0795 O   0  0  0  0  0  0  0  0  0  0  0  0
    3.1176   -3.5526   -0.8343 C   0  0  0  0  0  0  0  0  0  0  0  0
    2.2756   -3.4378   -1.9633 C   0  0  0  0  0  0  0  0  0  0  0  0
    2.6013   -2.5671   -3.0107 C   0  0  0  0  0  0  0  0  0  0  0  0
    3.7348   -1.7441   -2.9122 C   0  0  0  0  0  0  0  0  0  0  0  0
    4.5708   -1.8324   -1.7957 C   0  0  0  0  0  0  0  0  0  0  0  0
    4.2777   -2.7521   -0.7646 C   0  0  0  0  0  0  0  0  0  0  0  0
    5.1719   -2.8612    0.4594 C   0  0  1  0  0  0  0  0  0  0  0  0
    6.6150   -3.2643    0.0763 C   0  0  0  0  0  0  0  0  0  0  0  0
    7.4032   -2.0089    0.4099 C   0  0  0  0  0  0  0  0  0  0  0  0
    8.5972   -1.8821    0.1655 O   0  0  0  0  0  0  0  0  0  0  0  0
    6.6212   -1.0747    0.9490 N   0  0  0  0  0  0  0  0  0  0  0  0
    5.3553   -1.4597    1.0807 C   0  0  0  0  0  0  0  0  0  0  0  0
    4.4470   -0.7681    1.5456 O   0  0  0  0  0  0  0  0  0  0  0  0
    4.6141   -3.7895    1.5839 C   0  0  0  0  0  0  0  0  0  0  0  0
    5.2439   -3.8383    2.6365 O   0  0  0  0  0  0  0  0  0  0  0  0
    2.3487   -6.2013    2.2180 H   0  0  0  0  0  0  0  0  0  0  0  0
    2.7972   -4.9095    3.3358 H   0  0  0  0  0  0  0  0  0  0  0  0
    4.0047   -6.1068    2.7820 H   0  0  0  0  0  0  0  0  0  0  0  0
    1.4077   -4.0877   -2.0909 H   0  0  0  0  0  0  0  0  0  0  0  0
    1.9723   -2.4972   -3.8879 H   0  0  0  0  0  0  0  0  0  0  0  0
    3.9860   -1.0386   -3.6832 H   0  0  0  0  0  0  0  0  0  0  0  0
    5.4389   -1.2045   -1.7017 H   0  0  0  0  0  0  0  0  0  0  0  0
    7.0169   -4.1110    0.6394 H   0  0  0  0  0  0  0  0  0  0  0  0
    6.6898   -3.5142   -0.9820 H   0  0  0  0  0  0  0  0  0  0  0  0
    6.9578   -0.1553    1.2071 H   0  0  0  0  0  0  0  0  0  0  0  0
  1  2  1  0
  1 20  1  0
  1 21  1  0
  1 22  1  0
  2 18  1  0
  2  3  1  0
  3  4  2  0
  3  5  1  0
  5 10  2  0
  5  6  1  0
  6  7  2  0
  6 23  1  0
  7  8  1  0
  7 24  1  0
  8  9  2  0
  8 25  1  0
  9 10  1  0
  9 26  1  0
 10 11  1  0
 11 16  1  0
 11 12  1  6
 11 18  1  0
 12 13  1  0
 12 27  1  0
 12 28  1  0
 13 14  2  0
 13 15  1  0
 15 16  1  0
 15 29  1  0
 16 17  2  0
 18 19  2  0
M  END
>  <i_m_ct_stereo_status>  (253) 
1

>  <s_m_source_file>  (253) 
/var/tmp/pbs.5076255.sched01/tmprva83imr/861x3d95ot.sdf

>  <i_m_source_file_index>  (253) 
15

>  <i_lp_mmshare_version>  (253) 
48012

>  <i_f3d_flags>  (253) 
0

>  <s_epik_input>  (253) 
W2NIXTFbY0hdW2NIXVtjSF1jKEMoPU8pTihbQ0gzXSlDMj1PKWMxW0NAXTIzW0NIMl1DKD1PKVtOSF1DMz1P

>  <s_epik_cmdline>  (253) 
J2VwaWtfcHl0aG9uJywgJy1waHQnLCAnMi4wJywgJy1waCcsICc3LjAnLCAnLXRuJywgJzgnLCAnLW1hJywgJzIwMCcsICctaW1hZScsICc8aW5maWxlLm1hZT4nLCAnLW9tYWUnLCAnPG91dGZpbGUubWFlPic=

>  <r_lp_tautomer_probability>  (253) 
1

>  <r_epik_Ionization_Penalty>  (253) 
2.94691e-05

>  <r_epik_Ionization_Penalty_Charging>  (253) 
0

>  <r_epik_Ionization_Penalty_Neutral>  (253) 
2.94691e-05

>  <r_epik_State_Penalty>  (253) 
-0

>  <r_epik_Charging_Adjusted_Penalty>  (253) 
0

>  <i_epik_Tot_Q>  (253) 
0

>  <i_epik_Tot_abs_Q>  (253) 
0

>  <s_lp_Force_Field>  (253) 
OPLS3e

>  <r_lp_Energy>  (253) 
34.9697

>  <b_lp_Chiralities_Consistent>  (253) 
1

>  <s_lp_Variant>  (253) 
73:0-1

>  <s_i_glide_gridfile>  (253) 
pfpi4k_grid

>  <i_i_glide_lignum>  (253) 
15

>  <i_i_glide_rotatable_bonds>  (253) 
0

>  <r_i_docking_score>  (253) 
-4.53146

>  <r_i_glide_ligand_efficiency>  (253) 
-0.238498

>  <r_i_glide_ligand_efficiency_sa>  (253) 
-0.636408

>  <r_i_glide_ligand_efficiency_ln>  (253) 
-1.14882

>  <r_i_glide_gscore>  (253) 
-4.53146

>  <r_i_glide_lipo>  (253) 
-0.378492

>  <r_i_glide_hbond>  (253) 
-0.41284

>  <r_i_glide_metal>  (253) 
-0

>  <r_i_glide_rewards>  (253) 
-1.89315

>  <r_i_glide_evdw>  (253) 
-23.4989

>  <r_i_glide_ecoul>  (253) 
-4.24915

>  <r_i_glide_erotb>  (253) 
0

>  <r_i_glide_esite>  (253) 
-0.0346633

>  <r_i_glide_emodel>  (253) 
-34.8792

>  <r_i_glide_energy>  (253) 
-27.7481

>  <r_i_glide_einternal>  (253) 
0

>  <r_i_glide_intrahb_reward>  (253) 
-0

>  <i_i_glide_confnum>  (253) 
1

>  <i_i_glide_posenum>  (253) 
13

>  <r_i_glide_eff_state_penalty>  (253) 
0

>  <ligand_id>  (253) 
73

>  <original_smiles>  (253) 
CN1C(=O)c2ccccc2C2(CC(=O)NC2=O)C1=O

>  <smiles>  (253) 
[H]c1c([H])c([H])c2c(c1[H])C(=O)N(C([H])([H])[H])C(=O)C21C(=O)N([H])C(=O)C1([H])[H]

$$$$
73:0:1
     RDKit          3D

 29 31  0  0  1  0  0  0  0  0999 V2000
    2.3737   -5.0327    1.3893 C   0  0  0  0  0  0  0  0  0  0  0  0
    3.0147   -4.0836    0.4612 N   0  0  0  0  0  0  0  0  0  0  0  0
    2.4445   -3.8553   -0.7530 C   0  0  0  0  0  0  0  0  0  0  0  0
    1.4128   -4.4216   -1.1172 O   0  0  0  0  0  0  0  0  0  0  0  0
    3.0700   -2.8770   -1.7035 C   0  0  0  0  0  0  0  0  0  0  0  0
    2.4261   -2.5791   -2.9274 C   0  0  0  0  0  0  0  0  0  0  0  0
    2.9870   -1.6361   -3.8047 C   0  0  0  0  0  0  0  0  0  0  0  0
    4.1876   -0.9907   -3.4792 C   0  0  0  0  0  0  0  0  0  0  0  0
    4.8479   -1.2993   -2.2791 C   0  0  0  0  0  0  0  0  0  0  0  0
    4.2997   -2.2386   -1.3965 C   0  0  0  0  0  0  0  0  0  0  0  0
    4.9998   -2.5824   -0.0910 C   0  0  1  0  0  0  0  0  0  0  0  0
    6.4060   -3.1668   -0.3436 C   0  0  0  0  0  0  0  0  0  0  0  0
    7.3166   -2.0807    0.2053 C   0  0  0  0  0  0  0  0  0  0  0  0
    8.5396   -2.1215    0.1166 O   0  0  0  0  0  0  0  0  0  0  0  0
    6.6112   -1.0815    0.7368 N   0  0  0  0  0  0  0  0  0  0  0  0
    5.2963   -1.2786    0.6764 C   0  0  0  0  0  0  0  0  0  0  0  0
    4.4410   -0.4955    1.0922 O   0  0  0  0  0  0  0  0  0  0  0  0
    4.1723   -3.5001    0.8581 C   0  0  0  0  0  0  0  0  0  0  0  0
    4.6471   -3.7345    1.9758 O   0  0  0  0  0  0  0  0  0  0  0  0
    1.5337   -5.5876    0.9625 H   0  0  0  0  0  0  0  0  0  0  0  0
    2.0013   -4.4761    2.2550 H   0  0  0  0  0  0  0  0  0  0  0  0
    3.0926   -5.7877    1.7294 H   0  0  0  0  0  0  0  0  0  0  0  0
    1.4818   -3.0348   -3.1919 H   0  0  0  0  0  0  0  0  0  0  0  0
    2.4847   -1.3727   -4.7234 H   0  0  0  0  0  0  0  0  0  0  0  0
    4.6055   -0.2599   -4.1514 H   0  0  0  0  0  0  0  0  0  0  0  0
    5.7701   -0.8151   -2.0358 H   0  0  0  0  0  0  0  0  0  0  0  0
    6.6061   -4.1075    0.1743 H   0  0  0  0  0  0  0  0  0  0  0  0
    6.5847   -3.3369   -1.4059 H   0  0  0  0  0  0  0  0  0  0  0  0
    7.0281   -0.2381    1.1149 H   0  0  0  0  0  0  0  0  0  0  0  0
  1  2  1  0
  1 20  1  0
  1 21  1  0
  1 22  1  0
  2 18  1  0
  2  3  1  0
  3  4  2  0
  3  5  1  0
  5 10  2  0
  5  6  1  0
  6  7  2  0
  6 23  1  0
  7  8  1  0
  7 24  1  0
  8  9  2  0
  8 25  1  0
  9 10  1  0
  9 26  1  0
 10 11  1  0
 11 16  1  0
 11 12  1  6
 11 18  1  0
 12 13  1  0
 12 27  1  0
 12 28  1  0
 13 14  2  0
 13 15  1  0
 15 16  1  0
 15 29  1  0
 16 17  2  0
 18 19  2  0
M  END
>  <i_m_ct_stereo_status>  (254) 
1

>  <s_m_source_file>  (254) 
/var/tmp/pbs.5076255.sched01/tmprva83imr/861x3d95ot.sdf

>  <i_m_source_file_index>  (254) 
15

>  <i_lp_mmshare_version>  (254) 
48012

>  <i_f3d_flags>  (254) 
0

>  <s_epik_input>  (254) 
W2NIXTFbY0hdW2NIXVtjSF1jKEMoPU8pTihbQ0gzXSlDMj1PKWMxW0NAXTIzW0NIMl1DKD1PKVtOSF1DMz1P

>  <s_epik_cmdline>  (254) 
J2VwaWtfcHl0aG9uJywgJy1waHQnLCAnMi4wJywgJy1waCcsICc3LjAnLCAnLXRuJywgJzgnLCAnLW1hJywgJzIwMCcsICctaW1hZScsICc8aW5maWxlLm1hZT4nLCAnLW9tYWUnLCAnPG91dGZpbGUubWFlPic=

>  <r_lp_tautomer_probability>  (254) 
1

>  <r_epik_Ionization_Penalty>  (254) 
2.94691e-05

>  <r_epik_Ionization_Penalty_Charging>  (254) 
0

>  <r_epik_Ionization_Penalty_Neutral>  (254) 
2.94691e-05

>  <r_epik_State_Penalty>  (254) 
-0

>  <r_epik_Charging_Adjusted_Penalty>  (254) 
0

>  <i_epik_Tot_Q>  (254) 
0

>  <i_epik_Tot_abs_Q>  (254) 
0

>  <s_lp_Force_Field>  (254) 
OPLS3e

>  <r_lp_Energy>  (254) 
34.9697

>  <b_lp_Chiralities_Consistent>  (254) 
1

>  <s_lp_Variant>  (254) 
73:0-1

>  <s_i_glide_gridfile>  (254) 
pfpi4k_grid

>  <i_i_glide_lignum>  (254) 
15

>  <i_i_glide_rotatable_bonds>  (254) 
0

>  <r_i_docking_score>  (254) 
-4.23711

>  <r_i_glide_ligand_efficiency>  (254) 
-0.223006

>  <r_i_glide_ligand_efficiency_sa>  (254) 
-0.59507

>  <r_i_glide_ligand_efficiency_ln>  (254) 
-1.0742

>  <r_i_glide_gscore>  (254) 
-4.23711

>  <r_i_glide_lipo>  (254) 
-0.422062

>  <r_i_glide_hbond>  (254) 
-0.32

>  <r_i_glide_metal>  (254) 
-0

>  <r_i_glide_rewards>  (254) 
-1.81016

>  <r_i_glide_evdw>  (254) 
-24.3132

>  <r_i_glide_ecoul>  (254) 
-2.70977

>  <r_i_glide_erotb>  (254) 
0

>  <r_i_glide_esite>  (254) 
-0.062766

>  <r_i_glide_emodel>  (254) 
-33.6737

>  <r_i_glide_energy>  (254) 
-27.0229

>  <r_i_glide_einternal>  (254) 
0

>  <r_i_glide_intrahb_reward>  (254) 
-0

>  <i_i_glide_confnum>  (254) 
2

>  <i_i_glide_posenum>  (254) 
40

>  <r_i_glide_eff_state_penalty>  (254) 
0

>  <ligand_id>  (254) 
73

>  <original_smiles>  (254) 
CN1C(=O)c2ccccc2C2(CC(=O)NC2=O)C1=O

>  <smiles>  (254) 
[H]c1c([H])c([H])c2c(c1[H])C(=O)N(C([H])([H])[H])C(=O)C21C(=O)N([H])C(=O)C1([H])[H]

$$$$
73:0:2
     RDKit          3D

 29 31  0  0  1  0  0  0  0  0999 V2000
   -2.4873    3.3226    2.9592 C   0  0  0  0  0  0  0  0  0  0  0  0
   -1.0983    2.9113    3.2174 N   0  0  0  0  0  0  0  0  0  0  0  0
   -0.6482    1.7400    2.7096 C   0  0  0  0  0  0  0  0  0  0  0  0
   -1.3738    0.9589    2.0871 O   0  0  0  0  0  0  0  0  0  0  0  0
    0.7991    1.3273    2.9116 C   0  0  0  0  0  0  0  0  0  0  0  0
    1.2782    0.1444    2.2965 C   0  0  0  0  0  0  0  0  0  0  0  0
    2.6170   -0.2474    2.4853 C   0  0  0  0  0  0  0  0  0  0  0  0
    3.4761    0.5354    3.2836 C   0  0  0  0  0  0  0  0  0  0  0  0
    3.0107    1.6976    3.9007 C   0  0  0  0  0  0  0  0  0  0  0  0
    1.6742    2.0898    3.7298 C   0  0  0  0  0  0  0  0  0  0  0  0
    1.1373    3.3544    4.3821 C   0  0  1  0  0  0  0  0  0  0  0  0
    1.2577    3.2864    5.9236 C   0  0  0  0  0  0  0  0  0  0  0  0
    2.3087    4.3447    6.2256 C   0  0  0  0  0  0  0  0  0  0  0  0
    2.7495    4.5644    7.3517 O   0  0  0  0  0  0  0  0  0  0  0  0
    2.6742    4.9738    5.1104 N   0  0  0  0  0  0  0  0  0  0  0  0
    2.0482    4.5444    4.0201 C   0  0  0  0  0  0  0  0  0  0  0  0
    2.2570    4.9617    2.8821 O   0  0  0  0  0  0  0  0  0  0  0  0
   -0.3171    3.7484    3.9526 C   0  0  0  0  0  0  0  0  0  0  0  0
   -0.7758    4.8115    4.3828 O   0  0  0  0  0  0  0  0  0  0  0  0
   -3.0936    2.5561    2.4707 H   0  0  0  0  0  0  0  0  0  0  0  0
   -2.4694    4.1982    2.3052 H   0  0  0  0  0  0  0  0  0  0  0  0
   -2.9900    3.5730    3.8970 H   0  0  0  0  0  0  0  0  0  0  0  0
    0.6396   -0.4826    1.6846 H   0  0  0  0  0  0  0  0  0  0  0  0
    3.0001   -1.1490    2.0254 H   0  0  0  0  0  0  0  0  0  0  0  0
    4.5056    0.2543    3.4331 H   0  0  0  0  0  0  0  0  0  0  0  0
    3.6531    2.2977    4.4954 H   0  0  0  0  0  0  0  0  0  0  0  0
    0.3373    3.5212    6.4637 H   0  0  0  0  0  0  0  0  0  0  0  0
    1.5829    2.3006    6.2549 H   0  0  0  0  0  0  0  0  0  0  0  0
    3.3962    5.6712    5.0783 H   0  0  0  0  0  0  0  0  0  0  0  0
  1  2  1  0
  1 20  1  0
  1 21  1  0
  1 22  1  0
  2 18  1  0
  2  3  1  0
  3  4  2  0
  3  5  1  0
  5 10  2  0
  5  6  1  0
  6  7  2  0
  6 23  1  0
  7  8  1  0
  7 24  1  0
  8  9  2  0
  8 25  1  0
  9 10  1  0
  9 26  1  0
 10 11  1  0
 11 16  1  0
 11 12  1  1
 11 18  1  0
 12 13  1  0
 12 27  1  0
 12 28  1  0
 13 14  2  0
 13 15  1  0
 15 16  1  0
 15 29  1  0
 16 17  2  0
 18 19  2  0
M  END
>  <i_m_ct_stereo_status>  (255) 
1

>  <s_m_source_file>  (255) 
/var/tmp/pbs.5076255.sched01/tmprva83imr/861x3d95ot.sdf

>  <i_m_source_file_index>  (255) 
15

>  <i_lp_mmshare_version>  (255) 
48012

>  <i_f3d_flags>  (255) 
0

>  <s_epik_input>  (255) 
W2NIXTFbY0hdW2NIXVtjSF1jKEMoPU8pTihbQ0gzXSlDMj1PKWMxW0NAXTIzW0NIMl1DKD1PKVtOSF1DMz1P

>  <s_epik_cmdline>  (255) 
J2VwaWtfcHl0aG9uJywgJy1waHQnLCAnMi4wJywgJy1waCcsICc3LjAnLCAnLXRuJywgJzgnLCAnLW1hJywgJzIwMCcsICctaW1hZScsICc8aW5maWxlLm1hZT4nLCAnLW9tYWUnLCAnPG91dGZpbGUubWFlPic=

>  <r_lp_tautomer_probability>  (255) 
1

>  <r_epik_Ionization_Penalty>  (255) 
2.94691e-05

>  <r_epik_Ionization_Penalty_Charging>  (255) 
0

>  <r_epik_Ionization_Penalty_Neutral>  (255) 
2.94691e-05

>  <r_epik_State_Penalty>  (255) 
-0

>  <r_epik_Charging_Adjusted_Penalty>  (255) 
0

>  <i_epik_Tot_Q>  (255) 
0

>  <i_epik_Tot_abs_Q>  (255) 
0

>  <s_lp_Force_Field>  (255) 
OPLS3e

>  <r_lp_Energy>  (255) 
34.9697

>  <b_lp_Chiralities_Consistent>  (255) 
1

>  <s_lp_Variant>  (255) 
73:0-1

>  <s_i_glide_gridfile>  (255) 
pfpi4k_grid

>  <i_i_glide_lignum>  (255) 
15

>  <i_i_glide_rotatable_bonds>  (255) 
0

>  <r_i_docking_score>  (255) 
-3.05603

>  <r_i_glide_ligand_efficiency>  (255) 
-0.160844

>  <r_i_glide_ligand_efficiency_sa>  (255) 
-0.429196

>  <r_i_glide_ligand_efficiency_ln>  (255) 
-0.774769

>  <r_i_glide_gscore>  (255) 
-3.05603

>  <r_i_glide_lipo>  (255) 
0

>  <r_i_glide_hbond>  (255) 
-0.0303739

>  <r_i_glide_metal>  (255) 
-0

>  <r_i_glide_rewards>  (255) 
-1.64844

>  <r_i_glide_evdw>  (255) 
-20.8012

>  <r_i_glide_ecoul>  (255) 
-0.673008

>  <r_i_glide_erotb>  (255) 
0

>  <r_i_glide_esite>  (255) 
-0.23621

>  <r_i_glide_emodel>  (255) 
-26.2241

>  <r_i_glide_energy>  (255) 
-21.4742

>  <r_i_glide_einternal>  (255) 
0

>  <r_i_glide_intrahb_reward>  (255) 
-0

>  <i_i_glide_confnum>  (255) 
2

>  <i_i_glide_posenum>  (255) 
11

>  <r_i_glide_eff_state_penalty>  (255) 
0

>  <ligand_id>  (255) 
73

>  <original_smiles>  (255) 
CN1C(=O)c2ccccc2C2(CC(=O)NC2=O)C1=O

>  <smiles>  (255) 
[H]c1c([H])c([H])c2c(c1[H])C(=O)N(C([H])([H])[H])C(=O)C21C(=O)N([H])C(=O)C1([H])[H]

$$$$
74:0:0
     RDKit          3D

 43 47  0  0  1  0  0  0  0  0999 V2000
    5.3244   -1.8680   -1.0433 C   0  0  0  0  0  0  0  0  0  0  0  0
    4.0978   -1.4205   -0.5286 C   0  0  0  0  0  0  0  0  0  0  0  0
    4.1026   -0.8090    0.7396 C   0  0  0  0  0  0  0  0  0  0  0  0
    2.9155   -0.2477    1.2580 N   0  0  0  0  0  0  0  0  0  0  0  0
    2.0663   -1.1174    2.0569 C   0  0  0  0  0  0  0  0  0  0  0  0
    1.7188    0.1348    2.8674 C   0  0  0  0  0  0  0  0  0  0  0  0
    0.4375    0.8656    2.4560 C   0  0  0  0  0  0  0  0  0  0  0  0
    0.3044    2.2015    3.1943 C   0  0  0  0  0  0  0  0  0  0  0  0
    0.2967    2.0158    4.6489 N   0  0  0  0  0  0  0  0  0  0  0  0
   -0.7090    2.4111    5.5217 C   0  0  0  0  0  0  0  0  0  0  0  0
   -0.7626    2.2566    6.8359 N   0  0  0  0  0  0  0  0  0  0  0  0
   -1.9326    2.8856    7.1034 C   0  0  0  0  0  0  0  0  0  0  0  0
   -2.4748    2.9850    8.4765 C   0  0  0  0  0  0  0  0  0  0  0  0
   -2.9050    4.3132    9.0488 C   0  0  0  0  0  0  0  0  0  0  0  0
   -1.6558    3.6434    9.5622 C   0  0  0  0  0  0  0  0  0  0  0  0
   -2.6082    3.3390    6.0544 N   0  0  0  0  0  0  0  0  0  0  0  0
   -1.7722    3.0468    4.9728 O   0  0  0  0  0  0  0  0  0  0  0  0
    1.5124    1.3265    5.0770 C   0  0  0  0  0  0  0  0  0  0  0  0
    1.6765   -0.0291    4.3830 C   0  0  0  0  0  0  0  0  0  0  0  0
    3.0151    0.7351    2.3168 C   0  0  0  0  0  0  0  0  0  0  0  0
    5.2651   -0.7058    1.4268 N   0  0  0  0  0  0  0  0  0  0  0  0
    6.3720   -1.1686    0.8553 C   0  0  0  0  0  0  0  0  0  0  0  0
    6.4735   -1.7207   -0.3530 N   0  0  0  0  0  0  0  0  0  0  0  0
    5.3904   -2.3186   -2.0249 H   0  0  0  0  0  0  0  0  0  0  0  0
    3.1716   -1.5039   -1.0837 H   0  0  0  0  0  0  0  0  0  0  0  0
    1.2155   -1.5311    1.5093 H   0  0  0  0  0  0  0  0  0  0  0  0
    2.6252   -1.8759    2.6099 H   0  0  0  0  0  0  0  0  0  0  0  0
    0.4500    1.0758    1.3838 H   0  0  0  0  0  0  0  0  0  0  0  0
   -0.4406    0.2437    2.6327 H   0  0  0  0  0  0  0  0  0  0  0  0
    1.1179    2.8761    2.9208 H   0  0  0  0  0  0  0  0  0  0  0  0
   -0.6137    2.6793    2.8577 H   0  0  0  0  0  0  0  0  0  0  0  0
   -3.0190    2.0849    8.7349 H   0  0  0  0  0  0  0  0  0  0  0  0
   -2.7847    5.1931    8.4228 H   0  0  0  0  0  0  0  0  0  0  0  0
   -3.7847    4.3051    9.6808 H   0  0  0  0  0  0  0  0  0  0  0  0
   -1.6917    3.2028   10.5584 H   0  0  0  0  0  0  0  0  0  0  0  0
   -0.6999    4.0803    9.2810 H   0  0  0  0  0  0  0  0  0  0  0  0
    2.3776    1.9707    4.8928 H   0  0  0  0  0  0  0  0  0  0  0  0
    1.4713    1.1473    6.1517 H   0  0  0  0  0  0  0  0  0  0  0  0
    0.8855   -0.7204    4.6801 H   0  0  0  0  0  0  0  0  0  0  0  0
    2.6152   -0.4521    4.7383 H   0  0  0  0  0  0  0  0  0  0  0  0
    3.8638    0.5947    2.9883 H   0  0  0  0  0  0  0  0  0  0  0  0
    2.9316    1.7627    1.9597 H   0  0  0  0  0  0  0  0  0  0  0  0
    7.2819   -1.0644    1.4189 H   0  0  0  0  0  0  0  0  0  0  0  0
  1 23  2  0
  1  2  1  0
  1 24  1  0
  2  3  2  0
  2 25  1  0
  3  4  1  0
  3 21  1  0
  4 20  1  0
  4  5  1  0
  5  6  1  0
  5 26  1  0
  5 27  1  0
  6 19  1  0
  6  7  1  0
  6 20  1  0
  7  8  1  0
  7 28  1  0
  7 29  1  0
  8  9  1  0
  8 30  1  0
  8 31  1  0
  9 10  1  0
  9 18  1  0
 10 17  1  0
 10 11  2  0
 11 12  1  0
 12 13  1  0
 12 16  2  0
 13 15  1  0
 13 14  1  0
 13 32  1  0
 14 15  1  0
 14 33  1  0
 14 34  1  0
 15 35  1  0
 15 36  1  0
 16 17  1  0
 18 19  1  0
 18 37  1  0
 18 38  1  0
 19 39  1  0
 19 40  1  0
 20 41  1  0
 20 42  1  0
 21 22  2  0
 22 23  1  0
 22 43  1  0
M  END
>  <i_m_ct_stereo_status>  (256) 
1

>  <s_m_source_file>  (256) 
/var/tmp/pbs.5076255.sched01/tmprva83imr/861x3d95ot.sdf

>  <i_m_source_file_index>  (256) 
16

>  <i_lp_mmshare_version>  (256) 
48012

>  <i_f3d_flags>  (256) 
0

>  <s_epik_input>  (256) 
bjFbY0hdbltjSF1bY0hdYzFOKFtDSDJdMilbQ0gyXUMyM1tDSDJdW0NIMl1OKFtDSDJdW0NIMl0zKWM0bmMobm80KVtDSF01W0NIMl1bQ0gyXTU=

>  <s_epik_cmdline>  (256) 
J2VwaWtfcHl0aG9uJywgJy1waHQnLCAnMi4wJywgJy1waCcsICc3LjAnLCAnLXRuJywgJzgnLCAnLW1hJywgJzIwMCcsICctaW1hZScsICc8aW5maWxlLm1hZT4nLCAnLW9tYWUnLCAnPG91dGZpbGUubWFlPic=

>  <r_lp_tautomer_probability>  (256) 
1

>  <r_epik_Ionization_Penalty>  (256) 
0.144086

>  <r_epik_Ionization_Penalty_Charging>  (256) 
0

>  <r_epik_Ionization_Penalty_Neutral>  (256) 
0.144086

>  <r_epik_State_Penalty>  (256) 
0.131929

>  <r_epik_Charging_Adjusted_Penalty>  (256) 
0.131929

>  <i_epik_Tot_Q>  (256) 
0

>  <i_epik_Tot_abs_Q>  (256) 
0

>  <s_lp_Force_Field>  (256) 
OPLS3e

>  <r_lp_Energy>  (256) 
31.9661

>  <b_lp_Chiralities_Consistent>  (256) 
1

>  <s_lp_Variant>  (256) 
74:0-1

>  <s_i_glide_gridfile>  (256) 
pfpi4k_grid

>  <i_i_glide_lignum>  (256) 
16

>  <i_i_glide_rotatable_bonds>  (256) 
3

>  <r_i_docking_score>  (256) 
-3.33945

>  <r_i_glide_ligand_efficiency>  (256) 
-0.145193

>  <r_i_glide_ligand_efficiency_sa>  (256) 
-0.412911

>  <r_i_glide_ligand_efficiency_ln>  (256) 
-0.807509

>  <r_i_glide_gscore>  (256) 
-3.33945

>  <r_i_glide_lipo>  (256) 
-0.213997

>  <r_i_glide_hbond>  (256) 
-0.0917847

>  <r_i_glide_metal>  (256) 
-0

>  <r_i_glide_rewards>  (256) 
-1.45681

>  <r_i_glide_evdw>  (256) 
-28.0913

>  <r_i_glide_ecoul>  (256) 
-4.49264

>  <r_i_glide_erotb>  (256) 
0.5706

>  <r_i_glide_esite>  (256) 
-0.0689921

>  <r_i_glide_emodel>  (256) 
-38.1677

>  <r_i_glide_energy>  (256) 
-32.5839

>  <r_i_glide_einternal>  (256) 
2.47284

>  <r_i_glide_intrahb_reward>  (256) 
-0

>  <i_i_glide_confnum>  (256) 
5

>  <i_i_glide_posenum>  (256) 
15

>  <r_i_glide_eff_state_penalty>  (256) 
0

>  <ligand_id>  (256) 
74

>  <original_smiles>  (256) 
c1cc(N2CC3(CCN(c4nc(C5CC5)no4)CC3)C2)ncn1

>  <smiles>  (256) 
[H]c1nc([H])c([H])c(N2C([H])([H])C3(C2([H])[H])C([H])([H])C([H])([H])N(c2nc(C4([H])C([H])([H])C4([H])[H])no2)C([H])([H])C3([H])[H])n1

$$$$
74:0:1
     RDKit          3D

 43 47  0  0  1  0  0  0  0  0999 V2000
    5.2809   -1.7953   -0.9557 C   0  0  0  0  0  0  0  0  0  0  0  0
    4.2520   -1.1225   -0.2817 C   0  0  0  0  0  0  0  0  0  0  0  0
    4.5358   -0.6003    0.9976 C   0  0  0  0  0  0  0  0  0  0  0  0
    3.6316    0.2006    1.7243 N   0  0  0  0  0  0  0  0  0  0  0  0
    2.2161    0.0199    1.4757 C   0  0  0  0  0  0  0  0  0  0  0  0
    2.0034    0.3046    2.9566 C   0  0  0  0  0  0  0  0  0  0  0  0
    1.6488    1.7554    3.2827 C   0  0  0  0  0  0  0  0  0  0  0  0
    1.6324    1.9839    4.7971 C   0  0  0  0  0  0  0  0  0  0  0  0
    0.6746    1.1046    5.4648 N   0  0  0  0  0  0  0  0  0  0  0  0
   -0.3632    1.5736    6.2550 C   0  0  0  0  0  0  0  0  0  0  0  0
   -0.5579    2.7902    6.7366 N   0  0  0  0  0  0  0  0  0  0  0  0
   -1.6910    2.5814    7.4551 C   0  0  0  0  0  0  0  0  0  0  0  0
   -2.3515    3.6694    8.2207 C   0  0  0  0  0  0  0  0  0  0  0  0
   -1.6102    4.3738    9.3357 C   0  0  0  0  0  0  0  0  0  0  0  0
   -2.7694    3.4633    9.6588 C   0  0  0  0  0  0  0  0  0  0  0  0
   -2.2116    1.3592    7.3921 N   0  0  0  0  0  0  0  0  0  0  0  0
   -1.3026    0.6599    6.5972 O   0  0  0  0  0  0  0  0  0  0  0  0
    0.9694   -0.3017    5.1714 C   0  0  0  0  0  0  0  0  0  0  0  0
    0.9881   -0.5811    3.6697 C   0  0  0  0  0  0  0  0  0  0  0  0
    3.4810   -0.0762    3.1408 C   0  0  0  0  0  0  0  0  0  0  0  0
    5.7589   -0.7950    1.5353 N   0  0  0  0  0  0  0  0  0  0  0  0
    6.6681   -1.4417    0.8135 C   0  0  0  0  0  0  0  0  0  0  0  0
    6.5098   -1.9223   -0.4192 N   0  0  0  0  0  0  0  0  0  0  0  0
    5.1260   -2.2100   -1.9420 H   0  0  0  0  0  0  0  0  0  0  0  0
    3.2821   -0.9981   -0.7445 H   0  0  0  0  0  0  0  0  0  0  0  0
    1.7765    0.7719    0.8151 H   0  0  0  0  0  0  0  0  0  0  0  0
    1.9462   -1.0024    1.2054 H   0  0  0  0  0  0  0  0  0  0  0  0
    2.3878    2.4333    2.8514 H   0  0  0  0  0  0  0  0  0  0  0  0
    0.6901    2.0347    2.8366 H   0  0  0  0  0  0  0  0  0  0  0  0
    2.6242    1.8248    5.2267 H   0  0  0  0  0  0  0  0  0  0  0  0
    1.3554    3.0229    4.9819 H   0  0  0  0  0  0  0  0  0  0  0  0
   -2.9888    4.2590    7.5714 H   0  0  0  0  0  0  0  0  0  0  0  0
   -0.6119    4.0180    9.5827 H   0  0  0  0  0  0  0  0  0  0  0  0
   -1.7605    5.4479    9.4413 H   0  0  0  0  0  0  0  0  0  0  0  0
   -3.7072    3.9192    9.9695 H   0  0  0  0  0  0  0  0  0  0  0  0
   -2.5423    2.5072   10.1252 H   0  0  0  0  0  0  0  0  0  0  0  0
    1.9316   -0.5570    5.6151 H   0  0  0  0  0  0  0  0  0  0  0  0
    0.2332   -0.9621    5.6287 H   0  0  0  0  0  0  0  0  0  0  0  0
   -0.0067   -0.4543    3.2396 H   0  0  0  0  0  0  0  0  0  0  0  0
    1.2492   -1.6314    3.5326 H   0  0  0  0  0  0  0  0  0  0  0  0
    3.6334   -1.1239    3.3950 H   0  0  0  0  0  0  0  0  0  0  0  0
    4.0478    0.5959    3.7864 H   0  0  0  0  0  0  0  0  0  0  0  0
    7.6468   -1.5303    1.2551 H   0  0  0  0  0  0  0  0  0  0  0  0
  1 23  2  0
  1  2  1  0
  1 24  1  0
  2  3  2  0
  2 25  1  0
  3  4  1  0
  3 21  1  0
  4 20  1  0
  4  5  1  0
  5  6  1  0
  5 26  1  0
  5 27  1  0
  6 19  1  0
  6  7  1  0
  6 20  1  0
  7  8  1  0
  7 28  1  0
  7 29  1  0
  8  9  1  0
  8 30  1  0
  8 31  1  0
  9 10  1  0
  9 18  1  0
 10 17  1  0
 10 11  2  0
 11 12  1  0
 12 13  1  0
 12 16  2  0
 13 15  1  0
 13 14  1  0
 13 32  1  0
 14 15  1  0
 14 33  1  0
 14 34  1  0
 15 35  1  0
 15 36  1  0
 16 17  1  0
 18 19  1  0
 18 37  1  0
 18 38  1  0
 19 39  1  0
 19 40  1  0
 20 41  1  0
 20 42  1  0
 21 22  2  0
 22 23  1  0
 22 43  1  0
M  END
>  <i_m_ct_stereo_status>  (257) 
1

>  <s_m_source_file>  (257) 
/var/tmp/pbs.5076255.sched01/tmprva83imr/861x3d95ot.sdf

>  <i_m_source_file_index>  (257) 
16

>  <i_lp_mmshare_version>  (257) 
48012

>  <i_f3d_flags>  (257) 
0

>  <s_epik_input>  (257) 
bjFbY0hdbltjSF1bY0hdYzFOKFtDSDJdMilbQ0gyXUMyM1tDSDJdW0NIMl1OKFtDSDJdW0NIMl0zKWM0bmMobm80KVtDSF01W0NIMl1bQ0gyXTU=

>  <s_epik_cmdline>  (257) 
J2VwaWtfcHl0aG9uJywgJy1waHQnLCAnMi4wJywgJy1waCcsICc3LjAnLCAnLXRuJywgJzgnLCAnLW1hJywgJzIwMCcsICctaW1hZScsICc8aW5maWxlLm1hZT4nLCAnLW9tYWUnLCAnPG91dGZpbGUubWFlPic=

>  <r_lp_tautomer_probability>  (257) 
1

>  <r_epik_Ionization_Penalty>  (257) 
0.144086

>  <r_epik_Ionization_Penalty_Charging>  (257) 
0

>  <r_epik_Ionization_Penalty_Neutral>  (257) 
0.144086

>  <r_epik_State_Penalty>  (257) 
0.131929

>  <r_epik_Charging_Adjusted_Penalty>  (257) 
0.131929

>  <i_epik_Tot_Q>  (257) 
0

>  <i_epik_Tot_abs_Q>  (257) 
0

>  <s_lp_Force_Field>  (257) 
OPLS3e

>  <r_lp_Energy>  (257) 
31.9661

>  <b_lp_Chiralities_Consistent>  (257) 
1

>  <s_lp_Variant>  (257) 
74:0-1

>  <s_i_glide_gridfile>  (257) 
pfpi4k_grid

>  <i_i_glide_lignum>  (257) 
16

>  <i_i_glide_rotatable_bonds>  (257) 
3

>  <r_i_docking_score>  (257) 
-3.29925

>  <r_i_glide_ligand_efficiency>  (257) 
-0.143446

>  <r_i_glide_ligand_efficiency_sa>  (257) 
-0.407941

>  <r_i_glide_ligand_efficiency_ln>  (257) 
-0.797789

>  <r_i_glide_gscore>  (257) 
-3.29925

>  <r_i_glide_lipo>  (257) 
-0.176658

>  <r_i_glide_hbond>  (257) 
-0.0837721

>  <r_i_glide_metal>  (257) 
-0

>  <r_i_glide_rewards>  (257) 
-1.36061

>  <r_i_glide_evdw>  (257) 
-24.464

>  <r_i_glide_ecoul>  (257) 
-5.77864

>  <r_i_glide_erotb>  (257) 
0.5706

>  <r_i_glide_esite>  (257) 
-0.158817

>  <r_i_glide_emodel>  (257) 
-36.6723

>  <r_i_glide_energy>  (257) 
-30.2426

>  <r_i_glide_einternal>  (257) 
0.616456

>  <r_i_glide_intrahb_reward>  (257) 
-0

>  <i_i_glide_confnum>  (257) 
4

>  <i_i_glide_posenum>  (257) 
5

>  <r_i_glide_eff_state_penalty>  (257) 
0

>  <ligand_id>  (257) 
74

>  <original_smiles>  (257) 
c1cc(N2CC3(CCN(c4nc(C5CC5)no4)CC3)C2)ncn1

>  <smiles>  (257) 
[H]c1nc([H])c([H])c(N2C([H])([H])C3(C2([H])[H])C([H])([H])C([H])([H])N(c2nc(C4([H])C([H])([H])C4([H])[H])no2)C([H])([H])C3([H])[H])n1

$$$$
74:0:2
     RDKit          3D

 43 47  0  0  1  0  0  0  0  0999 V2000
    5.0174   -1.8812   -0.8251 C   0  0  0  0  0  0  0  0  0  0  0  0
    3.9566   -1.1857   -0.2299 C   0  0  0  0  0  0  0  0  0  0  0  0
    4.2120   -0.4834    0.9652 C   0  0  0  0  0  0  0  0  0  0  0  0
    3.2441    0.3418    1.5795 N   0  0  0  0  0  0  0  0  0  0  0  0
    1.8918   -0.1656    1.6790 C   0  0  0  0  0  0  0  0  0  0  0  0
    1.8095    0.5808    3.0122 C   0  0  0  0  0  0  0  0  0  0  0  0
    1.1722    1.9702    2.9332 C   0  0  0  0  0  0  0  0  0  0  0  0
    1.3039    2.7113    4.2644 C   0  0  0  0  0  0  0  0  0  0  0  0
    0.6969    1.9648    5.3675 N   0  0  0  0  0  0  0  0  0  0  0  0
   -0.3094    2.4149    6.2120 C   0  0  0  0  0  0  0  0  0  0  0  0
   -0.7217    1.8887    7.3523 N   0  0  0  0  0  0  0  0  0  0  0  0
   -1.6692    2.7990    7.6977 C   0  0  0  0  0  0  0  0  0  0  0  0
   -2.4417    2.7067    8.9536 C   0  0  0  0  0  0  0  0  0  0  0  0
   -2.4474    3.8341    9.9636 C   0  0  0  0  0  0  0  0  0  0  0  0
   -1.7208    2.5469   10.2704 C   0  0  0  0  0  0  0  0  0  0  0  0
   -1.9325    3.7389    6.8029 N   0  0  0  0  0  0  0  0  0  0  0  0
   -0.9714    3.5277    5.8122 O   0  0  0  0  0  0  0  0  0  0  0  0
    1.2818    0.6315    5.4743 C   0  0  0  0  0  0  0  0  0  0  0  0
    1.1416   -0.1572    4.1694 C   0  0  0  0  0  0  0  0  0  0  0  0
    3.3432    0.5474    3.0129 C   0  0  0  0  0  0  0  0  0  0  0  0
    5.4493   -0.5321    1.5035 N   0  0  0  0  0  0  0  0  0  0  0  0
    6.3901   -1.2147    0.8622 C   0  0  0  0  0  0  0  0  0  0  0  0
    6.2546   -1.8671   -0.2904 N   0  0  0  0  0  0  0  0  0  0  0  0
    4.8799   -2.4262   -1.7493 H   0  0  0  0  0  0  0  0  0  0  0  0
    2.9831   -1.1656   -0.6921 H   0  0  0  0  0  0  0  0  0  0  0  0
    1.2220    0.2298    0.9184 H   0  0  0  0  0  0  0  0  0  0  0  0
    1.8359   -1.2529    1.7742 H   0  0  0  0  0  0  0  0  0  0  0  0
    1.6673    2.5674    2.1636 H   0  0  0  0  0  0  0  0  0  0  0  0
    0.1249    1.9065    2.6294 H   0  0  0  0  0  0  0  0  0  0  0  0
    2.3555    2.8831    4.4979 H   0  0  0  0  0  0  0  0  0  0  0  0
    0.8445    3.6926    4.1565 H   0  0  0  0  0  0  0  0  0  0  0  0
   -3.3593    2.1549    8.7865 H   0  0  0  0  0  0  0  0  0  0  0  0
   -1.8447    4.7151    9.7489 H   0  0  0  0  0  0  0  0  0  0  0  0
   -3.3811    4.0219   10.4903 H   0  0  0  0  0  0  0  0  0  0  0  0
   -2.1653    1.8714   10.9953 H   0  0  0  0  0  0  0  0  0  0  0  0
   -0.6323    2.5751   10.2657 H   0  0  0  0  0  0  0  0  0  0  0  0
    2.3281    0.7228    5.7740 H   0  0  0  0  0  0  0  0  0  0  0  0
    0.7667    0.0757    6.2571 H   0  0  0  0  0  0  0  0  0  0  0  0
    0.0918   -0.3657    3.9453 H   0  0  0  0  0  0  0  0  0  0  0  0
    1.6250   -1.1209    4.3288 H   0  0  0  0  0  0  0  0  0  0  0  0
    3.7642   -0.3031    3.5458 H   0  0  0  0  0  0  0  0  0  0  0  0
    3.8169    1.4879    3.2899 H   0  0  0  0  0  0  0  0  0  0  0  0
    7.3749   -1.1996    1.2983 H   0  0  0  0  0  0  0  0  0  0  0  0
  1 23  2  0
  1  2  1  0
  1 24  1  0
  2  3  2  0
  2 25  1  0
  3  4  1  0
  3 21  1  0
  4 20  1  0
  4  5  1  0
  5  6  1  0
  5 26  1  0
  5 27  1  0
  6 19  1  0
  6  7  1  0
  6 20  1  0
  7  8  1  0
  7 28  1  0
  7 29  1  0
  8  9  1  0
  8 30  1  0
  8 31  1  0
  9 10  1  0
  9 18  1  0
 10 17  1  0
 10 11  2  0
 11 12  1  0
 12 13  1  0
 12 16  2  0
 13 15  1  0
 13 14  1  0
 13 32  1  0
 14 15  1  0
 14 33  1  0
 14 34  1  0
 15 35  1  0
 15 36  1  0
 16 17  1  0
 18 19  1  0
 18 37  1  0
 18 38  1  0
 19 39  1  0
 19 40  1  0
 20 41  1  0
 20 42  1  0
 21 22  2  0
 22 23  1  0
 22 43  1  0
M  END
>  <i_m_ct_stereo_status>  (258) 
1

>  <s_m_source_file>  (258) 
/var/tmp/pbs.5076255.sched01/tmprva83imr/861x3d95ot.sdf

>  <i_m_source_file_index>  (258) 
16

>  <i_lp_mmshare_version>  (258) 
48012

>  <i_f3d_flags>  (258) 
0

>  <s_epik_input>  (258) 
bjFbY0hdbltjSF1bY0hdYzFOKFtDSDJdMilbQ0gyXUMyM1tDSDJdW0NIMl1OKFtDSDJdW0NIMl0zKWM0bmMobm80KVtDSF01W0NIMl1bQ0gyXTU=

>  <s_epik_cmdline>  (258) 
J2VwaWtfcHl0aG9uJywgJy1waHQnLCAnMi4wJywgJy1waCcsICc3LjAnLCAnLXRuJywgJzgnLCAnLW1hJywgJzIwMCcsICctaW1hZScsICc8aW5maWxlLm1hZT4nLCAnLW9tYWUnLCAnPG91dGZpbGUubWFlPic=

>  <r_lp_tautomer_probability>  (258) 
1

>  <r_epik_Ionization_Penalty>  (258) 
0.144086

>  <r_epik_Ionization_Penalty_Charging>  (258) 
0

>  <r_epik_Ionization_Penalty_Neutral>  (258) 
0.144086

>  <r_epik_State_Penalty>  (258) 
0.131929

>  <r_epik_Charging_Adjusted_Penalty>  (258) 
0.131929

>  <i_epik_Tot_Q>  (258) 
0

>  <i_epik_Tot_abs_Q>  (258) 
0

>  <s_lp_Force_Field>  (258) 
OPLS3e

>  <r_lp_Energy>  (258) 
31.9661

>  <b_lp_Chiralities_Consistent>  (258) 
1

>  <s_lp_Variant>  (258) 
74:0-1

>  <s_i_glide_gridfile>  (258) 
pfpi4k_grid

>  <i_i_glide_lignum>  (258) 
16

>  <i_i_glide_rotatable_bonds>  (258) 
3

>  <r_i_docking_score>  (258) 
-3.10999

>  <r_i_glide_ligand_efficiency>  (258) 
-0.135217

>  <r_i_glide_ligand_efficiency_sa>  (258) 
-0.384539

>  <r_i_glide_ligand_efficiency_ln>  (258) 
-0.752023

>  <r_i_glide_gscore>  (258) 
-3.10999

>  <r_i_glide_lipo>  (258) 
-0.121966

>  <r_i_glide_hbond>  (258) 
-0.0417079

>  <r_i_glide_metal>  (258) 
-0

>  <r_i_glide_rewards>  (258) 
-1.51049

>  <r_i_glide_evdw>  (258) 
-24.2514

>  <r_i_glide_ecoul>  (258) 
-5.24283

>  <r_i_glide_erotb>  (258) 
0.5706

>  <r_i_glide_esite>  (258) 
-0.00742803

>  <r_i_glide_emodel>  (258) 
-35.4073

>  <r_i_glide_energy>  (258) 
-29.4942

>  <r_i_glide_einternal>  (258) 
0.738066

>  <r_i_glide_intrahb_reward>  (258) 
-0

>  <i_i_glide_confnum>  (258) 
1

>  <i_i_glide_posenum>  (258) 
21

>  <r_i_glide_eff_state_penalty>  (258) 
0

>  <ligand_id>  (258) 
74

>  <original_smiles>  (258) 
c1cc(N2CC3(CCN(c4nc(C5CC5)no4)CC3)C2)ncn1

>  <smiles>  (258) 
[H]c1nc([H])c([H])c(N2C([H])([H])C3(C2([H])[H])C([H])([H])C([H])([H])N(c2nc(C4([H])C([H])([H])C4([H])[H])no2)C([H])([H])C3([H])[H])n1

$$$$
74:1:0
     RDKit          3D

 44 48  0  0  1  0  0  0  0  0999 V2000
    7.6632   -2.7954   -1.1603 C   0  0  0  0  0  0  0  0  0  0  0  0
    6.9093   -2.5535   -0.0094 C   0  0  0  0  0  0  0  0  0  0  0  0
    5.5084   -2.6237   -0.1049 C   0  0  0  0  0  0  0  0  0  0  0  0
    4.6745   -2.5113    1.0204 N   0  0  0  0  0  0  0  0  0  0  0  0
    5.0530   -1.5523    2.0392 C   0  0  0  0  0  0  0  0  0  0  0  0
    3.5513   -1.3328    2.2364 C   0  0  0  0  0  0  0  0  0  0  0  0
    2.9087   -2.1527    3.3562 C   0  0  0  0  0  0  0  0  0  0  0  0
    1.3847   -2.0077    3.3516 C   0  0  0  0  0  0  0  0  0  0  0  0
    0.9879   -0.6131    3.5050 N   0  0  0  0  0  0  0  0  0  0  0  0
    0.1880   -0.0990    4.5152 C   0  0  0  0  0  0  0  0  0  0  0  0
    0.0380    1.1600    4.9054 N   0  0  0  0  0  0  0  0  0  0  0  0
   -0.8834    0.9915    5.8880 C   0  0  0  0  0  0  0  0  0  0  0  0
   -1.3550    2.1361    6.7114 C   0  0  0  0  0  0  0  0  0  0  0  0
   -2.7484    2.1760    7.2804 C   0  0  0  0  0  0  0  0  0  0  0  0
   -2.3770    3.0837    6.1350 C   0  0  0  0  0  0  0  0  0  0  0  0
   -1.3127   -0.2503    6.1026 N   0  0  0  0  0  0  0  0  0  0  0  0
   -0.5849   -1.0018    5.1684 O   0  0  0  0  0  0  0  0  0  0  0  0
    1.5645    0.2064    2.4485 C   0  0  0  0  0  0  0  0  0  0  0  0
    3.0916    0.1092    2.4269 C   0  0  0  0  0  0  0  0  0  0  0  0
    3.3742   -1.9024    0.8231 C   0  0  0  0  0  0  0  0  0  0  0  0
    4.9356   -2.8810   -1.2985 N   0  0  0  0  0  0  0  0  0  0  0  0
    5.6914   -3.0953   -2.3693 C   0  0  0  0  0  0  0  0  0  0  0  0
    7.0222   -3.0446   -2.3212 N   0  0  0  0  0  0  0  0  0  0  0  0
    8.7463   -2.7790   -1.2039 H   0  0  0  0  0  0  0  0  0  0  0  0
    7.3927   -2.3522    0.9401 H   0  0  0  0  0  0  0  0  0  0  0  0
    5.5483   -2.0036    2.8961 H   0  0  0  0  0  0  0  0  0  0  0  0
    5.5751   -0.6713    1.6665 H   0  0  0  0  0  0  0  0  0  0  0  0
    3.1456   -3.2070    3.2189 H   0  0  0  0  0  0  0  0  0  0  0  0
    3.3275   -1.8834    4.3286 H   0  0  0  0  0  0  0  0  0  0  0  0
    0.9601   -2.4272    2.4409 H   0  0  0  0  0  0  0  0  0  0  0  0
    1.0001   -2.6064    4.1720 H   0  0  0  0  0  0  0  0  0  0  0  0
   -0.5263    2.5589    7.2747 H   0  0  0  0  0  0  0  0  0  0  0  0
   -3.3896    1.3282    7.0614 H   0  0  0  0  0  0  0  0  0  0  0  0
   -2.8632    2.6118    8.2732 H   0  0  0  0  0  0  0  0  0  0  0  0
   -2.2704    4.1428    6.3529 H   0  0  0  0  0  0  0  0  0  0  0  0
   -2.7949    2.8476    5.1556 H   0  0  0  0  0  0  0  0  0  0  0  0
    1.1362   -0.0680    1.4818 H   0  0  0  0  0  0  0  0  0  0  0  0
    1.2987    1.2461    2.6173 H   0  0  0  0  0  0  0  0  0  0  0  0
    3.5368    0.5562    3.3201 H   0  0  0  0  0  0  0  0  0  0  0  0
    3.4296    0.7194    1.5929 H   0  0  0  0  0  0  0  0  0  0  0  0
    3.3327   -1.1362    0.0461 H   0  0  0  0  0  0  0  0  0  0  0  0
    2.5617   -2.6212    0.7227 H   0  0  0  0  0  0  0  0  0  0  0  0
    5.2379   -3.3115   -3.3234 H   0  0  0  0  0  0  0  0  0  0  0  0
    7.5953   -3.1832   -3.1735 H   0  0  0  0  0  0  0  0  0  0  0  0
  1 23  2  0
  1  2  1  0
  1 24  1  0
  2  3  2  0
  2 25  1  0
  3  4  1  0
  3 21  1  0
  4 20  1  0
  4  5  1  0
  5  6  1  0
  5 26  1  0
  5 27  1  0
  6 19  1  0
  6  7  1  0
  6 20  1  0
  7  8  1  0
  7 28  1  0
  7 29  1  0
  8  9  1  0
  8 30  1  0
  8 31  1  0
  9 10  1  0
  9 18  1  0
 10 17  1  0
 10 11  2  0
 11 12  1  0
 12 13  1  0
 12 16  2  0
 13 15  1  0
 13 14  1  0
 13 32  1  0
 14 15  1  0
 14 33  1  0
 14 34  1  0
 15 35  1  0
 15 36  1  0
 16 17  1  0
 18 19  1  0
 18 37  1  0
 18 38  1  0
 19 39  1  0
 19 40  1  0
 20 41  1  0
 20 42  1  0
 21 22  2  0
 22 23  1  0
 22 43  1  0
 23 44  1  0
M  CHG  1  23   1
M  END
>  <i_m_ct_stereo_status>  (259) 
1

>  <s_m_source_file>  (259) 
/var/tmp/pbs.5076255.sched01/tmprva83imr/861x3d95ot.sdf

>  <i_m_source_file_index>  (259) 
17

>  <i_lp_mmshare_version>  (259) 
48012

>  <i_f3d_flags>  (259) 
0

>  <s_epik_input>  (259) 
bjFbY0hdbltjSF1bY0hdYzFOKFtDSDJdMilbQ0gyXUMyM1tDSDJdW0NIMl1OKFtDSDJdW0NIMl0zKWM0bmMobm80KVtDSF01W0NIMl1bQ0gyXTU=

>  <s_epik_cmdline>  (259) 
J2VwaWtfcHl0aG9uJywgJy1waHQnLCAnMi4wJywgJy1waCcsICc3LjAnLCAnLXRuJywgJzgnLCAnLW1hJywgJzIwMCcsICctaW1hZScsICc8aW5maWxlLm1hZT4nLCAnLW9tYWUnLCAnPG91dGZpbGUubWFlPic=

>  <r_lp_tautomer_probability>  (259) 
0.999336

>  <r_epik_Ionization_Penalty>  (259) 
0.913666

>  <r_epik_Ionization_Penalty_Charging>  (259) 
0.913664

>  <r_epik_Ionization_Penalty_Neutral>  (259) 
1.88933e-06

>  <r_epik_State_Penalty>  (259) 
0.954694

>  <r_epik_Charging_Adjusted_Penalty>  (259) 
1.86836

>  <i_epik_Tot_Q>  (259) 
1

>  <i_epik_Tot_abs_Q>  (259) 
1

>  <s_lp_Force_Field>  (259) 
OPLS3e

>  <r_lp_Energy>  (259) 
35.729

>  <b_lp_Chiralities_Consistent>  (259) 
1

>  <s_lp_Variant>  (259) 
74:0-2

>  <s_i_glide_gridfile>  (259) 
pfpi4k_grid

>  <i_i_glide_lignum>  (259) 
17

>  <i_i_glide_rotatable_bonds>  (259) 
3

>  <r_i_docking_score>  (259) 
-3.8073

>  <r_i_glide_ligand_efficiency>  (259) 
-0.165535

>  <r_i_glide_ligand_efficiency_sa>  (259) 
-0.470759

>  <r_i_glide_ligand_efficiency_ln>  (259) 
-0.92064

>  <r_i_glide_gscore>  (259) 
-3.8073

>  <r_i_glide_lipo>  (259) 
-0.29385

>  <r_i_glide_hbond>  (259) 
0

>  <r_i_glide_metal>  (259) 
-0

>  <r_i_glide_rewards>  (259) 
-1.54804

>  <r_i_glide_evdw>  (259) 
-24.4884

>  <r_i_glide_ecoul>  (259) 
-7.45763

>  <r_i_glide_erotb>  (259) 
0.567378

>  <r_i_glide_esite>  (259) 
-0.189726

>  <r_i_glide_emodel>  (259) 
-39.2209

>  <r_i_glide_energy>  (259) 
-31.946

>  <r_i_glide_einternal>  (259) 
1.65732

>  <r_i_glide_intrahb_reward>  (259) 
-0

>  <i_i_glide_confnum>  (259) 
5

>  <i_i_glide_posenum>  (259) 
19

>  <r_i_glide_eff_state_penalty>  (259) 
0

>  <ligand_id>  (259) 
74

>  <original_smiles>  (259) 
c1cc(N2CC3(CCN(c4nc(C5CC5)no4)CC3)C2)ncn1

>  <smiles>  (259) 
[H]c1c(N2C([H])([H])C3(C2([H])[H])C([H])([H])C([H])([H])N(c2nc(C4([H])C([H])([H])C4([H])[H])no2)C([H])([H])C3([H])[H])nc([H])[n+]([H])c1[H]

$$$$
74:1:1
     RDKit          3D

 44 48  0  0  1  0  0  0  0  0999 V2000
   -1.3003    4.4052    8.1013 C   0  0  0  0  0  0  0  0  0  0  0  0
   -0.7937    3.5225    7.1303 C   0  0  0  0  0  0  0  0  0  0  0  0
   -1.2481    2.1863    7.1444 C   0  0  0  0  0  0  0  0  0  0  0  0
   -0.8468    1.1419    6.2787 N   0  0  0  0  0  0  0  0  0  0  0  0
   -1.2496    1.3454    4.8896 C   0  0  0  0  0  0  0  0  0  0  0  0
    0.1006    0.7361    4.5024 C   0  0  0  0  0  0  0  0  0  0  0  0
    0.0912   -0.7629    4.2277 C   0  0  0  0  0  0  0  0  0  0  0  0
    1.5037   -1.3111    4.0310 C   0  0  0  0  0  0  0  0  0  0  0  0
    2.1871   -0.6445    2.9179 N   0  0  0  0  0  0  0  0  0  0  0  0
    2.7312   -1.2552    1.7976 C   0  0  0  0  0  0  0  0  0  0  0  0
    3.4700   -0.7180    0.8282 N   0  0  0  0  0  0  0  0  0  0  0  0
    3.6741   -1.8143    0.0633 C   0  0  0  0  0  0  0  0  0  0  0  0
    4.4652   -1.7509   -1.1956 C   0  0  0  0  0  0  0  0  0  0  0  0
    3.8815   -1.0641   -2.4085 C   0  0  0  0  0  0  0  0  0  0  0  0
    4.0845   -2.5554   -2.4123 C   0  0  0  0  0  0  0  0  0  0  0  0
    3.2001   -2.9797    0.5269 N   0  0  0  0  0  0  0  0  0  0  0  0
    2.5377   -2.5988    1.7003 O   0  0  0  0  0  0  0  0  0  0  0  0
    2.2371    0.7965    3.1536 C   0  0  0  0  0  0  0  0  0  0  0  0
    0.8411    1.3896    3.3334 C   0  0  0  0  0  0  0  0  0  0  0  0
    0.5669    1.1411    5.9032 C   0  0  0  0  0  0  0  0  0  0  0  0
   -2.1389    1.8255    8.0805 N   0  0  0  0  0  0  0  0  0  0  0  0
   -2.5887    2.6935    8.9916 C   0  0  0  0  0  0  0  0  0  0  0  0
   -2.1950    3.9668    9.0108 N   0  0  0  0  0  0  0  0  0  0  0  0
   -0.9979    5.4391    8.1661 H   0  0  0  0  0  0  0  0  0  0  0  0
   -0.0738    3.8596    6.3942 H   0  0  0  0  0  0  0  0  0  0  0  0
   -2.1073    0.7368    4.5877 H   0  0  0  0  0  0  0  0  0  0  0  0
   -1.3511    2.3923    4.5930 H   0  0  0  0  0  0  0  0  0  0  0  0
   -0.3607   -1.2969    5.0658 H   0  0  0  0  0  0  0  0  0  0  0  0
   -0.5279   -0.9865    3.3615 H   0  0  0  0  0  0  0  0  0  0  0  0
    2.0941   -1.2013    4.9405 H   0  0  0  0  0  0  0  0  0  0  0  0
    1.4246   -2.3792    3.8454 H   0  0  0  0  0  0  0  0  0  0  0  0
    5.5084   -1.5771   -0.9558 H   0  0  0  0  0  0  0  0  0  0  0  0
    2.8585   -0.6991   -2.3421 H   0  0  0  0  0  0  0  0  0  0  0  0
    4.5507   -0.4590   -3.0178 H   0  0  0  0  0  0  0  0  0  0  0  0
    4.9076   -2.9687   -2.9924 H   0  0  0  0  0  0  0  0  0  0  0  0
    3.2065   -3.1927   -2.3288 H   0  0  0  0  0  0  0  0  0  0  0  0
    2.8761    1.0071    4.0147 H   0  0  0  0  0  0  0  0  0  0  0  0
    2.7037    1.2814    2.2943 H   0  0  0  0  0  0  0  0  0  0  0  0
    0.2655    1.3173    2.4066 H   0  0  0  0  0  0  0  0  0  0  0  0
    0.9764    2.4536    3.5120 H   0  0  0  0  0  0  0  0  0  0  0  0
    1.0688    2.1054    5.9145 H   0  0  0  0  0  0  0  0  0  0  0  0
    1.1531    0.3766    6.4139 H   0  0  0  0  0  0  0  0  0  0  0  0
   -3.2947    2.3713    9.7319 H   0  0  0  0  0  0  0  0  0  0  0  0
   -2.5593    4.6069    9.7152 H   0  0  0  0  0  0  0  0  0  0  0  0
  1 23  2  0
  1  2  1  0
  1 24  1  0
  2  3  2  0
  2 25  1  0
  3  4  1  0
  3 21  1  0
  4 20  1  0
  4  5  1  0
  5  6  1  0
  5 26  1  0
  5 27  1  0
  6 19  1  0
  6  7  1  0
  6 20  1  0
  7  8  1  0
  7 28  1  0
  7 29  1  0
  8  9  1  0
  8 30  1  0
  8 31  1  0
  9 10  1  0
  9 18  1  0
 10 17  1  0
 10 11  2  0
 11 12  1  0
 12 13  1  0
 12 16  2  0
 13 15  1  0
 13 14  1  0
 13 32  1  0
 14 15  1  0
 14 33  1  0
 14 34  1  0
 15 35  1  0
 15 36  1  0
 16 17  1  0
 18 19  1  0
 18 37  1  0
 18 38  1  0
 19 39  1  0
 19 40  1  0
 20 41  1  0
 20 42  1  0
 21 22  2  0
 22 23  1  0
 22 43  1  0
 23 44  1  0
M  CHG  1  23   1
M  END
>  <i_m_ct_stereo_status>  (260) 
1

>  <s_m_source_file>  (260) 
/var/tmp/pbs.5076255.sched01/tmprva83imr/861x3d95ot.sdf

>  <i_m_source_file_index>  (260) 
17

>  <i_lp_mmshare_version>  (260) 
48012

>  <i_f3d_flags>  (260) 
0

>  <s_epik_input>  (260) 
bjFbY0hdbltjSF1bY0hdYzFOKFtDSDJdMilbQ0gyXUMyM1tDSDJdW0NIMl1OKFtDSDJdW0NIMl0zKWM0bmMobm80KVtDSF01W0NIMl1bQ0gyXTU=

>  <s_epik_cmdline>  (260) 
J2VwaWtfcHl0aG9uJywgJy1waHQnLCAnMi4wJywgJy1waCcsICc3LjAnLCAnLXRuJywgJzgnLCAnLW1hJywgJzIwMCcsICctaW1hZScsICc8aW5maWxlLm1hZT4nLCAnLW9tYWUnLCAnPG91dGZpbGUubWFlPic=

>  <r_lp_tautomer_probability>  (260) 
0.999336

>  <r_epik_Ionization_Penalty>  (260) 
0.913666

>  <r_epik_Ionization_Penalty_Charging>  (260) 
0.913664

>  <r_epik_Ionization_Penalty_Neutral>  (260) 
1.88933e-06

>  <r_epik_State_Penalty>  (260) 
0.954694

>  <r_epik_Charging_Adjusted_Penalty>  (260) 
1.86836

>  <i_epik_Tot_Q>  (260) 
1

>  <i_epik_Tot_abs_Q>  (260) 
1

>  <s_lp_Force_Field>  (260) 
OPLS3e

>  <r_lp_Energy>  (260) 
35.729

>  <b_lp_Chiralities_Consistent>  (260) 
1

>  <s_lp_Variant>  (260) 
74:0-2

>  <s_i_glide_gridfile>  (260) 
pfpi4k_grid

>  <i_i_glide_lignum>  (260) 
17

>  <i_i_glide_rotatable_bonds>  (260) 
3

>  <r_i_docking_score>  (260) 
-2.7711

>  <r_i_glide_ligand_efficiency>  (260) 
-0.120483

>  <r_i_glide_ligand_efficiency_sa>  (260) 
-0.342636

>  <r_i_glide_ligand_efficiency_ln>  (260) 
-0.670077

>  <r_i_glide_gscore>  (260) 
-2.7711

>  <r_i_glide_lipo>  (260) 
-0.0307188

>  <r_i_glide_hbond>  (260) 
0

>  <r_i_glide_metal>  (260) 
-0

>  <r_i_glide_rewards>  (260) 
-1.27243

>  <r_i_glide_evdw>  (260) 
-24.4674

>  <r_i_glide_ecoul>  (260) 
-4.34999

>  <r_i_glide_erotb>  (260) 
0.567378

>  <r_i_glide_esite>  (260) 
-0.159465

>  <r_i_glide_emodel>  (260) 
-33.4725

>  <r_i_glide_energy>  (260) 
-28.8174

>  <r_i_glide_einternal>  (260) 
2.64783

>  <r_i_glide_intrahb_reward>  (260) 
-0

>  <i_i_glide_confnum>  (260) 
2

>  <i_i_glide_posenum>  (260) 
23

>  <r_i_glide_eff_state_penalty>  (260) 
0

>  <ligand_id>  (260) 
74

>  <original_smiles>  (260) 
c1cc(N2CC3(CCN(c4nc(C5CC5)no4)CC3)C2)ncn1

>  <smiles>  (260) 
[H]c1c(N2C([H])([H])C3(C2([H])[H])C([H])([H])C([H])([H])N(c2nc(C4([H])C([H])([H])C4([H])[H])no2)C([H])([H])C3([H])[H])nc([H])[n+]([H])c1[H]

$$$$
74:1:2
     RDKit          3D

 44 48  0  0  1  0  0  0  0  0999 V2000
   -0.9407    3.4217    9.0706 C   0  0  0  0  0  0  0  0  0  0  0  0
   -0.3882    2.4689    8.2050 C   0  0  0  0  0  0  0  0  0  0  0  0
   -1.2465    1.7857    7.3199 C   0  0  0  0  0  0  0  0  0  0  0  0
   -0.8012    0.7733    6.4387 N   0  0  0  0  0  0  0  0  0  0  0  0
   -1.3452    0.7942    5.0858 C   0  0  0  0  0  0  0  0  0  0  0  0
    0.0489    0.3639    4.6193 C   0  0  0  0  0  0  0  0  0  0  0  0
    0.2462   -1.1380    4.4311 C   0  0  0  0  0  0  0  0  0  0  0  0
    1.7083   -1.4812    4.1383 C   0  0  0  0  0  0  0  0  0  0  0  0
    2.2065   -0.7800    2.9504 N   0  0  0  0  0  0  0  0  0  0  0  0
    2.7603   -1.3747    1.8267 C   0  0  0  0  0  0  0  0  0  0  0  0
    3.4323   -0.7989    0.8388 N   0  0  0  0  0  0  0  0  0  0  0  0
    3.6802   -1.8869    0.0647 C   0  0  0  0  0  0  0  0  0  0  0  0
    4.4330   -1.7802   -1.2111 C   0  0  0  0  0  0  0  0  0  0  0  0
    3.8191   -1.0635   -2.3943 C   0  0  0  0  0  0  0  0  0  0  0  0
    4.0154   -2.5578   -2.4399 C   0  0  0  0  0  0  0  0  0  0  0  0
    3.2799   -3.0611    0.5397 N   0  0  0  0  0  0  0  0  0  0  0  0
    2.6321   -2.7173    1.7314 O   0  0  0  0  0  0  0  0  0  0  0  0
    2.0581    0.6641    3.1064 C   0  0  0  0  0  0  0  0  0  0  0  0
    0.6009    1.0592    3.3706 C   0  0  0  0  0  0  0  0  0  0  0  0
    0.5624    0.9139    5.9508 C   0  0  0  0  0  0  0  0  0  0  0  0
   -2.5664    2.0526    7.3603 N   0  0  0  0  0  0  0  0  0  0  0  0
   -3.0493    2.9621    8.2067 C   0  0  0  0  0  0  0  0  0  0  0  0
   -2.2748    3.6464    9.0573 N   0  0  0  0  0  0  0  0  0  0  0  0
   -0.3574    3.9752    9.7918 H   0  0  0  0  0  0  0  0  0  0  0  0
    0.6771    2.2596    8.2263 H   0  0  0  0  0  0  0  0  0  0  0  0
   -2.1211    0.0497    4.8972 H   0  0  0  0  0  0  0  0  0  0  0  0
   -1.6258    1.7900    4.7364 H   0  0  0  0  0  0  0  0  0  0  0  0
   -0.0496   -1.6703    5.3362 H   0  0  0  0  0  0  0  0  0  0  0  0
   -0.4039   -1.5154    3.6473 H   0  0  0  0  0  0  0  0  0  0  0  0
    2.3405   -1.2279    4.9893 H   0  0  0  0  0  0  0  0  0  0  0  0
    1.7843   -2.5581    4.0099 H   0  0  0  0  0  0  0  0  0  0  0  0
    5.4876   -1.6225   -1.0102 H   0  0  0  0  0  0  0  0  0  0  0  0
    2.7979   -0.6996   -2.2963 H   0  0  0  0  0  0  0  0  0  0  0  0
    4.4741   -0.4441   -3.0075 H   0  0  0  0  0  0  0  0  0  0  0  0
    4.8164   -2.9566   -3.0621 H   0  0  0  0  0  0  0  0  0  0  0  0
    3.1351   -3.1909   -2.3480 H   0  0  0  0  0  0  0  0  0  0  0  0
    2.7177    1.0138    3.9038 H   0  0  0  0  0  0  0  0  0  0  0  0
    2.3805    1.1597    2.1890 H   0  0  0  0  0  0  0  0  0  0  0  0
   -0.0210    0.8486    2.4975 H   0  0  0  0  0  0  0  0  0  0  0  0
    0.5860    2.1413    3.4986 H   0  0  0  0  0  0  0  0  0  0  0  0
    0.9010    1.9472    5.8758 H   0  0  0  0  0  0  0  0  0  0  0  0
    1.2860    0.2755    6.4600 H   0  0  0  0  0  0  0  0  0  0  0  0
   -4.1081    3.1658    8.2249 H   0  0  0  0  0  0  0  0  0  0  0  0
   -2.6740    4.3278    9.6986 H   0  0  0  0  0  0  0  0  0  0  0  0
  1 23  2  0
  1  2  1  0
  1 24  1  0
  2  3  2  0
  2 25  1  0
  3  4  1  0
  3 21  1  0
  4 20  1  0
  4  5  1  0
  5  6  1  0
  5 26  1  0
  5 27  1  0
  6 19  1  0
  6  7  1  0
  6 20  1  0
  7  8  1  0
  7 28  1  0
  7 29  1  0
  8  9  1  0
  8 30  1  0
  8 31  1  0
  9 10  1  0
  9 18  1  0
 10 17  1  0
 10 11  2  0
 11 12  1  0
 12 13  1  0
 12 16  2  0
 13 15  1  0
 13 14  1  0
 13 32  1  0
 14 15  1  0
 14 33  1  0
 14 34  1  0
 15 35  1  0
 15 36  1  0
 16 17  1  0
 18 19  1  0
 18 37  1  0
 18 38  1  0
 19 39  1  0
 19 40  1  0
 20 41  1  0
 20 42  1  0
 21 22  2  0
 22 23  1  0
 22 43  1  0
 23 44  1  0
M  CHG  1  23   1
M  END
>  <i_m_ct_stereo_status>  (261) 
1

>  <s_m_source_file>  (261) 
/var/tmp/pbs.5076255.sched01/tmprva83imr/861x3d95ot.sdf

>  <i_m_source_file_index>  (261) 
17

>  <i_lp_mmshare_version>  (261) 
48012

>  <i_f3d_flags>  (261) 
0

>  <s_epik_input>  (261) 
bjFbY0hdbltjSF1bY0hdYzFOKFtDSDJdMilbQ0gyXUMyM1tDSDJdW0NIMl1OKFtDSDJdW0NIMl0zKWM0bmMobm80KVtDSF01W0NIMl1bQ0gyXTU=

>  <s_epik_cmdline>  (261) 
J2VwaWtfcHl0aG9uJywgJy1waHQnLCAnMi4wJywgJy1waCcsICc3LjAnLCAnLXRuJywgJzgnLCAnLW1hJywgJzIwMCcsICctaW1hZScsICc8aW5maWxlLm1hZT4nLCAnLW9tYWUnLCAnPG91dGZpbGUubWFlPic=

>  <r_lp_tautomer_probability>  (261) 
0.999336

>  <r_epik_Ionization_Penalty>  (261) 
0.913666

>  <r_epik_Ionization_Penalty_Charging>  (261) 
0.913664

>  <r_epik_Ionization_Penalty_Neutral>  (261) 
1.88933e-06

>  <r_epik_State_Penalty>  (261) 
0.954694

>  <r_epik_Charging_Adjusted_Penalty>  (261) 
1.86836

>  <i_epik_Tot_Q>  (261) 
1

>  <i_epik_Tot_abs_Q>  (261) 
1

>  <s_lp_Force_Field>  (261) 
OPLS3e

>  <r_lp_Energy>  (261) 
35.729

>  <b_lp_Chiralities_Consistent>  (261) 
1

>  <s_lp_Variant>  (261) 
74:0-2

>  <s_i_glide_gridfile>  (261) 
pfpi4k_grid

>  <i_i_glide_lignum>  (261) 
17

>  <i_i_glide_rotatable_bonds>  (261) 
3

>  <r_i_docking_score>  (261) 
-2.75746

>  <r_i_glide_ligand_efficiency>  (261) 
-0.11989

>  <r_i_glide_ligand_efficiency_sa>  (261) 
-0.34095

>  <r_i_glide_ligand_efficiency_ln>  (261) 
-0.666779

>  <r_i_glide_gscore>  (261) 
-2.75746

>  <r_i_glide_lipo>  (261) 
-0.0218559

>  <r_i_glide_hbond>  (261) 
0

>  <r_i_glide_metal>  (261) 
-0

>  <r_i_glide_rewards>  (261) 
-1.40443

>  <r_i_glide_evdw>  (261) 
-24.8552

>  <r_i_glide_ecoul>  (261) 
-3.42556

>  <r_i_glide_erotb>  (261) 
0.567378

>  <r_i_glide_esite>  (261) 
-0.141957

>  <r_i_glide_emodel>  (261) 
-33.831

>  <r_i_glide_energy>  (261) 
-28.2808

>  <r_i_glide_einternal>  (261) 
0.870624

>  <r_i_glide_intrahb_reward>  (261) 
-0

>  <i_i_glide_confnum>  (261) 
3

>  <i_i_glide_posenum>  (261) 
37

>  <r_i_glide_eff_state_penalty>  (261) 
0

>  <ligand_id>  (261) 
74

>  <original_smiles>  (261) 
c1cc(N2CC3(CCN(c4nc(C5CC5)no4)CC3)C2)ncn1

>  <smiles>  (261) 
[H]c1c(N2C([H])([H])C3(C2([H])[H])C([H])([H])C([H])([H])N(c2nc(C4([H])C([H])([H])C4([H])[H])no2)C([H])([H])C3([H])[H])nc([H])[n+]([H])c1[H]

$$$$
75:0:0
     RDKit          3D

 50 52  0  0  1  0  0  0  0  0999 V2000
    3.5636   -3.8535    5.5490 C   0  0  0  0  0  0  0  0  0  0  0  0
    3.5568   -3.1477    4.4057 C   0  0  0  0  0  0  0  0  0  0  0  0
    3.9910   -3.6942    3.0586 C   0  0  0  0  0  0  0  0  0  0  0  0
    4.9088   -2.7200    2.2829 C   0  0  2  0  0  0  0  0  0  0  0  0
    4.3282   -1.2752    2.2440 C   0  0  1  0  0  0  0  0  0  0  0  0
    3.1848   -1.2189    1.2107 C   0  0  0  0  0  0  0  0  0  0  0  0
    3.7138   -1.5964   -0.1748 C   0  0  0  0  0  0  0  0  0  0  0  0
    4.3150   -3.0206   -0.2829 C   0  0  1  0  0  0  0  0  0  0  0  0
    3.1895   -4.0795   -0.3198 C   0  0  0  0  0  0  0  0  0  0  0  0
    5.2276   -3.1921   -1.5358 C   0  0  1  0  0  0  0  0  0  0  0  0
    4.6643   -2.6842   -2.8835 C   0  0  0  0  0  0  0  0  0  0  0  0
    4.4084   -3.4547   -3.8094 O   0  0  0  0  0  0  0  0  0  0  0  0
    4.5069   -1.3522   -2.9267 O   0  0  0  0  0  0  0  0  0  0  0  0
    3.8163   -0.7435   -4.0000 C   0  0  0  0  0  0  0  0  0  0  0  0
    6.5637   -2.5461   -1.1454 C   0  0  0  0  0  0  0  0  0  0  0  0
    6.6619   -2.6682    0.3799 C   0  0  0  0  0  0  0  0  0  0  0  0
    5.3222   -3.2497    0.8768 C   0  0  1  0  0  0  0  0  0  0  0  0
    3.9719   -0.7241    3.6651 C   0  0  0  0  0  0  0  0  0  0  0  0
    5.2677   -0.5119    4.4816 C   0  0  0  0  0  0  0  0  0  0  0  0
    3.2571    0.6464    3.5722 C   0  0  0  0  0  0  0  0  0  0  0  0
    3.0956   -1.7454    4.4228 C   0  0  0  0  0  0  0  0  0  0  0  0
    2.0891   -1.3803    5.0357 O   0  0  0  0  0  0  0  0  0  0  0  0
    3.2541   -3.4097    6.4827 H   0  0  0  0  0  0  0  0  0  0  0  0
    3.8995   -4.8776    5.5745 H   0  0  0  0  0  0  0  0  0  0  0  0
    4.4940   -4.6522    3.2001 H   0  0  0  0  0  0  0  0  0  0  0  0
    3.0785   -3.9057    2.5069 H   0  0  0  0  0  0  0  0  0  0  0  0
    5.8310   -2.6813    2.8571 H   0  0  0  0  0  0  0  0  0  0  0  0
    5.1071   -0.6179    1.8548 H   0  0  0  0  0  0  0  0  0  0  0  0
    2.3396   -1.8483    1.4940 H   0  0  0  0  0  0  0  0  0  0  0  0
    2.7867   -0.2083    1.1215 H   0  0  0  0  0  0  0  0  0  0  0  0
    2.9056   -1.5002   -0.8961 H   0  0  0  0  0  0  0  0  0  0  0  0
    4.4579   -0.8460   -0.4407 H   0  0  0  0  0  0  0  0  0  0  0  0
    3.5882   -5.0921   -0.2364 H   0  0  0  0  0  0  0  0  0  0  0  0
    2.6417   -4.0322   -1.2583 H   0  0  0  0  0  0  0  0  0  0  0  0
    2.4528   -3.9466    0.4696 H   0  0  0  0  0  0  0  0  0  0  0  0
    5.4120   -4.2587   -1.6589 H   0  0  0  0  0  0  0  0  0  0  0  0
    3.7369    0.3243   -3.7997 H   0  0  0  0  0  0  0  0  0  0  0  0
    2.8099   -1.1470   -4.0979 H   0  0  0  0  0  0  0  0  0  0  0  0
    4.3528   -0.8814   -4.9371 H   0  0  0  0  0  0  0  0  0  0  0  0
    7.4032   -3.0267   -1.6490 H   0  0  0  0  0  0  0  0  0  0  0  0
    6.5720   -1.4915   -1.4188 H   0  0  0  0  0  0  0  0  0  0  0  0
    7.4868   -3.3175    0.6725 H   0  0  0  0  0  0  0  0  0  0  0  0
    6.8620   -1.6865    0.8087 H   0  0  0  0  0  0  0  0  0  0  0  0
    5.4857   -4.3289    0.9589 H   0  0  0  0  0  0  0  0  0  0  0  0
    5.9698    0.1359    3.9541 H   0  0  0  0  0  0  0  0  0  0  0  0
    5.7807   -1.4533    4.6888 H   0  0  0  0  0  0  0  0  0  0  0  0
    5.0554   -0.0560    5.4490 H   0  0  0  0  0  0  0  0  0  0  0  0
    3.8161    1.3413    2.9433 H   0  0  0  0  0  0  0  0  0  0  0  0
    3.1522    1.1064    4.5560 H   0  0  0  0  0  0  0  0  0  0  0  0
    2.2494    0.5574    3.1588 H   0  0  0  0  0  0  0  0  0  0  0  0
  1  2  2  0
  1 23  1  0
  1 24  1  0
  2 21  1  0
  2  3  1  0
  3  4  1  0
  3 25  1  0
  3 26  1  0
  4 17  1  0
  4  5  1  0
  4 27  1  1
  5  6  1  0
  5 18  1  0
  5 28  1  6
  6  7  1  0
  6 29  1  0
  6 30  1  0
  7  8  1  0
  7 31  1  0
  7 32  1  0
  8 17  1  0
  8  9  1  6
  8 10  1  0
  9 33  1  0
  9 34  1  0
  9 35  1  0
 10 11  1  0
 10 15  1  0
 10 36  1  6
 11 12  2  0
 11 13  1  0
 13 14  1  0
 14 37  1  0
 14 38  1  0
 14 39  1  0
 15 16  1  0
 15 40  1  0
 15 41  1  0
 16 17  1  0
 16 42  1  0
 16 43  1  0
 17 44  1  1
 18 19  1  0
 18 20  1  0
 18 21  1  0
 19 45  1  0
 19 46  1  0
 19 47  1  0
 20 48  1  0
 20 49  1  0
 20 50  1  0
 21 22  2  0
M  END
>  <i_m_ct_stereo_status>  (262) 
1

>  <s_m_source_file>  (262) 
/var/tmp/pbs.5076255.sched01/tmprva83imr/861x3d95ot.sdf

>  <i_m_source_file_index>  (262) 
18

>  <i_lp_mmshare_version>  (262) 
48012

>  <i_f3d_flags>  (262) 
0

>  <s_epik_input>  (262) 
W0NIMl09QyhbQ0gyXTEpQyg9TylDKFtDSDNdKShbQ0gzXSlbQ0BIXShbQ0gyXVtDSDJdMilbQ0BASF0xW0NAQEhdKFtDQEBdMjNbQ0gzXSlbQ0gyXVtDSDJdW0NAQEhdM0MoPU8pT1tDSDNd

>  <s_epik_cmdline>  (262) 
J2VwaWtfcHl0aG9uJywgJy1waHQnLCAnMi4wJywgJy1waCcsICc3LjAnLCAnLXRuJywgJzgnLCAnLW1hJywgJzIwMCcsICctaW1hZScsICc8aW5maWxlLm1hZT4nLCAnLW9tYWUnLCAnPG91dGZpbGUubWFlPic=

>  <r_lp_tautomer_probability>  (262) 
1

>  <r_epik_Ionization_Penalty>  (262) 
0

>  <r_epik_Ionization_Penalty_Charging>  (262) 
0

>  <r_epik_Ionization_Penalty_Neutral>  (262) 
0

>  <r_epik_State_Penalty>  (262) 
-0

>  <r_epik_Charging_Adjusted_Penalty>  (262) 
0

>  <i_epik_Tot_Q>  (262) 
0

>  <i_epik_Tot_abs_Q>  (262) 
0

>  <s_epik_Chemistry_Notes>  (262) 
This compound has an ester and may undergo hydrolysis at high or low pH.

>  <s_lp_Force_Field>  (262) 
OPLS3e

>  <r_lp_Energy>  (262) 
35.7671

>  <b_lp_Chiralities_Consistent>  (262) 
1

>  <s_lp_Variant>  (262) 
75:0-1

>  <s_i_glide_gridfile>  (262) 
pfpi4k_grid

>  <i_i_glide_lignum>  (262) 
18

>  <i_i_glide_rotatable_bonds>  (262) 
2

>  <r_i_docking_score>  (262) 
-3.34489

>  <r_i_glide_ligand_efficiency>  (262) 
-0.15204

>  <r_i_glide_ligand_efficiency_sa>  (262) 
-0.426023

>  <r_i_glide_ligand_efficiency_ln>  (262) 
-0.817613

>  <r_i_glide_gscore>  (262) 
-3.34489

>  <r_i_glide_lipo>  (262) 
-0.576286

>  <r_i_glide_hbond>  (262) 
0

>  <r_i_glide_metal>  (262) 
-0

>  <r_i_glide_rewards>  (262) 
-1.49642

>  <r_i_glide_evdw>  (262) 
-27.8251

>  <r_i_glide_ecoul>  (262) 
-0.532817

>  <r_i_glide_erotb>  (262) 
0.198999

>  <r_i_glide_esite>  (262) 
0

>  <r_i_glide_emodel>  (262) 
-33.2657

>  <r_i_glide_energy>  (262) 
-28.3579

>  <r_i_glide_einternal>  (262) 
1.43514

>  <r_i_glide_intrahb_reward>  (262) 
-0

>  <i_i_glide_confnum>  (262) 
2

>  <i_i_glide_posenum>  (262) 
26

>  <r_i_glide_eff_state_penalty>  (262) 
0

>  <ligand_id>  (262) 
75

>  <original_smiles>  (262) 
C=C1CC2C(CCC3(C)C(C(=O)OC)CCC23)C(C)(C)C1=O

>  <smiles>  (262) 
[H]C([H])=C1C(=O)C(C([H])([H])[H])(C([H])([H])[H])C2([H])C([H])([H])C([H])([H])C3(C([H])([H])[H])C([H])(C(=O)OC([H])([H])[H])C([H])([H])C([H])([H])C3([H])C2([H])C1([H])[H]

$$$$
75:0:1
     RDKit          3D

 50 52  0  0  1  0  0  0  0  0999 V2000
    2.6163   -5.2575    4.3532 C   0  0  0  0  0  0  0  0  0  0  0  0
    2.8239   -4.2770    3.4686 C   0  0  0  0  0  0  0  0  0  0  0  0
    3.0531   -4.5043    1.9800 C   0  0  0  0  0  0  0  0  0  0  0  0
    4.2368   -3.6772    1.4210 C   0  0  2  0  0  0  0  0  0  0  0  0
    4.1551   -2.1805    1.8522 C   0  0  1  0  0  0  0  0  0  0  0  0
    3.1004   -1.4558    1.0033 C   0  0  0  0  0  0  0  0  0  0  0  0
    3.4745   -1.5376   -0.4708 C   0  0  0  0  0  0  0  0  0  0  0  0
    3.5676   -2.9760   -1.0346 C   0  0  1  0  0  0  0  0  0  0  0  0
    2.1456   -3.5461   -1.2680 C   0  0  0  0  0  0  0  0  0  0  0  0
    4.3677   -3.0384   -2.3533 C   0  0  1  0  0  0  0  0  0  0  0  0
    3.9808   -2.0117   -3.4201 C   0  0  0  0  0  0  0  0  0  0  0  0
    3.4218   -2.3769   -4.4446 O   0  0  0  0  0  0  0  0  0  0  0  0
    4.2899   -0.7426   -3.1236 O   0  0  0  0  0  0  0  0  0  0  0  0
    3.8169    0.3127   -3.9343 C   0  0  0  0  0  0  0  0  0  0  0  0
    5.8426   -2.9894   -1.9665 C   0  0  0  0  0  0  0  0  0  0  0  0
    5.8933   -3.5943   -0.5572 C   0  0  0  0  0  0  0  0  0  0  0  0
    4.4418   -3.8591   -0.1108 C   0  0  1  0  0  0  0  0  0  0  0  0
    3.9941   -1.9976    3.3919 C   0  0  0  0  0  0  0  0  0  0  0  0
    5.2773   -2.4725    4.0793 C   0  0  0  0  0  0  0  0  0  0  0  0
    3.7941   -0.5083    3.7695 C   0  0  0  0  0  0  0  0  0  0  0  0
    2.8435   -2.8714    3.9279 C   0  0  0  0  0  0  0  0  0  0  0  0
    2.0231   -2.4162    4.7271 O   0  0  0  0  0  0  0  0  0  0  0  0
    2.4785   -5.0414    5.4035 H   0  0  0  0  0  0  0  0  0  0  0  0
    2.6065   -6.2975    4.0613 H   0  0  0  0  0  0  0  0  0  0  0  0
    3.2156   -5.5678    1.7916 H   0  0  0  0  0  0  0  0  0  0  0  0
    2.1223   -4.2331    1.4904 H   0  0  0  0  0  0  0  0  0  0  0  0
    5.1329   -4.0961    1.8755 H   0  0  0  0  0  0  0  0  0  0  0  0
    5.1081   -1.7079    1.5870 H   0  0  0  0  0  0  0  0  0  0  0  0
    2.0987   -1.8523    1.1738 H   0  0  0  0  0  0  0  0  0  0  0  0
    3.0531   -0.3949    1.2496 H   0  0  0  0  0  0  0  0  0  0  0  0
    2.7619   -0.9680   -1.0544 H   0  0  0  0  0  0  0  0  0  0  0  0
    4.4366   -1.0268   -0.5820 H   0  0  0  0  0  0  0  0  0  0  0  0
    2.1517   -4.6127   -1.4733 H   0  0  0  0  0  0  0  0  0  0  0  0
    1.6461   -3.0581   -2.1032 H   0  0  0  0  0  0  0  0  0  0  0  0
    1.5278   -3.4007   -0.3968 H   0  0  0  0  0  0  0  0  0  0  0  0
    4.1853   -4.0111   -2.8025 H   0  0  0  0  0  0  0  0  0  0  0  0
    4.1546    1.2375   -3.4810 H   0  0  0  0  0  0  0  0  0  0  0  0
    2.7251    0.3294   -3.9571 H   0  0  0  0  0  0  0  0  0  0  0  0
    4.2009    0.2747   -4.9541 H   0  0  0  0  0  0  0  0  0  0  0  0
    6.4587   -3.5421   -2.6815 H   0  0  0  0  0  0  0  0  0  0  0  0
    6.2055   -1.9605   -1.9417 H   0  0  0  0  0  0  0  0  0  0  0  0
    6.4518   -4.5306   -0.5405 H   0  0  0  0  0  0  0  0  0  0  0  0
    6.4011   -2.8933    0.1062 H   0  0  0  0  0  0  0  0  0  0  0  0
    4.2290   -4.9026   -0.3684 H   0  0  0  0  0  0  0  0  0  0  0  0
    6.1041   -1.9422    3.6107 H   0  0  0  0  0  0  0  0  0  0  0  0
    5.4586   -3.5425    3.9679 H   0  0  0  0  0  0  0  0  0  0  0  0
    5.2769   -2.2494    5.1485 H   0  0  0  0  0  0  0  0  0  0  0  0
    4.5541    0.1257    3.3071 H   0  0  0  0  0  0  0  0  0  0  0  0
    3.8625   -0.3659    4.8497 H   0  0  0  0  0  0  0  0  0  0  0  0
    2.8125   -0.1408    3.4639 H   0  0  0  0  0  0  0  0  0  0  0  0
  1  2  2  0
  1 23  1  0
  1 24  1  0
  2 21  1  0
  2  3  1  0
  3  4  1  0
  3 25  1  0
  3 26  1  0
  4 17  1  0
  4  5  1  0
  4 27  1  1
  5  6  1  0
  5 18  1  0
  5 28  1  6
  6  7  1  0
  6 29  1  0
  6 30  1  0
  7  8  1  0
  7 31  1  0
  7 32  1  0
  8 17  1  0
  8  9  1  6
  8 10  1  0
  9 33  1  0
  9 34  1  0
  9 35  1  0
 10 11  1  0
 10 15  1  0
 10 36  1  6
 11 12  2  0
 11 13  1  0
 13 14  1  0
 14 37  1  0
 14 38  1  0
 14 39  1  0
 15 16  1  0
 15 40  1  0
 15 41  1  0
 16 17  1  0
 16 42  1  0
 16 43  1  0
 17 44  1  6
 18 19  1  0
 18 20  1  0
 18 21  1  0
 19 45  1  0
 19 46  1  0
 19 47  1  0
 20 48  1  0
 20 49  1  0
 20 50  1  0
 21 22  2  0
M  END
>  <i_m_ct_stereo_status>  (263) 
1

>  <s_m_source_file>  (263) 
/var/tmp/pbs.5076255.sched01/tmprva83imr/861x3d95ot.sdf

>  <i_m_source_file_index>  (263) 
18

>  <i_lp_mmshare_version>  (263) 
48012

>  <i_f3d_flags>  (263) 
0

>  <s_epik_input>  (263) 
W0NIMl09QyhbQ0gyXTEpQyg9TylDKFtDSDNdKShbQ0gzXSlbQ0BIXShbQ0gyXVtDSDJdMilbQ0BASF0xW0NAQEhdKFtDQEBdMjNbQ0gzXSlbQ0gyXVtDSDJdW0NAQEhdM0MoPU8pT1tDSDNd

>  <s_epik_cmdline>  (263) 
J2VwaWtfcHl0aG9uJywgJy1waHQnLCAnMi4wJywgJy1waCcsICc3LjAnLCAnLXRuJywgJzgnLCAnLW1hJywgJzIwMCcsICctaW1hZScsICc8aW5maWxlLm1hZT4nLCAnLW9tYWUnLCAnPG91dGZpbGUubWFlPic=

>  <r_lp_tautomer_probability>  (263) 
1

>  <r_epik_Ionization_Penalty>  (263) 
0

>  <r_epik_Ionization_Penalty_Charging>  (263) 
0

>  <r_epik_Ionization_Penalty_Neutral>  (263) 
0

>  <r_epik_State_Penalty>  (263) 
-0

>  <r_epik_Charging_Adjusted_Penalty>  (263) 
0

>  <i_epik_Tot_Q>  (263) 
0

>  <i_epik_Tot_abs_Q>  (263) 
0

>  <s_epik_Chemistry_Notes>  (263) 
This compound has an ester and may undergo hydrolysis at high or low pH.

>  <s_lp_Force_Field>  (263) 
OPLS3e

>  <r_lp_Energy>  (263) 
35.7671

>  <b_lp_Chiralities_Consistent>  (263) 
1

>  <s_lp_Variant>  (263) 
75:0-1

>  <s_i_glide_gridfile>  (263) 
pfpi4k_grid

>  <i_i_glide_lignum>  (263) 
18

>  <i_i_glide_rotatable_bonds>  (263) 
2

>  <r_i_docking_score>  (263) 
-3.18498

>  <r_i_glide_ligand_efficiency>  (263) 
-0.144772

>  <r_i_glide_ligand_efficiency_sa>  (263) 
-0.405656

>  <r_i_glide_ligand_efficiency_ln>  (263) 
-0.778525

>  <r_i_glide_gscore>  (263) 
-3.18498

>  <r_i_glide_lipo>  (263) 
-0.256893

>  <r_i_glide_hbond>  (263) 
-0.32

>  <r_i_glide_metal>  (263) 
-0

>  <r_i_glide_rewards>  (263) 
-1.57945

>  <r_i_glide_evdw>  (263) 
-18.5682

>  <r_i_glide_ecoul>  (263) 
-1.99482

>  <r_i_glide_erotb>  (263) 
0.198999

>  <r_i_glide_esite>  (263) 
0

>  <r_i_glide_emodel>  (263) 
-25.1455

>  <r_i_glide_energy>  (263) 
-20.563

>  <r_i_glide_einternal>  (263) 
1.36219

>  <r_i_glide_intrahb_reward>  (263) 
-0

>  <i_i_glide_confnum>  (263) 
3

>  <i_i_glide_posenum>  (263) 
40

>  <r_i_glide_eff_state_penalty>  (263) 
0

>  <ligand_id>  (263) 
75

>  <original_smiles>  (263) 
C=C1CC2C(CCC3(C)C(C(=O)OC)CCC23)C(C)(C)C1=O

>  <smiles>  (263) 
[H]C([H])=C1C(=O)C(C([H])([H])[H])(C([H])([H])[H])C2([H])C([H])([H])C([H])([H])C3(C([H])([H])[H])C([H])(C(=O)OC([H])([H])[H])C([H])([H])C([H])([H])C3([H])C2([H])C1([H])[H]

$$$$
77:0:0
     RDKit          3D

 73 79  0  0  1  0  0  0  0  0999 V2000
    0.9423   -0.8317    8.4464 C   0  0  0  0  0  0  0  0  0  0  0  0
   -0.2696   -0.2749    7.9690 O   0  0  0  0  0  0  0  0  0  0  0  0
   -0.1433    0.5346    6.7955 C   0  0  2  0  0  0  0  0  0  0  0  0
    0.1442    1.9782    7.2169 C   0  0  2  0  0  0  0  0  0  0  0  0
   -1.2253    2.5119    7.6918 C   0  0  1  0  0  0  0  0  0  0  0  0
   -1.3758    3.9014    7.5873 O   0  0  0  0  0  0  0  0  0  0  0  0
   -2.3008    1.6211    7.0534 C   0  0  0  0  0  0  0  0  0  0  0  0
   -1.5113    0.6777    6.1033 C   0  0  2  0  0  0  0  0  0  0  0  0
   -2.1235   -0.5974    6.0612 O   0  0  0  0  0  0  0  0  0  0  0  0
   -1.4549    1.1670    4.6139 C   0  0  1  0  0  0  0  0  0  0  0  0
   -1.7968    2.6323    4.1949 C   0  0  1  0  0  0  0  0  0  0  0  0
   -2.1665    3.6995    5.0336 O   0  0  0  0  0  0  0  0  0  0  0  0
   -0.6670    2.9373    3.2372 C   0  0  2  0  0  0  0  0  0  0  0  0
   -0.7854    1.5871    2.4512 C   0  0  0  0  0  0  0  0  0  0  0  0
   -0.3325    0.6971    3.5918 C   0  0  1  0  0  0  0  0  0  0  0  0
    1.1959    1.0802    3.8157 C   0  0  1  0  0  0  0  0  0  0  0  0
    2.0340   -0.2044    3.7180 C   0  0  0  0  0  0  0  0  0  0  0  0
    1.9859   -0.7622    2.4037 O   0  0  0  0  0  0  0  0  0  0  0  0
    2.6032   -2.0097    2.3042 C   0  0  2  0  0  0  0  0  0  0  0  0
    3.9531   -1.9896    2.6794 O   0  0  0  0  0  0  0  0  0  0  0  0
    4.8091   -1.1683    1.8869 C   0  0  1  0  0  0  0  0  0  0  0  0
    6.1984   -1.2625    2.4858 C   0  0  0  0  0  0  0  0  0  0  0  0
    4.8220   -1.6429    0.4262 C   0  0  0  0  0  0  0  0  0  0  0  0
    3.3889   -1.6748   -0.0841 C   0  0  1  0  0  0  0  0  0  0  0  0
    3.3469   -2.1840   -1.4038 O   0  0  0  0  0  0  0  0  0  0  0  0
    2.4890   -2.5077    0.8463 C   0  0  1  0  0  0  0  0  0  0  0  0
    2.7401   -3.8918    0.7169 O   0  0  0  0  0  0  0  0  0  0  0  0
    1.8230    2.3977    3.0675 C   0  0  1  0  0  0  0  0  0  0  0  0
    1.7924    2.5503    1.6846 O   0  0  0  0  0  0  0  0  0  0  0  0
    0.7692    3.1117    3.9381 C   0  0  1  0  0  0  0  0  0  0  0  0
    0.8482    3.9603    5.2336 C   0  0  0  0  0  0  0  0  0  0  0  0
    1.0503    2.7275    6.1834 C   0  0  1  0  0  0  0  0  0  0  0  0
    2.1718    3.1976    6.9748 O   0  0  0  0  0  0  0  0  0  0  0  0
    3.1310    2.2930    7.5445 C   0  0  0  0  0  0  0  0  0  0  0  0
    1.5560    2.0697    4.9164 C   0  0  1  0  0  0  0  0  0  0  0  0
    0.7263   -1.4203    9.3350 H   0  0  0  0  0  0  0  0  0  0  0  0
    1.6574   -0.0731    8.7204 H   0  0  0  0  0  0  0  0  0  0  0  0
    1.3851   -1.4955    7.7049 H   0  0  0  0  0  0  0  0  0  0  0  0
    0.5832    0.0710    6.1364 H   0  0  0  0  0  0  0  0  0  0  0  0
    0.6694    1.9492    8.1648 H   0  0  0  0  0  0  0  0  0  0  0  0
   -1.2995    2.3022    8.7625 H   0  0  0  0  0  0  0  0  0  0  0  0
   -0.8014    4.3010    8.2297 H   0  0  0  0  0  0  0  0  0  0  0  0
   -2.7139    1.0169    7.8564 H   0  0  0  0  0  0  0  0  0  0  0  0
   -3.1564    2.1448    6.6263 H   0  0  0  0  0  0  0  0  0  0  0  0
   -1.6542   -1.1155    5.4078 H   0  0  0  0  0  0  0  0  0  0  0  0
   -2.3415    0.6743    4.2143 H   0  0  0  0  0  0  0  0  0  0  0  0
   -2.7106    2.5807    3.5987 H   0  0  0  0  0  0  0  0  0  0  0  0
   -1.5546    3.7472    5.7723 H   0  0  0  0  0  0  0  0  0  0  0  0
   -0.9458    3.7973    2.6111 H   0  0  0  0  0  0  0  0  0  0  0  0
   -1.8047    1.3624    2.1139 H   0  0  0  0  0  0  0  0  0  0  0  0
   -0.2100    1.4541    1.5421 H   0  0  0  0  0  0  0  0  0  0  0  0
   -0.4574   -0.3530    3.3327 H   0  0  0  0  0  0  0  0  0  0  0  0
    3.0688    0.0285    3.9671 H   0  0  0  0  0  0  0  0  0  0  0  0
    1.6933   -0.9249    4.4552 H   0  0  0  0  0  0  0  0  0  0  0  0
    2.0644   -2.6817    2.9669 H   0  0  0  0  0  0  0  0  0  0  0  0
    4.4511   -0.1369    1.9389 H   0  0  0  0  0  0  0  0  0  0  0  0
    6.9010   -0.6584    1.9231 H   0  0  0  0  0  0  0  0  0  0  0  0
    6.5416   -2.2915    2.4801 H   0  0  0  0  0  0  0  0  0  0  0  0
    6.2098   -0.9031    3.5044 H   0  0  0  0  0  0  0  0  0  0  0  0
    5.4209   -0.9628   -0.1829 H   0  0  0  0  0  0  0  0  0  0  0  0
    5.2596   -2.6393    0.3403 H   0  0  0  0  0  0  0  0  0  0  0  0
    3.0200   -0.6539   -0.1094 H   0  0  0  0  0  0  0  0  0  0  0  0
    2.4678   -1.9999   -1.7302 H   0  0  0  0  0  0  0  0  0  0  0  0
    1.4520   -2.3698    0.5663 H   0  0  0  0  0  0  0  0  0  0  0  0
    2.9568   -4.0488   -0.1997 H   0  0  0  0  0  0  0  0  0  0  0  0
    2.8691    2.6890    3.2218 H   0  0  0  0  0  0  0  0  0  0  0  0
    1.1305    3.2098    1.4609 H   0  0  0  0  0  0  0  0  0  0  0  0
    1.7301    4.5851    5.1915 H   0  0  0  0  0  0  0  0  0  0  0  0
    0.0078    4.6143    5.4411 H   0  0  0  0  0  0  0  0  0  0  0  0
    3.8973    2.8834    8.0475 H   0  0  0  0  0  0  0  0  0  0  0  0
    3.6474    1.6849    6.8052 H   0  0  0  0  0  0  0  0  0  0  0  0
    2.7008    1.6509    8.2945 H   0  0  0  0  0  0  0  0  0  0  0  0
    2.6341    2.1377    5.0721 H   0  0  0  0  0  0  0  0  0  0  0  0
  1  2  1  0
  1 36  1  0
  1 37  1  0
  1 38  1  0
  2  3  1  0
  3  8  1  0
  3  4  1  0
  3 39  1  6
  4 32  1  0
  4  5  1  0
  4 40  1  1
  5  6  1  0
  5  7  1  0
  5 41  1  1
  6 42  1  0
  7  8  1  0
  7 43  1  0
  7 44  1  0
  8  9  1  6
  8 10  1  0
  9 45  1  0
 10 15  1  0
 10 11  1  0
 10 46  1  6
 11 12  1  0
 11 13  1  0
 11 47  1  6
 12 48  1  0
 13 30  1  0
 13 14  1  0
 13 49  1  6
 14 15  1  0
 14 50  1  0
 14 51  1  0
 15 16  1  0
 15 52  1  6
 16 35  1  0
 16 17  1  1
 16 28  1  0
 17 18  1  0
 17 53  1  0
 17 54  1  0
 18 19  1  0
 19 26  1  0
 19 20  1  0
 19 55  1  1
 20 21  1  0
 21 22  1  0
 21 23  1  0
 21 56  1  6
 22 57  1  0
 22 58  1  0
 22 59  1  0
 23 24  1  0
 23 60  1  0
 23 61  1  0
 24 25  1  0
 24 26  1  0
 24 62  1  6
 25 63  1  0
 26 27  1  0
 26 64  1  6
 27 65  1  0
 28 29  1  0
 28 30  1  0
 28 66  1  1
 29 67  1  0
 30 35  1  0
 30 31  1  1
 31 32  1  0
 31 68  1  0
 31 69  1  0
 32 33  1  1
 32 35  1  0
 33 34  1  0
 34 70  1  0
 34 71  1  0
 34 72  1  0
 35 73  1  1
M  END
>  <i_m_ct_stereo_status>  (264) 
1

>  <s_m_source_file>  (264) 
/var/tmp/pbs.5076255.sched01/tmprva83imr/861x3d95ot.sdf

>  <i_m_source_file_index>  (264) 
20

>  <i_lp_mmshare_version>  (264) 
48012

>  <i_f3d_flags>  (264) 
2

>  <s_epik_input>  (264) 
W0NAXTEyM1tDQEBIXTRbQ0BIXShbT0hdKVtDQEBIXTVbQ0BAXTYoW09IXSlbQ0BIXShPW0NIM10pW0NASF0oW0NAQEhdKFtPSF0pW0NIMl02KVtDQEBdKFtDSDJdMikoT1tDSDNdKVtDQEBIXTNbQ0BAXShbQ0BASF01W0NIMl00KShbQ0BIXTFbT0hdKVtDSDJdT1tDQEBIXTdPW0NAQEhdKFtDSDNdKVtDSDJdW0NAQEhdKFtPSF0pW0NASF03W09IXQ==

>  <s_epik_cmdline>  (264) 
J2VwaWtfcHl0aG9uJywgJy1waHQnLCAnMi4wJywgJy1waCcsICc3LjAnLCAnLXRuJywgJzgnLCAnLW1hJywgJzIwMCcsICctaW1hZScsICc8aW5maWxlLm1hZT4nLCAnLW9tYWUnLCAnPG91dGZpbGUubWFlPic=

>  <r_lp_tautomer_probability>  (264) 
1

>  <r_epik_Ionization_Penalty>  (264) 
2.03568e-06

>  <r_epik_Ionization_Penalty_Charging>  (264) 
0

>  <r_epik_Ionization_Penalty_Neutral>  (264) 
2.03568e-06

>  <r_epik_State_Penalty>  (264) 
-0

>  <r_epik_Charging_Adjusted_Penalty>  (264) 
0

>  <i_epik_Tot_Q>  (264) 
0

>  <i_epik_Tot_abs_Q>  (264) 
0

>  <s_epik_Chemistry_Notes>  (264) 
This compound contains an acetal/aminal-like group ( X-CH(R)-Y where X, Y are N, S, or O) that may be acid/base labile, releasing an aldehyde.

>  <s_lp_Force_Field>  (264) 
OPLS3e

>  <r_lp_Energy>  (264) 
202.475

>  <b_lp_Chiralities_Consistent>  (264) 
0

>  <s_lp_Variant>  (264) 
77:0-1

>  <s_i_glide_gridfile>  (264) 
pfpi4k_grid

>  <i_i_glide_lignum>  (264) 
20

>  <i_i_glide_rotatable_bonds>  (264) 
11

>  <r_i_docking_score>  (264) 
-3.49982

>  <r_i_glide_ligand_efficiency>  (264) 
-0.0999949

>  <r_i_glide_ligand_efficiency_sa>  (264) 
-0.32709

>  <r_i_glide_ligand_efficiency_ln>  (264) 
-0.768288

>  <r_i_glide_gscore>  (264) 
-3.49982

>  <r_i_glide_lipo>  (264) 
-0.208725

>  <r_i_glide_hbond>  (264) 
-0.00737484

>  <r_i_glide_metal>  (264) 
-0

>  <r_i_glide_rewards>  (264) 
-0.509796

>  <r_i_glide_evdw>  (264) 
-14.6904

>  <r_i_glide_ecoul>  (264) 
-15.1617

>  <r_i_glide_erotb>  (264) 
0.246296

>  <r_i_glide_esite>  (264) 
-0.0114497

>  <r_i_glide_emodel>  (264) 
-37.9967

>  <r_i_glide_energy>  (264) 
-29.8521

>  <r_i_glide_einternal>  (264) 
10.5433

>  <r_i_glide_intrahb_reward>  (264) 
-0.5

>  <i_i_glide_confnum>  (264) 
1

>  <i_i_glide_posenum>  (264) 
17

>  <r_i_glide_eff_state_penalty>  (264) 
0

>  <ligand_id>  (264) 
77

>  <original_smiles>  (264) 
COC1C2C(O)CC1(O)C1C(O)C3CC1C1(COC4OC(C)CC(O)C4O)C(O)C34CC2(OC)C41

>  <smiles>  (264) 
[H]OC1([H])C([H])(OC([H])([H])C23C([H])(O[H])C45C([H])([H])C(OC([H])([H])[H])(C6([H])C([H])(O[H])C([H])([H])C(O[H])(C6([H])OC([H])([H])[H])C6([H])C([H])(O[H])C4([H])C([H])([H])C62[H])C35[H])OC([H])(C([H])([H])[H])C([H])([H])C1([H])O[H]

$$$$
77:0:1
     RDKit          3D

 73 79  0  0  1  0  0  0  0  0999 V2000
   -1.9122   -1.5804    5.5268 C   0  0  0  0  0  0  0  0  0  0  0  0
   -1.8861   -0.3117    4.8999 O   0  0  0  0  0  0  0  0  0  0  0  0
   -0.5654    0.1633    4.6453 C   0  0  2  0  0  0  0  0  0  0  0  0
   -0.1589    1.0210    5.8516 C   0  0  2  0  0  0  0  0  0  0  0  0
   -0.9377    2.3370    5.6454 C   0  0  1  0  0  0  0  0  0  0  0  0
   -0.3688    3.4867    6.2302 O   0  0  0  0  0  0  0  0  0  0  0  0
   -1.2748    2.4042    4.1363 C   0  0  0  0  0  0  0  0  0  0  0  0
   -0.5692    1.1794    3.5080 C   0  0  2  0  0  0  0  0  0  0  0  0
   -1.3193    0.6627    2.4333 O   0  0  0  0  0  0  0  0  0  0  0  0
    0.8438    1.4563    2.8959 C   0  0  1  0  0  0  0  0  0  0  0  0
    1.6753    2.7297    3.2334 C   0  0  1  0  0  0  0  0  0  0  0  0
    1.2738    3.7612    4.0992 O   0  0  0  0  0  0  0  0  0  0  0  0
    3.0430    2.1361    3.4955 C   0  0  2  0  0  0  0  0  0  0  0  0
    3.0254    1.2181    2.2318 C   0  0  0  0  0  0  0  0  0  0  0  0
    1.9248    0.3052    2.7126 C   0  0  1  0  0  0  0  0  0  0  0  0
    2.5913   -0.4641    3.9578 C   0  0  1  0  0  0  0  0  0  0  0  0
    2.4704   -1.9783    3.7130 C   0  0  0  0  0  0  0  0  0  0  0  0
    2.9066   -2.3231    2.4006 O   0  0  0  0  0  0  0  0  0  0  0  0
    2.6658   -3.6531    2.0486 C   0  0  2  0  0  0  0  0  0  0  0  0
    3.5306   -4.5526    2.6902 O   0  0  0  0  0  0  0  0  0  0  0  0
    4.9151   -4.4016    2.3943 C   0  0  1  0  0  0  0  0  0  0  0  0
    5.6950   -5.4386    3.2121 C   0  0  0  0  0  0  0  0  0  0  0  0
    5.1638   -4.5921    0.8864 C   0  0  0  0  0  0  0  0  0  0  0  0
    4.2686   -3.6372    0.0946 C   0  0  1  0  0  0  0  0  0  0  0  0
    4.4303   -3.8267   -1.3044 O   0  0  0  0  0  0  0  0  0  0  0  0
    2.7970   -3.8075    0.5100 C   0  0  1  0  0  0  0  0  0  0  0  0
    2.2428   -5.0419    0.0827 O   0  0  0  0  0  0  0  0  0  0  0  0
    4.0150    0.0226    4.5718 C   0  0  1  0  0  0  0  0  0  0  0  0
    5.1808    0.1156    3.7833 O   0  0  0  0  0  0  0  0  0  0  0  0
    3.1764    1.2946    4.8506 C   0  0  1  0  0  0  0  0  0  0  0  0
    2.5892    1.9460    6.1272 C   0  0  0  0  0  0  0  0  0  0  0  0
    1.3695    0.9741    6.1822 C   0  0  1  0  0  0  0  0  0  0  0  0
    1.4049    0.5059    7.5428 O   0  0  0  0  0  0  0  0  0  0  0  0
    1.0241    1.4354    8.5608 C   0  0  0  0  0  0  0  0  0  0  0  0
    2.2796    0.0527    5.3749 C   0  0  1  0  0  0  0  0  0  0  0  0
   -2.9441   -1.8627    5.7076 H   0  0  0  0  0  0  0  0  0  0  0  0
   -1.3761   -1.5855    6.4749 H   0  0  0  0  0  0  0  0  0  0  0  0
   -1.4494   -2.3306    4.8837 H   0  0  0  0  0  0  0  0  0  0  0  0
    0.0612   -0.6895    4.4248 H   0  0  0  0  0  0  0  0  0  0  0  0
   -0.6532    0.5441    6.6963 H   0  0  0  0  0  0  0  0  0  0  0  0
   -1.8922    2.2096    6.1546 H   0  0  0  0  0  0  0  0  0  0  0  0
    0.4357    3.6722    5.7590 H   0  0  0  0  0  0  0  0  0  0  0  0
   -2.3519    2.2681    4.0397 H   0  0  0  0  0  0  0  0  0  0  0  0
   -1.0768    3.3537    3.6399 H   0  0  0  0  0  0  0  0  0  0  0  0
   -1.2589    1.2596    1.7008 H   0  0  0  0  0  0  0  0  0  0  0  0
    0.5917    1.6956    1.8594 H   0  0  0  0  0  0  0  0  0  0  0  0
    1.7589    3.3185    2.3115 H   0  0  0  0  0  0  0  0  0  0  0  0
    0.7008    4.3215    3.5963 H   0  0  0  0  0  0  0  0  0  0  0  0
    3.8045    2.9176    3.4405 H   0  0  0  0  0  0  0  0  0  0  0  0
    2.7360    1.7259    1.3026 H   0  0  0  0  0  0  0  0  0  0  0  0
    3.9246    0.6862    1.9445 H   0  0  0  0  0  0  0  0  0  0  0  0
    1.6082   -0.3673    1.9131 H   0  0  0  0  0  0  0  0  0  0  0  0
    3.0780   -2.5249    4.4356 H   0  0  0  0  0  0  0  0  0  0  0  0
    1.4419   -2.2995    3.8624 H   0  0  0  0  0  0  0  0  0  0  0  0
    1.6484   -3.9083    2.3433 H   0  0  0  0  0  0  0  0  0  0  0  0
    5.2271   -3.4022    2.7024 H   0  0  0  0  0  0  0  0  0  0  0  0
    6.7630   -5.3583    3.0126 H   0  0  0  0  0  0  0  0  0  0  0  0
    5.3910   -6.4563    2.9653 H   0  0  0  0  0  0  0  0  0  0  0  0
    5.5446   -5.2982    4.2817 H   0  0  0  0  0  0  0  0  0  0  0  0
    6.2132   -4.4025    0.6563 H   0  0  0  0  0  0  0  0  0  0  0  0
    4.9554   -5.6208    0.5950 H   0  0  0  0  0  0  0  0  0  0  0  0
    4.5780   -2.6141    0.3145 H   0  0  0  0  0  0  0  0  0  0  0  0
    4.1278   -4.6876   -1.5523 H   0  0  0  0  0  0  0  0  0  0  0  0
    2.2111   -3.0079    0.0515 H   0  0  0  0  0  0  0  0  0  0  0  0
    2.4960   -5.2008   -0.8205 H   0  0  0  0  0  0  0  0  0  0  0  0
    4.4184   -0.4759    5.4624 H   0  0  0  0  0  0  0  0  0  0  0  0
    4.9129    0.4962    2.9660 H   0  0  0  0  0  0  0  0  0  0  0  0
    3.2900    1.7925    6.9464 H   0  0  0  0  0  0  0  0  0  0  0  0
    2.3590    3.0054    6.0829 H   0  0  0  0  0  0  0  0  0  0  0  0
    1.1444    0.9598    9.5317 H   0  0  0  0  0  0  0  0  0  0  0  0
   -0.0183    1.7386    8.4828 H   0  0  0  0  0  0  0  0  0  0  0  0
    1.6384    2.3347    8.5667 H   0  0  0  0  0  0  0  0  0  0  0  0
    2.6018   -0.6665    6.1433 H   0  0  0  0  0  0  0  0  0  0  0  0
  1  2  1  0
  1 36  1  0
  1 37  1  0
  1 38  1  0
  2  3  1  0
  3  8  1  0
  3  4  1  0
  3 39  1  6
  4 32  1  0
  4  5  1  0
  4 40  1  1
  5  6  1  0
  5  7  1  0
  5 41  1  1
  6 42  1  0
  7  8  1  0
  7 43  1  0
  7 44  1  0
  8  9  1  6
  8 10  1  0
  9 45  1  0
 10 15  1  0
 10 11  1  0
 10 46  1  6
 11 12  1  0
 11 13  1  0
 11 47  1  6
 12 48  1  0
 13 30  1  0
 13 14  1  0
 13 49  1  6
 14 15  1  0
 14 50  1  0
 14 51  1  0
 15 16  1  0
 15 52  1  6
 16 35  1  0
 16 17  1  1
 16 28  1  0
 17 18  1  0
 17 53  1  0
 17 54  1  0
 18 19  1  0
 19 26  1  0
 19 20  1  0
 19 55  1  1
 20 21  1  0
 21 22  1  0
 21 23  1  0
 21 56  1  1
 22 57  1  0
 22 58  1  0
 22 59  1  0
 23 24  1  0
 23 60  1  0
 23 61  1  0
 24 25  1  0
 24 26  1  0
 24 62  1  6
 25 63  1  0
 26 27  1  0
 26 64  1  6
 27 65  1  0
 28 29  1  0
 28 30  1  0
 28 66  1  1
 29 67  1  0
 30 35  1  0
 30 31  1  1
 31 32  1  0
 31 68  1  0
 31 69  1  0
 32 33  1  1
 32 35  1  0
 33 34  1  0
 34 70  1  0
 34 71  1  0
 34 72  1  0
 35 73  1  1
M  END
>  <i_m_ct_stereo_status>  (265) 
1

>  <s_m_source_file>  (265) 
/var/tmp/pbs.5076255.sched01/tmprva83imr/861x3d95ot.sdf

>  <i_m_source_file_index>  (265) 
20

>  <i_lp_mmshare_version>  (265) 
48012

>  <i_f3d_flags>  (265) 
2

>  <s_epik_input>  (265) 
W0NAXTEyM1tDQEBIXTRbQ0BIXShbT0hdKVtDQEBIXTVbQ0BAXTYoW09IXSlbQ0BIXShPW0NIM10pW0NASF0oW0NAQEhdKFtPSF0pW0NIMl02KVtDQEBdKFtDSDJdMikoT1tDSDNdKVtDQEBIXTNbQ0BAXShbQ0BASF01W0NIMl00KShbQ0BIXTFbT0hdKVtDSDJdT1tDQEBIXTdPW0NAQEhdKFtDSDNdKVtDSDJdW0NAQEhdKFtPSF0pW0NASF03W09IXQ==

>  <s_epik_cmdline>  (265) 
J2VwaWtfcHl0aG9uJywgJy1waHQnLCAnMi4wJywgJy1waCcsICc3LjAnLCAnLXRuJywgJzgnLCAnLW1hJywgJzIwMCcsICctaW1hZScsICc8aW5maWxlLm1hZT4nLCAnLW9tYWUnLCAnPG91dGZpbGUubWFlPic=

>  <r_lp_tautomer_probability>  (265) 
1

>  <r_epik_Ionization_Penalty>  (265) 
2.03568e-06

>  <r_epik_Ionization_Penalty_Charging>  (265) 
0

>  <r_epik_Ionization_Penalty_Neutral>  (265) 
2.03568e-06

>  <r_epik_State_Penalty>  (265) 
-0

>  <r_epik_Charging_Adjusted_Penalty>  (265) 
0

>  <i_epik_Tot_Q>  (265) 
0

>  <i_epik_Tot_abs_Q>  (265) 
0

>  <s_epik_Chemistry_Notes>  (265) 
This compound contains an acetal/aminal-like group ( X-CH(R)-Y where X, Y are N, S, or O) that may be acid/base labile, releasing an aldehyde.

>  <s_lp_Force_Field>  (265) 
OPLS3e

>  <r_lp_Energy>  (265) 
202.475

>  <b_lp_Chiralities_Consistent>  (265) 
0

>  <s_lp_Variant>  (265) 
77:0-1

>  <s_i_glide_gridfile>  (265) 
pfpi4k_grid

>  <i_i_glide_lignum>  (265) 
20

>  <i_i_glide_rotatable_bonds>  (265) 
11

>  <r_i_docking_score>  (265) 
-2.42294

>  <r_i_glide_ligand_efficiency>  (265) 
-0.0692269

>  <r_i_glide_ligand_efficiency_sa>  (265) 
-0.226446

>  <r_i_glide_ligand_efficiency_ln>  (265) 
-0.531889

>  <r_i_glide_gscore>  (265) 
-2.42294

>  <r_i_glide_lipo>  (265) 
-0.114161

>  <r_i_glide_hbond>  (265) 
-0.00852576

>  <r_i_glide_metal>  (265) 
-0

>  <r_i_glide_rewards>  (265) 
-0.509796

>  <r_i_glide_evdw>  (265) 
-20.135

>  <r_i_glide_ecoul>  (265) 
-6.83063

>  <r_i_glide_erotb>  (265) 
0.246296

>  <r_i_glide_esite>  (265) 
-0.00541063

>  <r_i_glide_emodel>  (265) 
-36.6465

>  <r_i_glide_energy>  (265) 
-26.9656

>  <r_i_glide_einternal>  (265) 
2.47236

>  <r_i_glide_intrahb_reward>  (265) 
-0.5

>  <i_i_glide_confnum>  (265) 
1

>  <i_i_glide_posenum>  (265) 
4

>  <r_i_glide_eff_state_penalty>  (265) 
0

>  <ligand_id>  (265) 
77

>  <original_smiles>  (265) 
COC1C2C(O)CC1(O)C1C(O)C3CC1C1(COC4OC(C)CC(O)C4O)C(O)C34CC2(OC)C41

>  <smiles>  (265) 
[H]OC1([H])C([H])(OC([H])([H])C23C([H])(O[H])C45C([H])([H])C(OC([H])([H])[H])(C6([H])C([H])(O[H])C([H])([H])C(O[H])(C6([H])OC([H])([H])[H])C6([H])C([H])(O[H])C4([H])C([H])([H])C62[H])C35[H])OC([H])(C([H])([H])[H])C([H])([H])C1([H])O[H]

$$$$
77:0:2
     RDKit          3D

 73 79  0  0  1  0  0  0  0  0999 V2000
    4.9308   -6.3606    1.8360 C   0  0  0  0  0  0  0  0  0  0  0  0
    3.8010   -7.1757    1.5465 O   0  0  0  0  0  0  0  0  0  0  0  0
    2.9102   -7.3179    2.6540 C   0  0  2  0  0  0  0  0  0  0  0  0
    3.3765   -8.4999    3.5128 C   0  0  2  0  0  0  0  0  0  0  0  0
    2.9738   -9.7412    2.6994 C   0  0  1  0  0  0  0  0  0  0  0  0
    2.7449  -10.9044    3.4568 O   0  0  0  0  0  0  0  0  0  0  0  0
    1.8434   -9.2757    1.7588 C   0  0  0  0  0  0  0  0  0  0  0  0
    1.5555   -7.8048    2.1578 C   0  0  2  0  0  0  0  0  0  0  0  0
    1.2122   -6.9996    1.0411 O   0  0  0  0  0  0  0  0  0  0  0  0
    0.3769   -7.6202    3.1721 C   0  0  1  0  0  0  0  0  0  0  0  0
   -0.2020   -8.7876    4.0352 C   0  0  1  0  0  0  0  0  0  0  0  0
    0.2332  -10.1214    4.0507 O   0  0  0  0  0  0  0  0  0  0  0  0
   -0.3006   -8.1315    5.4005 C   0  0  2  0  0  0  0  0  0  0  0  0
   -0.9640   -6.8184    4.8781 C   0  0  0  0  0  0  0  0  0  0  0  0
    0.2495   -6.3361    4.1019 C   0  0  1  0  0  0  0  0  0  0  0  0
    1.3281   -6.0037    5.2367 C   0  0  1  0  0  0  0  0  0  0  0  0
    1.7878   -4.5527    5.0488 C   0  0  0  0  0  0  0  0  0  0  0  0
    0.6778   -3.6544    5.0274 O   0  0  0  0  0  0  0  0  0  0  0  0
    1.0129   -2.3679    4.5830 C   0  0  2  0  0  0  0  0  0  0  0  0
    2.0126   -1.7624    5.3586 O   0  0  0  0  0  0  0  0  0  0  0  0
    1.7004   -1.5484    6.7301 C   0  0  1  0  0  0  0  0  0  0  0  0
    2.9374   -0.9448    7.3999 C   0  0  0  0  0  0  0  0  0  0  0  0
    0.4831   -0.6184    6.8484 C   0  0  0  0  0  0  0  0  0  0  0  0
   -0.6791   -1.2003    6.0419 C   0  0  1  0  0  0  0  0  0  0  0  0
   -1.7913   -0.3271    6.0775 O   0  0  0  0  0  0  0  0  0  0  0  0
   -0.2574   -1.4781    4.5905 C   0  0  1  0  0  0  0  0  0  0  0  0
   -0.0489   -0.2829    3.8590 O   0  0  0  0  0  0  0  0  0  0  0  0
    1.0714   -6.4538    6.7781 C   0  0  1  0  0  0  0  0  0  0  0  0
   -0.0751   -6.0506    7.5027 O   0  0  0  0  0  0  0  0  0  0  0  0
    1.1074   -7.8589    6.1159 C   0  0  1  0  0  0  0  0  0  0  0  0
    2.1335   -9.0248    6.1004 C   0  0  0  0  0  0  0  0  0  0  0  0
    3.0531   -8.3458    5.0376 C   0  0  1  0  0  0  0  0  0  0  0  0
    4.3470   -8.4253    5.6616 O   0  0  0  0  0  0  0  0  0  0  0  0
    4.9532   -9.7183    5.7322 C   0  0  0  0  0  0  0  0  0  0  0  0
    2.4015   -7.0630    5.5481 C   0  0  1  0  0  0  0  0  0  0  0  0
    5.6018   -6.3562    0.9758 H   0  0  0  0  0  0  0  0  0  0  0  0
    5.4959   -6.7238    2.6972 H   0  0  0  0  0  0  0  0  0  0  0  0
    4.6273   -5.3313    2.0413 H   0  0  0  0  0  0  0  0  0  0  0  0
    2.8436   -6.3571    3.1506 H   0  0  0  0  0  0  0  0  0  0  0  0
    4.4614   -8.4866    3.4361 H   0  0  0  0  0  0  0  0  0  0  0  0
    3.8150   -9.9852    2.0492 H   0  0  0  0  0  0  0  0  0  0  0  0
    1.8954  -10.8066    3.8777 H   0  0  0  0  0  0  0  0  0  0  0  0
    2.2386   -9.3129    0.7444 H   0  0  0  0  0  0  0  0  0  0  0  0
    0.9699   -9.9238    1.7322 H   0  0  0  0  0  0  0  0  0  0  0  0
    1.9221   -7.0930    0.4199 H   0  0  0  0  0  0  0  0  0  0  0  0
   -0.4596   -7.4863    2.4792 H   0  0  0  0  0  0  0  0  0  0  0  0
   -1.2222   -8.9599    3.6742 H   0  0  0  0  0  0  0  0  0  0  0  0
   -0.4514  -10.6282    4.4859 H   0  0  0  0  0  0  0  0  0  0  0  0
   -0.9714   -8.7190    6.0318 H   0  0  0  0  0  0  0  0  0  0  0  0
   -1.8340   -6.9878    4.2302 H   0  0  0  0  0  0  0  0  0  0  0  0
   -1.3319   -6.0856    5.5854 H   0  0  0  0  0  0  0  0  0  0  0  0
    0.0209   -5.4625    3.4883 H   0  0  0  0  0  0  0  0  0  0  0  0
    2.4375   -4.2702    5.8741 H   0  0  0  0  0  0  0  0  0  0  0  0
    2.3764   -4.4519    4.1373 H   0  0  0  0  0  0  0  0  0  0  0  0
    1.3843   -2.4633    3.5608 H   0  0  0  0  0  0  0  0  0  0  0  0
    1.4724   -2.5058    7.2003 H   0  0  0  0  0  0  0  0  0  0  0  0
    2.7483   -0.7613    8.4559 H   0  0  0  0  0  0  0  0  0  0  0  0
    3.2204    0.0024    6.9419 H   0  0  0  0  0  0  0  0  0  0  0  0
    3.7926   -1.6151    7.3243 H   0  0  0  0  0  0  0  0  0  0  0  0
    0.2045   -0.5074    7.8982 H   0  0  0  0  0  0  0  0  0  0  0  0
    0.7326    0.3778    6.4821 H   0  0  0  0  0  0  0  0  0  0  0  0
   -0.9833   -2.1455    6.4996 H   0  0  0  0  0  0  0  0  0  0  0  0
   -1.5341    0.4901    5.6568 H   0  0  0  0  0  0  0  0  0  0  0  0
   -1.0421   -2.0362    4.0800 H   0  0  0  0  0  0  0  0  0  0  0  0
   -0.8556    0.2115    3.8022 H   0  0  0  0  0  0  0  0  0  0  0  0
    1.8541   -6.2716    7.5240 H   0  0  0  0  0  0  0  0  0  0  0  0
   -0.8086   -6.2046    6.9369 H   0  0  0  0  0  0  0  0  0  0  0  0
    2.5993   -9.0800    7.0818 H   0  0  0  0  0  0  0  0  0  0  0  0
    1.7650  -10.0192    5.8651 H   0  0  0  0  0  0  0  0  0  0  0  0
    5.8991   -9.6261    6.2626 H   0  0  0  0  0  0  0  0  0  0  0  0
    5.1759  -10.1325    4.7491 H   0  0  0  0  0  0  0  0  0  0  0  0
    4.3456  -10.4428    6.2755 H   0  0  0  0  0  0  0  0  0  0  0  0
    3.2032   -6.6519    6.1785 H   0  0  0  0  0  0  0  0  0  0  0  0
  1  2  1  0
  1 36  1  0
  1 37  1  0
  1 38  1  0
  2  3  1  0
  3  8  1  0
  3  4  1  0
  3 39  1  1
  4 32  1  0
  4  5  1  0
  4 40  1  1
  5  6  1  0
  5  7  1  0
  5 41  1  6
  6 42  1  0
  7  8  1  0
  7 43  1  0
  7 44  1  0
  8  9  1  6
  8 10  1  0
  9 45  1  0
 10 15  1  0
 10 11  1  0
 10 46  1  6
 11 12  1  0
 11 13  1  0
 11 47  1  6
 12 48  1  0
 13 30  1  0
 13 14  1  0
 13 49  1  1
 14 15  1  0
 14 50  1  0
 14 51  1  0
 15 16  1  0
 15 52  1  6
 16 35  1  0
 16 17  1  1
 16 28  1  0
 17 18  1  0
 17 53  1  0
 17 54  1  0
 18 19  1  0
 19 26  1  0
 19 20  1  0
 19 55  1  6
 20 21  1  0
 21 22  1  0
 21 23  1  0
 21 56  1  1
 22 57  1  0
 22 58  1  0
 22 59  1  0
 23 24  1  0
 23 60  1  0
 23 61  1  0
 24 25  1  0
 24 26  1  0
 24 62  1  1
 25 63  1  0
 26 27  1  0
 26 64  1  6
 27 65  1  0
 28 29  1  0
 28 30  1  0
 28 66  1  1
 29 67  1  0
 30 35  1  0
 30 31  1  1
 31 32  1  0
 31 68  1  0
 31 69  1  0
 32 33  1  1
 32 35  1  0
 33 34  1  0
 34 70  1  0
 34 71  1  0
 34 72  1  0
 35 73  1  1
M  END
>  <i_m_ct_stereo_status>  (266) 
1

>  <s_m_source_file>  (266) 
/var/tmp/pbs.5076255.sched01/tmprva83imr/861x3d95ot.sdf

>  <i_m_source_file_index>  (266) 
20

>  <i_lp_mmshare_version>  (266) 
48012

>  <i_f3d_flags>  (266) 
2

>  <s_epik_input>  (266) 
W0NAXTEyM1tDQEBIXTRbQ0BIXShbT0hdKVtDQEBIXTVbQ0BAXTYoW09IXSlbQ0BIXShPW0NIM10pW0NASF0oW0NAQEhdKFtPSF0pW0NIMl02KVtDQEBdKFtDSDJdMikoT1tDSDNdKVtDQEBIXTNbQ0BAXShbQ0BASF01W0NIMl00KShbQ0BIXTFbT0hdKVtDSDJdT1tDQEBIXTdPW0NAQEhdKFtDSDNdKVtDSDJdW0NAQEhdKFtPSF0pW0NASF03W09IXQ==

>  <s_epik_cmdline>  (266) 
J2VwaWtfcHl0aG9uJywgJy1waHQnLCAnMi4wJywgJy1waCcsICc3LjAnLCAnLXRuJywgJzgnLCAnLW1hJywgJzIwMCcsICctaW1hZScsICc8aW5maWxlLm1hZT4nLCAnLW9tYWUnLCAnPG91dGZpbGUubWFlPic=

>  <r_lp_tautomer_probability>  (266) 
1

>  <r_epik_Ionization_Penalty>  (266) 
2.03568e-06

>  <r_epik_Ionization_Penalty_Charging>  (266) 
0

>  <r_epik_Ionization_Penalty_Neutral>  (266) 
2.03568e-06

>  <r_epik_State_Penalty>  (266) 
-0

>  <r_epik_Charging_Adjusted_Penalty>  (266) 
0

>  <i_epik_Tot_Q>  (266) 
0

>  <i_epik_Tot_abs_Q>  (266) 
0

>  <s_epik_Chemistry_Notes>  (266) 
This compound contains an acetal/aminal-like group ( X-CH(R)-Y where X, Y are N, S, or O) that may be acid/base labile, releasing an aldehyde.

>  <s_lp_Force_Field>  (266) 
OPLS3e

>  <r_lp_Energy>  (266) 
202.475

>  <b_lp_Chiralities_Consistent>  (266) 
0

>  <s_lp_Variant>  (266) 
77:0-1

>  <s_i_glide_gridfile>  (266) 
pfpi4k_grid

>  <i_i_glide_lignum>  (266) 
20

>  <i_i_glide_rotatable_bonds>  (266) 
11

>  <r_i_docking_score>  (266) 
-2.38544

>  <r_i_glide_ligand_efficiency>  (266) 
-0.0681554

>  <r_i_glide_ligand_efficiency_sa>  (266) 
-0.222941

>  <r_i_glide_ligand_efficiency_ln>  (266) 
-0.523657

>  <r_i_glide_gscore>  (266) 
-2.38544

>  <r_i_glide_lipo>  (266) 
-0.117416

>  <r_i_glide_hbond>  (266) 
0

>  <r_i_glide_metal>  (266) 
-0

>  <r_i_glide_rewards>  (266) 
-0.518984

>  <r_i_glide_evdw>  (266) 
-21.9129

>  <r_i_glide_ecoul>  (266) 
-5.99794

>  <r_i_glide_erotb>  (266) 
0.246296

>  <r_i_glide_esite>  (266) 
0

>  <r_i_glide_emodel>  (266) 
-37.7573

>  <r_i_glide_energy>  (266) 
-27.9108

>  <r_i_glide_einternal>  (266) 
2.06342

>  <r_i_glide_intrahb_reward>  (266) 
-0.5

>  <i_i_glide_confnum>  (266) 
3

>  <i_i_glide_posenum>  (266) 
33

>  <r_i_glide_eff_state_penalty>  (266) 
0

>  <ligand_id>  (266) 
77

>  <original_smiles>  (266) 
COC1C2C(O)CC1(O)C1C(O)C3CC1C1(COC4OC(C)CC(O)C4O)C(O)C34CC2(OC)C41

>  <smiles>  (266) 
[H]OC1([H])C([H])(OC([H])([H])C23C([H])(O[H])C45C([H])([H])C(OC([H])([H])[H])(C6([H])C([H])(O[H])C([H])([H])C(O[H])(C6([H])OC([H])([H])[H])C6([H])C([H])(O[H])C4([H])C([H])([H])C62[H])C35[H])OC([H])(C([H])([H])[H])C([H])([H])C1([H])O[H]

$$$$
78:0:0
     RDKit          3D

 48 51  0  0  1  0  0  0  0  0999 V2000
   -0.1782   -0.6665    6.3449 C   0  0  0  0  0  0  0  0  0  0  0  0
   -0.6169    0.4349    5.7082 C   0  0  0  0  0  0  0  0  0  0  0  0
   -0.3598    1.0167    4.3882 C   0  0  0  0  0  0  0  0  0  0  0  0
    0.4552    0.5369    3.4235 C   0  0  0  0  0  0  0  0  0  0  0  0
    1.2161   -0.6315    3.5164 N   0  0  0  0  0  0  0  0  0  0  0  0
    2.0936   -0.8525    2.6237 C   0  0  0  0  0  0  0  0  0  0  0  0
    2.9288   -2.1322    2.5651 C   0  0  2  0  0  0  0  0  0  0  0  0
    4.3981   -1.8730    2.9542 C   0  0  0  0  0  0  0  0  0  0  0  0
    4.7780   -2.0321    4.1098 O   0  0  0  0  0  0  0  0  0  0  0  0
    5.2258   -1.4964    1.9453 O   0  0  0  0  0  0  0  0  0  0  0  0
    4.7154   -1.2491    0.6380 C   0  0  1  0  0  0  0  0  0  0  0  0
    5.8533   -0.8292   -0.2963 C   0  0  0  0  0  0  0  0  0  0  0  0
    3.8789   -2.4594    0.1558 C   0  0  1  0  0  0  0  0  0  0  0  0
    4.6725   -3.7449   -0.1411 C   0  0  0  0  0  0  0  0  0  0  0  0
    3.7069   -4.8968    0.1565 C   0  0  1  0  0  0  0  0  0  0  0  0
    4.4112   -6.2300    0.4497 C   0  0  0  0  0  0  0  0  0  0  0  0
    2.8655   -4.3938    1.3295 C   0  0  0  0  0  0  0  0  0  0  0  0
    2.8038   -2.8582    1.1976 C   0  0  1  0  0  0  0  0  0  0  0  0
   -1.1070    2.2080    4.2877 N   0  0  0  0  0  0  0  0  0  0  0  0
   -1.1651    3.0530    3.1092 C   0  0  0  0  0  0  0  0  0  0  0  0
   -1.7799    2.3665    5.4880 C   0  0  0  0  0  0  0  0  0  0  0  0
   -2.6125    3.2452    6.0171 N   0  0  0  0  0  0  0  0  0  0  0  0
   -2.8166    2.6052    7.2268 C   0  0  0  0  0  0  0  0  0  0  0  0
   -2.1733    1.4350    7.4111 N   0  0  0  0  0  0  0  0  0  0  0  0
   -1.4968    1.3535    6.2510 N   0  0  0  0  0  0  0  0  0  0  0  0
   -0.4930   -0.8985    7.3449 H   0  0  0  0  0  0  0  0  0  0  0  0
    0.5135   -1.3533    5.8864 H   0  0  0  0  0  0  0  0  0  0  0  0
    0.5375    1.0847    2.4943 H   0  0  0  0  0  0  0  0  0  0  0  0
    2.2965   -0.1381    1.8171 H   0  0  0  0  0  0  0  0  0  0  0  0
    2.5408   -2.7885    3.3375 H   0  0  0  0  0  0  0  0  0  0  0  0
    4.0590   -0.3822    0.7088 H   0  0  0  0  0  0  0  0  0  0  0  0
    5.4790   -0.6270   -1.3009 H   0  0  0  0  0  0  0  0  0  0  0  0
    6.6430   -1.5802   -0.3560 H   0  0  0  0  0  0  0  0  0  0  0  0
    6.3030    0.0914    0.0792 H   0  0  0  0  0  0  0  0  0  0  0  0
    3.3589   -2.1732   -0.7595 H   0  0  0  0  0  0  0  0  0  0  0  0
    5.0290   -3.7787   -1.1734 H   0  0  0  0  0  0  0  0  0  0  0  0
    5.5441   -3.8180    0.5119 H   0  0  0  0  0  0  0  0  0  0  0  0
    3.0503   -5.0167   -0.7057 H   0  0  0  0  0  0  0  0  0  0  0  0
    5.0823   -6.1404    1.3053 H   0  0  0  0  0  0  0  0  0  0  0  0
    5.0047   -6.5558   -0.4034 H   0  0  0  0  0  0  0  0  0  0  0  0
    3.6929   -7.0182    0.6762 H   0  0  0  0  0  0  0  0  0  0  0  0
    1.8693   -4.8398    1.3227 H   0  0  0  0  0  0  0  0  0  0  0  0
    3.3332   -4.6830    2.2727 H   0  0  0  0  0  0  0  0  0  0  0  0
    1.8302   -2.6093    0.7706 H   0  0  0  0  0  0  0  0  0  0  0  0
   -1.7343    3.9565    3.3266 H   0  0  0  0  0  0  0  0  0  0  0  0
   -1.6580    2.5229    2.2952 H   0  0  0  0  0  0  0  0  0  0  0  0
   -0.1608    3.3440    2.8065 H   0  0  0  0  0  0  0  0  0  0  0  0
   -3.4738    2.9958    7.9916 H   0  0  0  0  0  0  0  0  0  0  0  0
  1  2  2  0
  1 26  1  0
  1 27  1  0
  2 25  1  0
  2  3  1  0
  3  4  2  3
  3 19  1  0
  4  5  1  0
  4 28  1  0
  5  6  2  3
  6  7  1  0
  6 29  1  0
  7 18  1  0
  7  8  1  0
  7 30  1  1
  8  9  2  0
  8 10  1  0
 10 11  1  0
 11 12  1  0
 11 13  1  0
 11 31  1  1
 12 32  1  0
 12 33  1  0
 12 34  1  0
 13 18  1  0
 13 14  1  0
 13 35  1  6
 14 15  1  0
 14 36  1  0
 14 37  1  0
 15 16  1  0
 15 17  1  0
 15 38  1  6
 16 39  1  0
 16 40  1  0
 16 41  1  0
 17 18  1  0
 17 42  1  0
 17 43  1  0
 18 44  1  6
 19 20  1  0
 19 21  1  0
 20 45  1  0
 20 46  1  0
 20 47  1  0
 21 25  1  0
 21 22  2  0
 22 23  1  0
 23 24  2  0
 23 48  1  0
 24 25  1  0
M  END
>  <i_m_ct_stereo_status>  (267) 
1

>  <s_m_source_file>  (267) 
/var/tmp/pbs.5076255.sched01/tmprva83imr/861x3d95ot.sdf

>  <i_m_source_file_index>  (267) 
21

>  <i_lp_mmshare_version>  (267) 
48012

>  <i_f3d_flags>  (267) 
0

>  <s_epik_input>  (267) 
bjFbY0hdbm4oYzEyKWMoPVtDSDJdKS9jKG4yW0NIM10pPVtDSF1cTj1bQ0hdXFtDQEhdKEMoPU8pT1tDQEhdM1tDSDNdKVtDQEBIXShbQ0BASF0zNClbQ0gyXVtDQEBIXShbQ0gyXTQpW0NIM10=

>  <s_epik_cmdline>  (267) 
J2VwaWtfcHl0aG9uJywgJy1waHQnLCAnMi4wJywgJy1waCcsICc3LjAnLCAnLXRuJywgJzgnLCAnLW1hJywgJzIwMCcsICctaW1hZScsICc8aW5maWxlLm1hZT4nLCAnLW9tYWUnLCAnPG91dGZpbGUubWFlPic=

>  <r_lp_tautomer_probability>  (267) 
1

>  <r_epik_Ionization_Penalty>  (267) 
1.12914e-07

>  <r_epik_Ionization_Penalty_Charging>  (267) 
1.11507e-07

>  <r_epik_Ionization_Penalty_Neutral>  (267) 
1.407e-09

>  <r_epik_State_Penalty>  (267) 
-0

>  <r_epik_Charging_Adjusted_Penalty>  (267) 
1.11507e-07

>  <i_epik_Tot_Q>  (267) 
0

>  <i_epik_Tot_abs_Q>  (267) 
0

>  <s_epik_Chemistry_Notes>  (267) 
This compound has an ester and may undergo hydrolysis at high or low pH. This compound has an imine and may undergo hydrolysis.

>  <s_lp_Force_Field>  (267) 
OPLS3e

>  <r_lp_Energy>  (267) 
29.2177

>  <b_lp_Chiralities_Consistent>  (267) 
1

>  <s_lp_Variant>  (267) 
78:0-1

>  <s_i_glide_gridfile>  (267) 
pfpi4k_grid

>  <i_i_glide_lignum>  (267) 
21

>  <i_i_glide_rotatable_bonds>  (267) 
2

>  <r_i_docking_score>  (267) 
-3.21397

>  <r_i_glide_ligand_efficiency>  (267) 
-0.128559

>  <r_i_glide_ligand_efficiency_sa>  (267) 
-0.375908

>  <r_i_glide_ligand_efficiency_ln>  (267) 
-0.761807

>  <r_i_glide_gscore>  (267) 
-3.21397

>  <r_i_glide_lipo>  (267) 
-0.199364

>  <r_i_glide_hbond>  (267) 
-0.124826

>  <r_i_glide_metal>  (267) 
-0

>  <r_i_glide_rewards>  (267) 
-1.38842

>  <r_i_glide_evdw>  (267) 
-24.0195

>  <r_i_glide_ecoul>  (267) 
-3.66261

>  <r_i_glide_erotb>  (267) 
0.32515

>  <r_i_glide_esite>  (267) 
-0.0761456

>  <r_i_glide_emodel>  (267) 
-34.1759

>  <r_i_glide_energy>  (267) 
-27.6821

>  <r_i_glide_einternal>  (267) 
0.165512

>  <r_i_glide_intrahb_reward>  (267) 
-0

>  <i_i_glide_confnum>  (267) 
1

>  <i_i_glide_posenum>  (267) 
18

>  <r_i_glide_eff_state_penalty>  (267) 
0

>  <ligand_id>  (267) 
78

>  <original_smiles>  (267) 
C=c1c(=CN=CC2C(=O)OC(C)C3CC(C)CC23)n(C)c2ncnn12

>  <smiles>  (267) 
[H]C(=NC([H])=c1c(=C([H])[H])n2nc([H])nc2n1C([H])([H])[H])C1([H])C(=O)OC([H])(C([H])([H])[H])C2([H])C([H])([H])C([H])(C([H])([H])[H])C([H])([H])C12[H]

$$$$
78:0:1
     RDKit          3D

 48 51  0  0  1  0  0  0  0  0999 V2000
    0.4901   -0.4926    6.0735 C   0  0  0  0  0  0  0  0  0  0  0  0
   -0.1769    0.4992    5.4595 C   0  0  0  0  0  0  0  0  0  0  0  0
   -0.1342    1.0752    4.1124 C   0  0  0  0  0  0  0  0  0  0  0  0
    0.6640    0.7099    3.0811 C   0  0  0  0  0  0  0  0  0  0  0  0
    1.6148   -0.3139    3.1095 N   0  0  0  0  0  0  0  0  0  0  0  0
    2.4082   -0.4386    2.1220 C   0  0  0  0  0  0  0  0  0  0  0  0
    3.4268   -1.5744    2.0271 C   0  0  2  0  0  0  0  0  0  0  0  0
    4.8112   -1.0651    1.5714 C   0  0  0  0  0  0  0  0  0  0  0  0
    5.6642   -0.7529    2.4001 O   0  0  0  0  0  0  0  0  0  0  0  0
    5.0174   -1.0163    0.2315 O   0  0  0  0  0  0  0  0  0  0  0  0
    3.9610   -1.3055   -0.6768 C   0  0  1  0  0  0  0  0  0  0  0  0
    4.4492   -1.1361   -2.1244 C   0  0  0  0  0  0  0  0  0  0  0  0
    3.3248   -2.6716   -0.3395 C   0  0  1  0  0  0  0  0  0  0  0  0
    4.2082   -3.8979   -0.6116 C   0  0  0  0  0  0  0  0  0  0  0  0
    3.7742   -4.9472    0.4178 C   0  0  1  0  0  0  0  0  0  0  0  0
    4.8442   -6.0126    0.6924 C   0  0  0  0  0  0  0  0  0  0  0  0
    3.4066   -4.1308    1.6593 C   0  0  0  0  0  0  0  0  0  0  0  0
    2.9209   -2.7575    1.1548 C   0  0  1  0  0  0  0  0  0  0  0  0
   -1.0787    2.1174    4.0601 N   0  0  0  0  0  0  0  0  0  0  0  0
   -1.3830    2.9037    2.8785 C   0  0  0  0  0  0  0  0  0  0  0  0
   -1.6630    2.2103    5.3138 C   0  0  0  0  0  0  0  0  0  0  0  0
   -2.5792    2.9626    5.8994 N   0  0  0  0  0  0  0  0  0  0  0  0
   -2.5714    2.3361    7.1317 C   0  0  0  0  0  0  0  0  0  0  0  0
   -1.7361    1.2889    7.2785 N   0  0  0  0  0  0  0  0  0  0  0  0
   -1.1520    1.2781    6.0645 N   0  0  0  0  0  0  0  0  0  0  0  0
    0.2997   -0.7489    7.1021 H   0  0  0  0  0  0  0  0  0  0  0  0
    1.2492   -1.0683    5.5654 H   0  0  0  0  0  0  0  0  0  0  0  0
    0.5686    1.2388    2.1426 H   0  0  0  0  0  0  0  0  0  0  0  0
    2.3987    0.2534    1.2714 H   0  0  0  0  0  0  0  0  0  0  0  0
    3.5768   -1.9397    3.0411 H   0  0  0  0  0  0  0  0  0  0  0  0
    3.1885   -0.5616   -0.5194 H   0  0  0  0  0  0  0  0  0  0  0  0
    3.6482   -1.3423   -2.8358 H   0  0  0  0  0  0  0  0  0  0  0  0
    5.2970   -1.7818   -2.3564 H   0  0  0  0  0  0  0  0  0  0  0  0
    4.7649   -0.1056   -2.2916 H   0  0  0  0  0  0  0  0  0  0  0  0
    2.4169   -2.7787   -0.9356 H   0  0  0  0  0  0  0  0  0  0  0  0
    4.0932   -4.2530   -1.6374 H   0  0  0  0  0  0  0  0  0  0  0  0
    5.2604   -3.6502   -0.4642 H   0  0  0  0  0  0  0  0  0  0  0  0
    2.8718   -5.4381    0.0484 H   0  0  0  0  0  0  0  0  0  0  0  0
    5.7685   -5.5587    1.0540 H   0  0  0  0  0  0  0  0  0  0  0  0
    5.0755   -6.5706   -0.2141 H   0  0  0  0  0  0  0  0  0  0  0  0
    4.5110   -6.7258    1.4471 H   0  0  0  0  0  0  0  0  0  0  0  0
    2.6429   -4.6336    2.2567 H   0  0  0  0  0  0  0  0  0  0  0  0
    4.2836   -4.0154    2.2986 H   0  0  0  0  0  0  0  0  0  0  0  0
    1.8321   -2.7624    1.2022 H   0  0  0  0  0  0  0  0  0  0  0  0
   -2.0730    3.7106    3.1318 H   0  0  0  0  0  0  0  0  0  0  0  0
   -1.8494    2.2728    2.1212 H   0  0  0  0  0  0  0  0  0  0  0  0
   -0.4702    3.3430    2.4847 H   0  0  0  0  0  0  0  0  0  0  0  0
   -3.2256    2.6358    7.9415 H   0  0  0  0  0  0  0  0  0  0  0  0
  1  2  2  0
  1 26  1  0
  1 27  1  0
  2 25  1  0
  2  3  1  0
  3  4  2  3
  3 19  1  0
  4  5  1  0
  4 28  1  0
  5  6  2  3
  6  7  1  0
  6 29  1  0
  7 18  1  0
  7  8  1  0
  7 30  1  1
  8  9  2  0
  8 10  1  0
 10 11  1  0
 11 12  1  0
 11 13  1  0
 11 31  1  1
 12 32  1  0
 12 33  1  0
 12 34  1  0
 13 18  1  0
 13 14  1  0
 13 35  1  6
 14 15  1  0
 14 36  1  0
 14 37  1  0
 15 16  1  0
 15 17  1  0
 15 38  1  6
 16 39  1  0
 16 40  1  0
 16 41  1  0
 17 18  1  0
 17 42  1  0
 17 43  1  0
 18 44  1  6
 19 20  1  0
 19 21  1  0
 20 45  1  0
 20 46  1  0
 20 47  1  0
 21 25  1  0
 21 22  2  0
 22 23  1  0
 23 24  2  0
 23 48  1  0
 24 25  1  0
M  END
>  <i_m_ct_stereo_status>  (268) 
1

>  <s_m_source_file>  (268) 
/var/tmp/pbs.5076255.sched01/tmprva83imr/861x3d95ot.sdf

>  <i_m_source_file_index>  (268) 
21

>  <i_lp_mmshare_version>  (268) 
48012

>  <i_f3d_flags>  (268) 
0

>  <s_epik_input>  (268) 
bjFbY0hdbm4oYzEyKWMoPVtDSDJdKS9jKG4yW0NIM10pPVtDSF1cTj1bQ0hdXFtDQEhdKEMoPU8pT1tDQEhdM1tDSDNdKVtDQEBIXShbQ0BASF0zNClbQ0gyXVtDQEBIXShbQ0gyXTQpW0NIM10=

>  <s_epik_cmdline>  (268) 
J2VwaWtfcHl0aG9uJywgJy1waHQnLCAnMi4wJywgJy1waCcsICc3LjAnLCAnLXRuJywgJzgnLCAnLW1hJywgJzIwMCcsICctaW1hZScsICc8aW5maWxlLm1hZT4nLCAnLW9tYWUnLCAnPG91dGZpbGUubWFlPic=

>  <r_lp_tautomer_probability>  (268) 
1

>  <r_epik_Ionization_Penalty>  (268) 
1.12914e-07

>  <r_epik_Ionization_Penalty_Charging>  (268) 
1.11507e-07

>  <r_epik_Ionization_Penalty_Neutral>  (268) 
1.407e-09

>  <r_epik_State_Penalty>  (268) 
-0

>  <r_epik_Charging_Adjusted_Penalty>  (268) 
1.11507e-07

>  <i_epik_Tot_Q>  (268) 
0

>  <i_epik_Tot_abs_Q>  (268) 
0

>  <s_epik_Chemistry_Notes>  (268) 
This compound has an ester and may undergo hydrolysis at high or low pH. This compound has an imine and may undergo hydrolysis.

>  <s_lp_Force_Field>  (268) 
OPLS3e

>  <r_lp_Energy>  (268) 
29.2177

>  <b_lp_Chiralities_Consistent>  (268) 
1

>  <s_lp_Variant>  (268) 
78:0-1

>  <s_i_glide_gridfile>  (268) 
pfpi4k_grid

>  <i_i_glide_lignum>  (268) 
21

>  <i_i_glide_rotatable_bonds>  (268) 
2

>  <r_i_docking_score>  (268) 
-3.17039

>  <r_i_glide_ligand_efficiency>  (268) 
-0.126816

>  <r_i_glide_ligand_efficiency_sa>  (268) 
-0.370811

>  <r_i_glide_ligand_efficiency_ln>  (268) 
-0.751477

>  <r_i_glide_gscore>  (268) 
-3.17039

>  <r_i_glide_lipo>  (268) 
-0.118428

>  <r_i_glide_hbond>  (268) 
-0.113193

>  <r_i_glide_metal>  (268) 
-0

>  <r_i_glide_rewards>  (268) 
-1.28883

>  <r_i_glide_evdw>  (268) 
-26.2229

>  <r_i_glide_ecoul>  (268) 
-3.80921

>  <r_i_glide_erotb>  (268) 
0.32515

>  <r_i_glide_esite>  (268) 
-0.092563

>  <r_i_glide_emodel>  (268) 
-36.4563

>  <r_i_glide_energy>  (268) 
-30.0321

>  <r_i_glide_einternal>  (268) 
0.140189

>  <r_i_glide_intrahb_reward>  (268) 
-0

>  <i_i_glide_confnum>  (268) 
1

>  <i_i_glide_posenum>  (268) 
1

>  <r_i_glide_eff_state_penalty>  (268) 
0

>  <ligand_id>  (268) 
78

>  <original_smiles>  (268) 
C=c1c(=CN=CC2C(=O)OC(C)C3CC(C)CC23)n(C)c2ncnn12

>  <smiles>  (268) 
[H]C(=NC([H])=c1c(=C([H])[H])n2nc([H])nc2n1C([H])([H])[H])C1([H])C(=O)OC([H])(C([H])([H])[H])C2([H])C([H])([H])C([H])(C([H])([H])[H])C([H])([H])C12[H]

$$$$
78:0:2
     RDKit          3D

 48 51  0  0  1  0  0  0  0  0999 V2000
    6.2400   -0.6627    1.9555 C   0  0  0  0  0  0  0  0  0  0  0  0
    5.6585   -1.2462    0.8987 C   0  0  0  0  0  0  0  0  0  0  0  0
    4.2815   -1.3101    0.4188 C   0  0  0  0  0  0  0  0  0  0  0  0
    3.1967   -0.7285    0.9861 C   0  0  0  0  0  0  0  0  0  0  0  0
    3.2077    0.0437    2.1488 N   0  0  0  0  0  0  0  0  0  0  0  0
    2.1555    0.6969    2.4391 C   0  0  0  0  0  0  0  0  0  0  0  0
    2.0222    1.6281    3.6450 C   0  0  2  0  0  0  0  0  0  0  0  0
    1.9170    0.8403    4.9659 C   0  0  0  0  0  0  0  0  0  0  0  0
    2.9153    0.6079    5.6378 O   0  0  0  0  0  0  0  0  0  0  0  0
    0.6651    0.4658    5.3350 O   0  0  0  0  0  0  0  0  0  0  0  0
   -0.4474    0.6917    4.4767 C   0  0  1  0  0  0  0  0  0  0  0  0
   -1.7282    0.1534    5.1297 C   0  0  0  0  0  0  0  0  0  0  0  0
   -0.4974    2.1809    4.0553 C   0  0  1  0  0  0  0  0  0  0  0  0
   -0.8484    3.1843    5.1687 C   0  0  0  0  0  0  0  0  0  0  0  0
   -0.1271    4.4833    4.7888 C   0  0  1  0  0  0  0  0  0  0  0  0
    0.1176    5.4224    5.9791 C   0  0  0  0  0  0  0  0  0  0  0  0
    1.1686    4.0169    4.1245 C   0  0  0  0  0  0  0  0  0  0  0  0
    0.8621    2.6516    3.4824 C   0  0  1  0  0  0  0  0  0  0  0  0
    4.2632   -2.0707   -0.7659 N   0  0  0  0  0  0  0  0  0  0  0  0
    3.0845   -2.3203   -1.5772 C   0  0  0  0  0  0  0  0  0  0  0  0
    5.5716   -2.4623   -1.0115 C   0  0  0  0  0  0  0  0  0  0  0  0
    6.2140   -3.1390   -1.9443 N   0  0  0  0  0  0  0  0  0  0  0  0
    7.4865   -3.0458   -1.4097 C   0  0  0  0  0  0  0  0  0  0  0  0
    7.6141   -2.3106   -0.2880 N   0  0  0  0  0  0  0  0  0  0  0  0
    6.3249   -1.9833   -0.0666 N   0  0  0  0  0  0  0  0  0  0  0  0
    7.3004   -0.7296    2.0939 H   0  0  0  0  0  0  0  0  0  0  0  0
    5.6926   -0.0947    2.6891 H   0  0  0  0  0  0  0  0  0  0  0  0
    2.2380   -0.8563    0.5117 H   0  0  0  0  0  0  0  0  0  0  0  0
    1.2555    0.6557    1.8096 H   0  0  0  0  0  0  0  0  0  0  0  0
    2.9569    2.1750    3.7004 H   0  0  0  0  0  0  0  0  0  0  0  0
   -0.2834    0.0909    3.5815 H   0  0  0  0  0  0  0  0  0  0  0  0
   -2.5829    0.3105    4.4804 H   0  0  0  0  0  0  0  0  0  0  0  0
   -1.9303    0.6199    6.0953 H   0  0  0  0  0  0  0  0  0  0  0  0
   -1.6345   -0.9207    5.2953 H   0  0  0  0  0  0  0  0  0  0  0  0
   -1.2438    2.2900    3.2675 H   0  0  0  0  0  0  0  0  0  0  0  0
   -1.9264    3.3331    5.2621 H   0  0  0  0  0  0  0  0  0  0  0  0
   -0.4794    2.8303    6.1321 H   0  0  0  0  0  0  0  0  0  0  0  0
   -0.7219    5.0013    4.0331 H   0  0  0  0  0  0  0  0  0  0  0  0
    0.7173    4.9311    6.7466 H   0  0  0  0  0  0  0  0  0  0  0  0
   -0.8184    5.7302    6.4432 H   0  0  0  0  0  0  0  0  0  0  0  0
    0.6527    6.3219    5.6705 H   0  0  0  0  0  0  0  0  0  0  0  0
    1.5130    4.7361    3.3756 H   0  0  0  0  0  0  0  0  0  0  0  0
    1.9629    3.9239    4.8665 H   0  0  0  0  0  0  0  0  0  0  0  0
    0.7181    2.8411    2.4176 H   0  0  0  0  0  0  0  0  0  0  0  0
    3.3273   -3.0218   -2.3741 H   0  0  0  0  0  0  0  0  0  0  0  0
    2.7388   -1.3908   -2.0259 H   0  0  0  0  0  0  0  0  0  0  0  0
    2.2839   -2.7494   -0.9741 H   0  0  0  0  0  0  0  0  0  0  0  0
    8.3576   -3.4855   -1.8818 H   0  0  0  0  0  0  0  0  0  0  0  0
  1  2  2  0
  1 26  1  0
  1 27  1  0
  2 25  1  0
  2  3  1  0
  3  4  2  3
  3 19  1  0
  4  5  1  0
  4 28  1  0
  5  6  2  3
  6  7  1  0
  6 29  1  0
  7 18  1  0
  7  8  1  0
  7 30  1  1
  8  9  2  0
  8 10  1  0
 10 11  1  0
 11 12  1  0
 11 13  1  0
 11 31  1  6
 12 32  1  0
 12 33  1  0
 12 34  1  0
 13 18  1  0
 13 14  1  0
 13 35  1  6
 14 15  1  0
 14 36  1  0
 14 37  1  0
 15 16  1  0
 15 17  1  0
 15 38  1  6
 16 39  1  0
 16 40  1  0
 16 41  1  0
 17 18  1  0
 17 42  1  0
 17 43  1  0
 18 44  1  6
 19 20  1  0
 19 21  1  0
 20 45  1  0
 20 46  1  0
 20 47  1  0
 21 25  1  0
 21 22  2  0
 22 23  1  0
 23 24  2  0
 23 48  1  0
 24 25  1  0
M  END
>  <i_m_ct_stereo_status>  (269) 
1

>  <s_m_source_file>  (269) 
/var/tmp/pbs.5076255.sched01/tmprva83imr/861x3d95ot.sdf

>  <i_m_source_file_index>  (269) 
21

>  <i_lp_mmshare_version>  (269) 
48012

>  <i_f3d_flags>  (269) 
0

>  <s_epik_input>  (269) 
bjFbY0hdbm4oYzEyKWMoPVtDSDJdKS9jKG4yW0NIM10pPVtDSF1cTj1bQ0hdXFtDQEhdKEMoPU8pT1tDQEhdM1tDSDNdKVtDQEBIXShbQ0BASF0zNClbQ0gyXVtDQEBIXShbQ0gyXTQpW0NIM10=

>  <s_epik_cmdline>  (269) 
J2VwaWtfcHl0aG9uJywgJy1waHQnLCAnMi4wJywgJy1waCcsICc3LjAnLCAnLXRuJywgJzgnLCAnLW1hJywgJzIwMCcsICctaW1hZScsICc8aW5maWxlLm1hZT4nLCAnLW9tYWUnLCAnPG91dGZpbGUubWFlPic=

>  <r_lp_tautomer_probability>  (269) 
1

>  <r_epik_Ionization_Penalty>  (269) 
1.12914e-07

>  <r_epik_Ionization_Penalty_Charging>  (269) 
1.11507e-07

>  <r_epik_Ionization_Penalty_Neutral>  (269) 
1.407e-09

>  <r_epik_State_Penalty>  (269) 
-0

>  <r_epik_Charging_Adjusted_Penalty>  (269) 
1.11507e-07

>  <i_epik_Tot_Q>  (269) 
0

>  <i_epik_Tot_abs_Q>  (269) 
0

>  <s_epik_Chemistry_Notes>  (269) 
This compound has an ester and may undergo hydrolysis at high or low pH. This compound has an imine and may undergo hydrolysis.

>  <s_lp_Force_Field>  (269) 
OPLS3e

>  <r_lp_Energy>  (269) 
29.2177

>  <b_lp_Chiralities_Consistent>  (269) 
1

>  <s_lp_Variant>  (269) 
78:0-1

>  <s_i_glide_gridfile>  (269) 
pfpi4k_grid

>  <i_i_glide_lignum>  (269) 
21

>  <i_i_glide_rotatable_bonds>  (269) 
2

>  <r_i_docking_score>  (269) 
-2.86312

>  <r_i_glide_ligand_efficiency>  (269) 
-0.114525

>  <r_i_glide_ligand_efficiency_sa>  (269) 
-0.334873

>  <r_i_glide_ligand_efficiency_ln>  (269) 
-0.678646

>  <r_i_glide_gscore>  (269) 
-2.86312

>  <r_i_glide_lipo>  (269) 
-0.147912

>  <r_i_glide_hbond>  (269) 
-0.0947637

>  <r_i_glide_metal>  (269) 
-0

>  <r_i_glide_rewards>  (269) 
-1.08131

>  <r_i_glide_evdw>  (269) 
-24.4143

>  <r_i_glide_ecoul>  (269) 
-3.67449

>  <r_i_glide_erotb>  (269) 
0.32515

>  <r_i_glide_esite>  (269) 
-0.0923942

>  <r_i_glide_emodel>  (269) 
-33.6054

>  <r_i_glide_energy>  (269) 
-28.0888

>  <r_i_glide_einternal>  (269) 
0.499365

>  <r_i_glide_intrahb_reward>  (269) 
-0

>  <i_i_glide_confnum>  (269) 
3

>  <i_i_glide_posenum>  (269) 
3

>  <r_i_glide_eff_state_penalty>  (269) 
0

>  <ligand_id>  (269) 
78

>  <original_smiles>  (269) 
C=c1c(=CN=CC2C(=O)OC(C)C3CC(C)CC23)n(C)c2ncnn12

>  <smiles>  (269) 
[H]C(=NC([H])=c1c(=C([H])[H])n2nc([H])nc2n1C([H])([H])[H])C1([H])C(=O)OC([H])(C([H])([H])[H])C2([H])C([H])([H])C([H])(C([H])([H])[H])C([H])([H])C12[H]

$$$$
78:1:0
     RDKit          3D

 48 51  0  0  1  0  0  0  0  0999 V2000
   -1.4862    2.9996    3.0595 C   0  0  0  0  0  0  0  0  0  0  0  0
   -1.1105    2.1489    4.0270 C   0  0  0  0  0  0  0  0  0  0  0  0
   -0.1399    1.0508    4.0780 C   0  0  0  0  0  0  0  0  0  0  0  0
    0.6455    0.6962    3.0295 C   0  0  0  0  0  0  0  0  0  0  0  0
    1.5935   -0.3283    3.0575 N   0  0  0  0  0  0  0  0  0  0  0  0
    2.3790   -0.4734    2.0680 C   0  0  0  0  0  0  0  0  0  0  0  0
    3.4042   -1.6103    1.9734 C   0  0  2  0  0  0  0  0  0  0  0  0
    4.7844   -1.0880    1.5330 C   0  0  0  0  0  0  0  0  0  0  0  0
    5.6321   -0.7848    2.3648 O   0  0  0  0  0  0  0  0  0  0  0  0
    4.9951   -1.0210    0.1918 O   0  0  0  0  0  0  0  0  0  0  0  0
    3.9453   -1.3132   -0.7281 C   0  0  1  0  0  0  0  0  0  0  0  0
    4.4344   -1.1218   -2.1715 C   0  0  0  0  0  0  0  0  0  0  0  0
    3.3220   -2.6871   -0.4093 C   0  0  1  0  0  0  0  0  0  0  0  0
    4.2208   -3.8997   -0.6948 C   0  0  0  0  0  0  0  0  0  0  0  0
    3.8026   -4.9618    0.3264 C   0  0  1  0  0  0  0  0  0  0  0  0
    4.8907   -6.0100    0.5917 C   0  0  0  0  0  0  0  0  0  0  0  0
    3.4203   -4.1632    1.5748 C   0  0  0  0  0  0  0  0  0  0  0  0
    2.9182   -2.7889    1.0843 C   0  0  1  0  0  0  0  0  0  0  0  0
   -0.1855    0.4963    5.3742 N   0  0  0  0  0  0  0  0  0  0  0  0
    0.6394   -0.5889    5.8632 C   0  0  0  0  0  0  0  0  0  0  0  0
   -1.1413    1.2206    6.0829 C   0  0  0  0  0  0  0  0  0  0  0  0
   -1.6674    1.1880    7.2924 N   0  0  0  0  0  0  0  0  0  0  0  0
   -2.5164    2.2739    7.1637 C   0  0  0  0  0  0  0  0  0  0  0  0
   -2.5386    2.8892    5.9654 N   0  0  0  0  0  0  0  0  0  0  0  0
   -1.6239    2.1434    5.3067 N   0  0  0  0  0  0  0  0  0  0  0  0
   -2.2355    3.7561    3.2129 H   0  0  0  0  0  0  0  0  0  0  0  0
   -1.0353    2.9480    2.0800 H   0  0  0  0  0  0  0  0  0  0  0  0
    0.5431    1.2307    2.0897 H   0  0  0  0  0  0  0  0  0  0  0  0
    2.3598    0.2087    1.2093 H   0  0  0  0  0  0  0  0  0  0  0  0
    3.5582   -1.9868    2.9816 H   0  0  0  0  0  0  0  0  0  0  0  0
    3.1585   -0.5846   -0.5679 H   0  0  0  0  0  0  0  0  0  0  0  0
    3.6348   -1.3165   -2.8885 H   0  0  0  0  0  0  0  0  0  0  0  0
    5.2830   -1.7646   -2.4123 H   0  0  0  0  0  0  0  0  0  0  0  0
    4.7509   -0.0885   -2.3190 H   0  0  0  0  0  0  0  0  0  0  0  0
    2.4155   -2.7957   -1.0064 H   0  0  0  0  0  0  0  0  0  0  0  0
    4.1095   -4.2557   -1.7220 H   0  0  0  0  0  0  0  0  0  0  0  0
    5.2700   -3.6375   -0.5504 H   0  0  0  0  0  0  0  0  0  0  0  0
    2.9091   -5.4621   -0.0510 H   0  0  0  0  0  0  0  0  0  0  0  0
    5.8047   -5.5446    0.9637 H   0  0  0  0  0  0  0  0  0  0  0  0
    5.1355   -6.5474   -0.3215 H   0  0  0  0  0  0  0  0  0  0  0  0
    4.5673   -6.7417    1.3320 H   0  0  0  0  0  0  0  0  0  0  0  0
    2.6617   -4.6854    2.1627 H   0  0  0  0  0  0  0  0  0  0  0  0
    4.2945   -4.0466    2.2183 H   0  0  0  0  0  0  0  0  0  0  0  0
    1.8288   -2.8033    1.1320 H   0  0  0  0  0  0  0  0  0  0  0  0
    0.3984   -0.7939    6.9059 H   0  0  0  0  0  0  0  0  0  0  0  0
    1.6949   -0.3224    5.8035 H   0  0  0  0  0  0  0  0  0  0  0  0
    0.4586   -1.4914    5.2801 H   0  0  0  0  0  0  0  0  0  0  0  0
   -3.1594    2.6117    7.9656 H   0  0  0  0  0  0  0  0  0  0  0  0
  1  2  2  0
  1 26  1  0
  1 27  1  0
  2 25  1  0
  2  3  1  0
  3  4  2  3
  3 19  1  0
  4  5  1  0
  4 28  1  0
  5  6  2  3
  6  7  1  0
  6 29  1  0
  7 18  1  0
  7  8  1  0
  7 30  1  1
  8  9  2  0
  8 10  1  0
 10 11  1  0
 11 12  1  0
 11 13  1  0
 11 31  1  1
 12 32  1  0
 12 33  1  0
 12 34  1  0
 13 18  1  0
 13 14  1  0
 13 35  1  6
 14 15  1  0
 14 36  1  0
 14 37  1  0
 15 16  1  0
 15 17  1  0
 15 38  1  6
 16 39  1  0
 16 40  1  0
 16 41  1  0
 17 18  1  0
 17 42  1  0
 17 43  1  0
 18 44  1  6
 19 20  1  0
 19 21  1  0
 20 45  1  0
 20 46  1  0
 20 47  1  0
 21 25  1  0
 21 22  2  0
 22 23  1  0
 23 24  2  0
 23 48  1  0
 24 25  1  0
M  END
>  <i_m_ct_stereo_status>  (270) 
1

>  <s_m_source_file>  (270) 
/var/tmp/pbs.5076255.sched01/tmprva83imr/861x3d95ot.sdf

>  <i_m_source_file_index>  (270) 
22

>  <i_lp_mmshare_version>  (270) 
48012

>  <i_f3d_flags>  (270) 
0

>  <s_epik_input>  (270) 
bjFbY0hdbm4oYzEyKWMoPVtDSDJdKS9jKG4yW0NIM10pPVtDSF1cTj1bQ0hdXFtDQEhdKEMoPU8pT1tDQEhdM1tDSDNdKVtDQEBIXShbQ0BASF0zNClbQ0gyXVtDQEBIXShbQ0gyXTQpW0NIM10=

>  <s_epik_cmdline>  (270) 
J2VwaWtfcHl0aG9uJywgJy1waHQnLCAnMi4wJywgJy1waCcsICc3LjAnLCAnLXRuJywgJzgnLCAnLW1hJywgJzIwMCcsICctaW1hZScsICc8aW5maWxlLm1hZT4nLCAnLW9tYWUnLCAnPG91dGZpbGUubWFlPic=

>  <r_lp_tautomer_probability>  (270) 
1

>  <r_epik_Ionization_Penalty>  (270) 
1.12914e-07

>  <r_epik_Ionization_Penalty_Charging>  (270) 
1.11507e-07

>  <r_epik_Ionization_Penalty_Neutral>  (270) 
1.407e-09

>  <r_epik_State_Penalty>  (270) 
-0

>  <r_epik_Charging_Adjusted_Penalty>  (270) 
1.11507e-07

>  <i_epik_Tot_Q>  (270) 
0

>  <i_epik_Tot_abs_Q>  (270) 
0

>  <s_epik_Chemistry_Notes>  (270) 
This compound has an ester and may undergo hydrolysis at high or low pH. This compound has an imine and may undergo hydrolysis.

>  <s_lp_Force_Field>  (270) 
OPLS3e

>  <r_lp_Energy>  (270) 
31.176

>  <b_lp_Chiralities_Consistent>  (270) 
1

>  <s_lp_Variant>  (270) 
78:0-2

>  <s_i_glide_gridfile>  (270) 
pfpi4k_grid

>  <i_i_glide_lignum>  (270) 
22

>  <i_i_glide_rotatable_bonds>  (270) 
2

>  <r_i_docking_score>  (270) 
-3.14953

>  <r_i_glide_ligand_efficiency>  (270) 
-0.125981

>  <r_i_glide_ligand_efficiency_sa>  (270) 
-0.368371

>  <r_i_glide_ligand_efficiency_ln>  (270) 
-0.746533

>  <r_i_glide_gscore>  (270) 
-3.14953

>  <r_i_glide_lipo>  (270) 
-0.125666

>  <r_i_glide_hbond>  (270) 
-0.138195

>  <r_i_glide_metal>  (270) 
-0

>  <r_i_glide_rewards>  (270) 
-1.2461

>  <r_i_glide_evdw>  (270) 
-25.9323

>  <r_i_glide_ecoul>  (270) 
-3.87505

>  <r_i_glide_erotb>  (270) 
0.32515

>  <r_i_glide_esite>  (270) 
-0.0868477

>  <r_i_glide_emodel>  (270) 
-36.0991

>  <r_i_glide_energy>  (270) 
-29.8073

>  <r_i_glide_einternal>  (270) 
0.113897

>  <r_i_glide_intrahb_reward>  (270) 
-0

>  <i_i_glide_confnum>  (270) 
1

>  <i_i_glide_posenum>  (270) 
1

>  <r_i_glide_eff_state_penalty>  (270) 
0

>  <ligand_id>  (270) 
78

>  <original_smiles>  (270) 
C=c1c(=CN=CC2C(=O)OC(C)C3CC(C)CC23)n(C)c2ncnn12

>  <smiles>  (270) 
[H]C(=NC([H])=c1c(=C([H])[H])n2nc([H])nc2n1C([H])([H])[H])C1([H])C(=O)OC([H])(C([H])([H])[H])C2([H])C([H])([H])C([H])(C([H])([H])[H])C([H])([H])C12[H]

$$$$
78:1:1
     RDKit          3D

 48 51  0  0  1  0  0  0  0  0999 V2000
    7.9559   -1.5635    0.3986 C   0  0  0  0  0  0  0  0  0  0  0  0
    6.6328   -1.7598    0.2686 C   0  0  0  0  0  0  0  0  0  0  0  0
    5.4829   -1.4019    1.0921 C   0  0  0  0  0  0  0  0  0  0  0  0
    5.5972   -0.7363    2.2666 C   0  0  0  0  0  0  0  0  0  0  0  0
    4.5105   -0.3939    3.0635 N   0  0  0  0  0  0  0  0  0  0  0  0
    4.6600    0.3392    4.0920 C   0  0  0  0  0  0  0  0  0  0  0  0
    3.5183    0.7955    5.0019 C   0  0  2  0  0  0  0  0  0  0  0  0
    3.1667   -0.2560    6.0770 C   0  0  0  0  0  0  0  0  0  0  0  0
    3.6989   -0.2122    7.1854 O   0  0  0  0  0  0  0  0  0  0  0  0
    2.2224   -1.1666    5.7349 O   0  0  0  0  0  0  0  0  0  0  0  0
    1.7038   -1.2081    4.4108 C   0  0  1  0  0  0  0  0  0  0  0  0
    0.7026   -2.3556    4.2538 C   0  0  0  0  0  0  0  0  0  0  0  0
    1.1942    0.1939    3.9894 C   0  0  1  0  0  0  0  0  0  0  0  0
   -0.0694    0.6701    4.7231 C   0  0  0  0  0  0  0  0  0  0  0  0
    0.0420    2.1963    4.7951 C   0  0  1  0  0  0  0  0  0  0  0  0
   -0.7901    2.8146    5.9289 C   0  0  0  0  0  0  0  0  0  0  0  0
    1.5426    2.4619    4.9339 C   0  0  0  0  0  0  0  0  0  0  0  0
    2.2626    1.2913    4.2319 C   0  0  1  0  0  0  0  0  0  0  0  0
    4.3173   -1.8690    0.4419 N   0  0  0  0  0  0  0  0  0  0  0  0
    2.9494   -1.7274    0.9007 C   0  0  0  0  0  0  0  0  0  0  0  0
    4.7325   -2.4839   -0.7313 C   0  0  0  0  0  0  0  0  0  0  0  0
    4.1661   -3.0929   -1.7554 N   0  0  0  0  0  0  0  0  0  0  0  0
    5.3186   -3.3920   -2.4569 C   0  0  0  0  0  0  0  0  0  0  0  0
    6.4824   -2.9772   -1.9230 N   0  0  0  0  0  0  0  0  0  0  0  0
    6.0313   -2.4044   -0.7949 N   0  0  0  0  0  0  0  0  0  0  0  0
    8.6684   -1.9103   -0.3331 H   0  0  0  0  0  0  0  0  0  0  0  0
    8.3607   -1.0472    1.2546 H   0  0  0  0  0  0  0  0  0  0  0  0
    6.5774   -0.4501    2.6304 H   0  0  0  0  0  0  0  0  0  0  0  0
    5.6395    0.7351    4.3866 H   0  0  0  0  0  0  0  0  0  0  0  0
    3.9123    1.6380    5.5633 H   0  0  0  0  0  0  0  0  0  0  0  0
    2.5248   -1.4893    3.7652 H   0  0  0  0  0  0  0  0  0  0  0  0
    0.3212   -2.4028    3.2331 H   0  0  0  0  0  0  0  0  0  0  0  0
   -0.1343   -2.2739    4.9460 H   0  0  0  0  0  0  0  0  0  0  0  0
    1.2127   -3.3003    4.4503 H   0  0  0  0  0  0  0  0  0  0  0  0
    0.9776    0.1837    2.9202 H   0  0  0  0  0  0  0  0  0  0  0  0
   -0.9795    0.3527    4.2095 H   0  0  0  0  0  0  0  0  0  0  0  0
   -0.0954    0.2567    5.7328 H   0  0  0  0  0  0  0  0  0  0  0  0
   -0.2899    2.6073    3.8391 H   0  0  0  0  0  0  0  0  0  0  0  0
   -0.4767    2.4278    6.9000 H   0  0  0  0  0  0  0  0  0  0  0  0
   -1.8507    2.5914    5.8080 H   0  0  0  0  0  0  0  0  0  0  0  0
   -0.6745    3.8984    5.9548 H   0  0  0  0  0  0  0  0  0  0  0  0
    1.8137    3.4237    4.4919 H   0  0  0  0  0  0  0  0  0  0  0  0
    1.8164    2.5122    5.9894 H   0  0  0  0  0  0  0  0  0  0  0  0
    2.5893    1.6648    3.2592 H   0  0  0  0  0  0  0  0  0  0  0  0
    2.2723   -2.2054    0.1921 H   0  0  0  0  0  0  0  0  0  0  0  0
    2.6824   -0.6738    0.9882 H   0  0  0  0  0  0  0  0  0  0  0  0
    2.8248   -2.2292    1.8562 H   0  0  0  0  0  0  0  0  0  0  0  0
    5.3063   -3.9264   -3.4007 H   0  0  0  0  0  0  0  0  0  0  0  0
  1  2  2  0
  1 26  1  0
  1 27  1  0
  2 25  1  0
  2  3  1  0
  3  4  2  3
  3 19  1  0
  4  5  1  0
  4 28  1  0
  5  6  2  3
  6  7  1  0
  6 29  1  0
  7 18  1  0
  7  8  1  0
  7 30  1  1
  8  9  2  0
  8 10  1  0
 10 11  1  0
 11 12  1  0
 11 13  1  0
 11 31  1  6
 12 32  1  0
 12 33  1  0
 12 34  1  0
 13 18  1  0
 13 14  1  0
 13 35  1  6
 14 15  1  0
 14 36  1  0
 14 37  1  0
 15 16  1  0
 15 17  1  0
 15 38  1  6
 16 39  1  0
 16 40  1  0
 16 41  1  0
 17 18  1  0
 17 42  1  0
 17 43  1  0
 18 44  1  6
 19 20  1  0
 19 21  1  0
 20 45  1  0
 20 46  1  0
 20 47  1  0
 21 25  1  0
 21 22  2  0
 22 23  1  0
 23 24  2  0
 23 48  1  0
 24 25  1  0
M  END
>  <i_m_ct_stereo_status>  (271) 
1

>  <s_m_source_file>  (271) 
/var/tmp/pbs.5076255.sched01/tmprva83imr/861x3d95ot.sdf

>  <i_m_source_file_index>  (271) 
22

>  <i_lp_mmshare_version>  (271) 
48012

>  <i_f3d_flags>  (271) 
0

>  <s_epik_input>  (271) 
bjFbY0hdbm4oYzEyKWMoPVtDSDJdKS9jKG4yW0NIM10pPVtDSF1cTj1bQ0hdXFtDQEhdKEMoPU8pT1tDQEhdM1tDSDNdKVtDQEBIXShbQ0BASF0zNClbQ0gyXVtDQEBIXShbQ0gyXTQpW0NIM10=

>  <s_epik_cmdline>  (271) 
J2VwaWtfcHl0aG9uJywgJy1waHQnLCAnMi4wJywgJy1waCcsICc3LjAnLCAnLXRuJywgJzgnLCAnLW1hJywgJzIwMCcsICctaW1hZScsICc8aW5maWxlLm1hZT4nLCAnLW9tYWUnLCAnPG91dGZpbGUubWFlPic=

>  <r_lp_tautomer_probability>  (271) 
1

>  <r_epik_Ionization_Penalty>  (271) 
1.12914e-07

>  <r_epik_Ionization_Penalty_Charging>  (271) 
1.11507e-07

>  <r_epik_Ionization_Penalty_Neutral>  (271) 
1.407e-09

>  <r_epik_State_Penalty>  (271) 
-0

>  <r_epik_Charging_Adjusted_Penalty>  (271) 
1.11507e-07

>  <i_epik_Tot_Q>  (271) 
0

>  <i_epik_Tot_abs_Q>  (271) 
0

>  <s_epik_Chemistry_Notes>  (271) 
This compound has an ester and may undergo hydrolysis at high or low pH. This compound has an imine and may undergo hydrolysis.

>  <s_lp_Force_Field>  (271) 
OPLS3e

>  <r_lp_Energy>  (271) 
31.176

>  <b_lp_Chiralities_Consistent>  (271) 
1

>  <s_lp_Variant>  (271) 
78:0-2

>  <s_i_glide_gridfile>  (271) 
pfpi4k_grid

>  <i_i_glide_lignum>  (271) 
22

>  <i_i_glide_rotatable_bonds>  (271) 
2

>  <r_i_docking_score>  (271) 
-2.70988

>  <r_i_glide_ligand_efficiency>  (271) 
-0.108395

>  <r_i_glide_ligand_efficiency_sa>  (271) 
-0.316949

>  <r_i_glide_ligand_efficiency_ln>  (271) 
-0.642322

>  <r_i_glide_gscore>  (271) 
-2.70988

>  <r_i_glide_lipo>  (271) 
-0.241077

>  <r_i_glide_hbond>  (271) 
0

>  <r_i_glide_metal>  (271) 
-0

>  <r_i_glide_rewards>  (271) 
-1.42481

>  <r_i_glide_evdw>  (271) 
-22.7694

>  <r_i_glide_ecoul>  (271) 
-1.2257

>  <r_i_glide_erotb>  (271) 
0.32515

>  <r_i_glide_esite>  (271) 
-0.0468107

>  <r_i_glide_emodel>  (271) 
-28.9738

>  <r_i_glide_energy>  (271) 
-23.9951

>  <r_i_glide_einternal>  (271) 
0.626434

>  <r_i_glide_intrahb_reward>  (271) 
-0

>  <i_i_glide_confnum>  (271) 
3

>  <i_i_glide_posenum>  (271) 
34

>  <r_i_glide_eff_state_penalty>  (271) 
0

>  <ligand_id>  (271) 
78

>  <original_smiles>  (271) 
C=c1c(=CN=CC2C(=O)OC(C)C3CC(C)CC23)n(C)c2ncnn12

>  <smiles>  (271) 
[H]C(=NC([H])=c1c(=C([H])[H])n2nc([H])nc2n1C([H])([H])[H])C1([H])C(=O)OC([H])(C([H])([H])[H])C2([H])C([H])([H])C([H])(C([H])([H])[H])C([H])([H])C12[H]

$$$$
78:1:2
     RDKit          3D

 48 51  0  0  1  0  0  0  0  0999 V2000
    5.8536   -1.0166    2.8082 C   0  0  0  0  0  0  0  0  0  0  0  0
    5.4281   -1.9470    1.9365 C   0  0  0  0  0  0  0  0  0  0  0  0
    4.2745   -2.8490    1.9204 C   0  0  0  0  0  0  0  0  0  0  0  0
    3.3584   -2.9088    2.9232 C   0  0  0  0  0  0  0  0  0  0  0  0
    2.2619   -3.7680    2.9423 N   0  0  0  0  0  0  0  0  0  0  0  0
    1.9162   -4.3073    4.0419 C   0  0  0  0  0  0  0  0  0  0  0  0
    0.7289   -5.2746    4.1323 C   0  0  2  0  0  0  0  0  0  0  0  0
    0.4562   -5.6997    5.5865 C   0  0  0  0  0  0  0  0  0  0  0  0
   -0.3706   -5.0987    6.2662 O   0  0  0  0  0  0  0  0  0  0  0  0
    1.1542   -6.7728    6.0266 O   0  0  0  0  0  0  0  0  0  0  0  0
    2.1526   -7.3813    5.2106 C   0  0  1  0  0  0  0  0  0  0  0  0
    2.8009   -8.5585    5.9553 C   0  0  0  0  0  0  0  0  0  0  0  0
    1.5569   -7.7280    3.8237 C   0  0  1  0  0  0  0  0  0  0  0  0
    0.5104   -8.8570    3.8093 C   0  0  0  0  0  0  0  0  0  0  0  0
   -0.4355   -8.5211    2.6510 C   0  0  1  0  0  0  0  0  0  0  0  0
   -1.8215   -9.1616    2.7872 C   0  0  0  0  0  0  0  0  0  0  0  0
   -0.4917   -6.9974    2.6345 C   0  0  0  0  0  0  0  0  0  0  0  0
    0.8624   -6.5024    3.1816 C   0  0  1  0  0  0  0  0  0  0  0  0
    4.3374   -3.6102    0.7352 N   0  0  0  0  0  0  0  0  0  0  0  0
    3.3848   -4.6149    0.3131 C   0  0  0  0  0  0  0  0  0  0  0  0
    5.4825   -3.2020    0.0551 C   0  0  0  0  0  0  0  0  0  0  0  0
    6.0839   -3.5065   -1.0774 N   0  0  0  0  0  0  0  0  0  0  0  0
    7.1621   -2.6535   -0.9618 C   0  0  0  0  0  0  0  0  0  0  0  0
    7.1920   -1.8594    0.1263 N   0  0  0  0  0  0  0  0  0  0  0  0
    6.0710   -2.2774    0.7550 N   0  0  0  0  0  0  0  0  0  0  0  0
    6.7563   -0.4611    2.6379 H   0  0  0  0  0  0  0  0  0  0  0  0
    5.3219   -0.7985    3.7196 H   0  0  0  0  0  0  0  0  0  0  0  0
    3.4540   -2.2537    3.7808 H   0  0  0  0  0  0  0  0  0  0  0  0
    2.4498   -4.1159    4.9834 H   0  0  0  0  0  0  0  0  0  0  0  0
   -0.1535   -4.7120    3.8495 H   0  0  0  0  0  0  0  0  0  0  0  0
    2.9385   -6.6390    5.0641 H   0  0  0  0  0  0  0  0  0  0  0  0
    3.5763   -9.0333    5.3511 H   0  0  0  0  0  0  0  0  0  0  0  0
    2.0766   -9.3230    6.2455 H   0  0  0  0  0  0  0  0  0  0  0  0
    3.2766   -8.2004    6.8694 H   0  0  0  0  0  0  0  0  0  0  0  0
    2.3725   -8.0306    3.1657 H   0  0  0  0  0  0  0  0  0  0  0  0
    0.9692   -9.8401    3.6789 H   0  0  0  0  0  0  0  0  0  0  0  0
   -0.0476   -8.8808    4.7471 H   0  0  0  0  0  0  0  0  0  0  0  0
    0.0266   -8.8565    1.7207 H   0  0  0  0  0  0  0  0  0  0  0  0
   -2.3102   -8.8537    3.7133 H   0  0  0  0  0  0  0  0  0  0  0  0
   -1.7332  -10.2461    2.8076 H   0  0  0  0  0  0  0  0  0  0  0  0
   -2.4765   -8.8962    1.9563 H   0  0  0  0  0  0  0  0  0  0  0  0
   -0.6757   -6.6322    1.6213 H   0  0  0  0  0  0  0  0  0  0  0  0
   -1.3141   -6.6619    3.2679 H   0  0  0  0  0  0  0  0  0  0  0  0
    1.4597   -6.2153    2.3141 H   0  0  0  0  0  0  0  0  0  0  0  0
    3.6952   -5.0372   -0.6422 H   0  0  0  0  0  0  0  0  0  0  0  0
    2.3997   -4.1648    0.1896 H   0  0  0  0  0  0  0  0  0  0  0  0
    3.3355   -5.4203    1.0439 H   0  0  0  0  0  0  0  0  0  0  0  0
    7.9387   -2.5958   -1.7150 H   0  0  0  0  0  0  0  0  0  0  0  0
  1  2  2  0
  1 26  1  0
  1 27  1  0
  2 25  1  0
  2  3  1  0
  3  4  2  3
  3 19  1  0
  4  5  1  0
  4 28  1  0
  5  6  2  3
  6  7  1  0
  6 29  1  0
  7 18  1  0
  7  8  1  0
  7 30  1  6
  8  9  2  0
  8 10  1  0
 10 11  1  0
 11 12  1  0
 11 13  1  0
 11 31  1  6
 12 32  1  0
 12 33  1  0
 12 34  1  0
 13 18  1  0
 13 14  1  0
 13 35  1  6
 14 15  1  0
 14 36  1  0
 14 37  1  0
 15 16  1  0
 15 17  1  0
 15 38  1  6
 16 39  1  0
 16 40  1  0
 16 41  1  0
 17 18  1  0
 17 42  1  0
 17 43  1  0
 18 44  1  6
 19 20  1  0
 19 21  1  0
 20 45  1  0
 20 46  1  0
 20 47  1  0
 21 25  1  0
 21 22  2  0
 22 23  1  0
 23 24  2  0
 23 48  1  0
 24 25  1  0
M  END
>  <i_m_ct_stereo_status>  (272) 
1

>  <s_m_source_file>  (272) 
/var/tmp/pbs.5076255.sched01/tmprva83imr/861x3d95ot.sdf

>  <i_m_source_file_index>  (272) 
22

>  <i_lp_mmshare_version>  (272) 
48012

>  <i_f3d_flags>  (272) 
0

>  <s_epik_input>  (272) 
bjFbY0hdbm4oYzEyKWMoPVtDSDJdKS9jKG4yW0NIM10pPVtDSF1cTj1bQ0hdXFtDQEhdKEMoPU8pT1tDQEhdM1tDSDNdKVtDQEBIXShbQ0BASF0zNClbQ0gyXVtDQEBIXShbQ0gyXTQpW0NIM10=

>  <s_epik_cmdline>  (272) 
J2VwaWtfcHl0aG9uJywgJy1waHQnLCAnMi4wJywgJy1waCcsICc3LjAnLCAnLXRuJywgJzgnLCAnLW1hJywgJzIwMCcsICctaW1hZScsICc8aW5maWxlLm1hZT4nLCAnLW9tYWUnLCAnPG91dGZpbGUubWFlPic=

>  <r_lp_tautomer_probability>  (272) 
1

>  <r_epik_Ionization_Penalty>  (272) 
1.12914e-07

>  <r_epik_Ionization_Penalty_Charging>  (272) 
1.11507e-07

>  <r_epik_Ionization_Penalty_Neutral>  (272) 
1.407e-09

>  <r_epik_State_Penalty>  (272) 
-0

>  <r_epik_Charging_Adjusted_Penalty>  (272) 
1.11507e-07

>  <i_epik_Tot_Q>  (272) 
0

>  <i_epik_Tot_abs_Q>  (272) 
0

>  <s_epik_Chemistry_Notes>  (272) 
This compound has an ester and may undergo hydrolysis at high or low pH. This compound has an imine and may undergo hydrolysis.

>  <s_lp_Force_Field>  (272) 
OPLS3e

>  <r_lp_Energy>  (272) 
31.176

>  <b_lp_Chiralities_Consistent>  (272) 
1

>  <s_lp_Variant>  (272) 
78:0-2

>  <s_i_glide_gridfile>  (272) 
pfpi4k_grid

>  <i_i_glide_lignum>  (272) 
22

>  <i_i_glide_rotatable_bonds>  (272) 
2

>  <r_i_docking_score>  (272) 
-2.51494

>  <r_i_glide_ligand_efficiency>  (272) 
-0.100597

>  <r_i_glide_ligand_efficiency_sa>  (272) 
-0.294149

>  <r_i_glide_ligand_efficiency_ln>  (272) 
-0.596115

>  <r_i_glide_gscore>  (272) 
-2.51494

>  <r_i_glide_lipo>  (272) 
-0.200498

>  <r_i_glide_hbond>  (272) 
-0.0541099

>  <r_i_glide_metal>  (272) 
-0

>  <r_i_glide_rewards>  (272) 
-1.29378

>  <r_i_glide_evdw>  (272) 
-23.1628

>  <r_i_glide_ecoul>  (272) 
-0.634242

>  <r_i_glide_erotb>  (272) 
0.32515

>  <r_i_glide_esite>  (272) 
-0.038422

>  <r_i_glide_emodel>  (272) 
-27.843

>  <r_i_glide_energy>  (272) 
-23.7971

>  <r_i_glide_einternal>  (272) 
1.95657

>  <r_i_glide_intrahb_reward>  (272) 
-0

>  <i_i_glide_confnum>  (272) 
4

>  <i_i_glide_posenum>  (272) 
33

>  <r_i_glide_eff_state_penalty>  (272) 
0

>  <ligand_id>  (272) 
78

>  <original_smiles>  (272) 
C=c1c(=CN=CC2C(=O)OC(C)C3CC(C)CC23)n(C)c2ncnn12

>  <smiles>  (272) 
[H]C(=NC([H])=c1c(=C([H])[H])n2nc([H])nc2n1C([H])([H])[H])C1([H])C(=O)OC([H])(C([H])([H])[H])C2([H])C([H])([H])C([H])(C([H])([H])[H])C([H])([H])C12[H]

$$$$
78:2:0
     RDKit          3D

 48 51  0  0  1  0  0  0  0  0999 V2000
    3.8103    1.3932    6.5165 C   0  0  0  0  0  0  0  0  0  0  0  0
    3.1460    1.4885    5.3517 C   0  0  0  0  0  0  0  0  0  0  0  0
    2.4178    0.5312    4.5077 C   0  0  0  0  0  0  0  0  0  0  0  0
    2.2097   -0.7835    4.7319 C   0  0  0  0  0  0  0  0  0  0  0  0
    2.6576   -1.4936    5.8465 N   0  0  0  0  0  0  0  0  0  0  0  0
    2.2163   -2.6536    6.1442 C   0  0  0  0  0  0  0  0  0  0  0  0
    1.1183   -3.4831    5.4563 C   0  0  2  0  0  0  0  0  0  0  0  0
   -0.1906   -3.3983    6.2639 C   0  0  0  0  0  0  0  0  0  0  0  0
   -1.0180   -2.5204    6.0355 O   0  0  0  0  0  0  0  0  0  0  0  0
   -0.3737   -4.3466    7.2137 O   0  0  0  0  0  0  0  0  0  0  0  0
    0.6629   -5.2728    7.5300 C   0  0  1  0  0  0  0  0  0  0  0  0
    0.1895   -6.2139    8.6407 C   0  0  0  0  0  0  0  0  0  0  0  0
    1.1627   -5.9725    6.2439 C   0  0  1  0  0  0  0  0  0  0  0  0
    0.1609   -6.9161    5.5566 C   0  0  0  0  0  0  0  0  0  0  0  0
    0.5378   -6.9002    4.0713 C   0  0  1  0  0  0  0  0  0  0  0  0
   -0.6109   -7.3215    3.1419 C   0  0  0  0  0  0  0  0  0  0  0  0
    1.0303   -5.4741    3.8216 C   0  0  0  0  0  0  0  0  0  0  0  0
    1.5712   -4.9427    5.1656 C   0  0  1  0  0  0  0  0  0  0  0  0
    1.9377    1.2129    3.3768 N   0  0  0  0  0  0  0  0  0  0  0  0
    1.1412    0.6081    2.3199 C   0  0  0  0  0  0  0  0  0  0  0  0
    2.3464    2.5329    3.5051 C   0  0  0  0  0  0  0  0  0  0  0  0
    2.2193    3.6434    2.8149 N   0  0  0  0  0  0  0  0  0  0  0  0
    2.9107    4.4780    3.6640 C   0  0  0  0  0  0  0  0  0  0  0  0
    3.4146    3.9275    4.7847 N   0  0  0  0  0  0  0  0  0  0  0  0
    3.0128    2.6535    4.6158 N   0  0  0  0  0  0  0  0  0  0  0  0
    4.2861    2.2525    6.9591 H   0  0  0  0  0  0  0  0  0  0  0  0
    3.8973    0.4635    7.0556 H   0  0  0  0  0  0  0  0  0  0  0  0
    1.6697   -1.3313    3.9790 H   0  0  0  0  0  0  0  0  0  0  0  0
    2.6543   -3.1691    7.0046 H   0  0  0  0  0  0  0  0  0  0  0  0
    0.8754   -3.0412    4.4983 H   0  0  0  0  0  0  0  0  0  0  0  0
    1.4915   -4.7005    7.9482 H   0  0  0  0  0  0  0  0  0  0  0  0
    0.9612   -6.9385    8.9035 H   0  0  0  0  0  0  0  0  0  0  0  0
   -0.7102   -6.7577    8.3556 H   0  0  0  0  0  0  0  0  0  0  0  0
   -0.0411   -5.6364    9.5367 H   0  0  0  0  0  0  0  0  0  0  0  0
    2.0489   -6.5585    6.4889 H   0  0  0  0  0  0  0  0  0  0  0  0
    0.2024   -7.9267    5.9694 H   0  0  0  0  0  0  0  0  0  0  0  0
   -0.8584   -6.5481    5.6798 H   0  0  0  0  0  0  0  0  0  0  0  0
    1.3805   -7.5791    3.9249 H   0  0  0  0  0  0  0  0  0  0  0  0
   -1.4768   -6.6697    3.2634 H   0  0  0  0  0  0  0  0  0  0  0  0
   -0.9363   -8.3388    3.3601 H   0  0  0  0  0  0  0  0  0  0  0  0
   -0.3062   -7.2925    2.0946 H   0  0  0  0  0  0  0  0  0  0  0  0
    1.7911   -5.4467    3.0386 H   0  0  0  0  0  0  0  0  0  0  0  0
    0.2159   -4.8494    3.4729 H   0  0  0  0  0  0  0  0  0  0  0  0
    2.6628   -4.9519    5.0908 H   0  0  0  0  0  0  0  0  0  0  0  0
    0.9038    1.3509    1.5589 H   0  0  0  0  0  0  0  0  0  0  0  0
    0.2047    0.2176    2.7197 H   0  0  0  0  0  0  0  0  0  0  0  0
    1.6906   -0.2051    1.8450 H   0  0  0  0  0  0  0  0  0  0  0  0
    3.0470    5.5272    3.4597 H   0  0  0  0  0  0  0  0  0  0  0  0
  1  2  2  0
  1 26  1  0
  1 27  1  0
  2 25  1  0
  2  3  1  0
  3  4  2  3
  3 19  1  0
  4  5  1  0
  4 28  1  0
  5  6  2  3
  6  7  1  0
  6 29  1  0
  7 18  1  0
  7  8  1  0
  7 30  1  6
  8  9  2  0
  8 10  1  0
 10 11  1  0
 11 12  1  0
 11 13  1  0
 11 31  1  1
 12 32  1  0
 12 33  1  0
 12 34  1  0
 13 18  1  0
 13 14  1  0
 13 35  1  1
 14 15  1  0
 14 36  1  0
 14 37  1  0
 15 16  1  0
 15 17  1  0
 15 38  1  1
 16 39  1  0
 16 40  1  0
 16 41  1  0
 17 18  1  0
 17 42  1  0
 17 43  1  0
 18 44  1  6
 19 20  1  0
 19 21  1  0
 20 45  1  0
 20 46  1  0
 20 47  1  0
 21 25  1  0
 21 22  2  0
 22 23  1  0
 23 24  2  0
 23 48  1  0
 24 25  1  0
M  END
>  <i_m_ct_stereo_status>  (273) 
1

>  <s_m_source_file>  (273) 
/var/tmp/pbs.5076255.sched01/tmprva83imr/861x3d95ot.sdf

>  <i_m_source_file_index>  (273) 
23

>  <i_lp_mmshare_version>  (273) 
48012

>  <i_f3d_flags>  (273) 
0

>  <s_epik_input>  (273) 
bjFbY0hdbm4oYzEyKWMoPVtDSDJdKS9jKG4yW0NIM10pPVtDSF1cTj1bQ0hdXFtDQEhdKEMoPU8pT1tDQEhdM1tDSDNdKVtDQEBIXShbQ0BASF0zNClbQ0gyXVtDQEBIXShbQ0gyXTQpW0NIM10=

>  <s_epik_cmdline>  (273) 
J2VwaWtfcHl0aG9uJywgJy1waHQnLCAnMi4wJywgJy1waCcsICc3LjAnLCAnLXRuJywgJzgnLCAnLW1hJywgJzIwMCcsICctaW1hZScsICc8aW5maWxlLm1hZT4nLCAnLW9tYWUnLCAnPG91dGZpbGUubWFlPic=

>  <r_lp_tautomer_probability>  (273) 
1

>  <r_epik_Ionization_Penalty>  (273) 
1.12914e-07

>  <r_epik_Ionization_Penalty_Charging>  (273) 
1.11507e-07

>  <r_epik_Ionization_Penalty_Neutral>  (273) 
1.407e-09

>  <r_epik_State_Penalty>  (273) 
-0

>  <r_epik_Charging_Adjusted_Penalty>  (273) 
1.11507e-07

>  <i_epik_Tot_Q>  (273) 
0

>  <i_epik_Tot_abs_Q>  (273) 
0

>  <s_epik_Chemistry_Notes>  (273) 
This compound has an ester and may undergo hydrolysis at high or low pH. This compound has an imine and may undergo hydrolysis.

>  <s_lp_Force_Field>  (273) 
OPLS3e

>  <r_lp_Energy>  (273) 
36.9737

>  <b_lp_Chiralities_Consistent>  (273) 
1

>  <s_lp_Variant>  (273) 
78:0-3

>  <s_i_glide_gridfile>  (273) 
pfpi4k_grid

>  <i_i_glide_lignum>  (273) 
23

>  <i_i_glide_rotatable_bonds>  (273) 
2

>  <r_i_docking_score>  (273) 
-2.00152

>  <r_i_glide_ligand_efficiency>  (273) 
-0.0800609

>  <r_i_glide_ligand_efficiency_sa>  (273) 
-0.234099

>  <r_i_glide_ligand_efficiency_ln>  (273) 
-0.474421

>  <r_i_glide_gscore>  (273) 
-2.00152

>  <r_i_glide_lipo>  (273) 
0

>  <r_i_glide_hbond>  (273) 
0

>  <r_i_glide_metal>  (273) 
-0

>  <r_i_glide_rewards>  (273) 
-1.10477

>  <r_i_glide_evdw>  (273) 
-19.006

>  <r_i_glide_ecoul>  (273) 
-1.43979

>  <r_i_glide_erotb>  (273) 
0.32515

>  <r_i_glide_esite>  (273) 
-0.0556356

>  <r_i_glide_emodel>  (273) 
-22.749

>  <r_i_glide_energy>  (273) 
-20.4458

>  <r_i_glide_einternal>  (273) 
0.287398

>  <r_i_glide_intrahb_reward>  (273) 
-0

>  <i_i_glide_confnum>  (273) 
3

>  <i_i_glide_posenum>  (273) 
10

>  <r_i_glide_eff_state_penalty>  (273) 
0

>  <ligand_id>  (273) 
78

>  <original_smiles>  (273) 
C=c1c(=CN=CC2C(=O)OC(C)C3CC(C)CC23)n(C)c2ncnn12

>  <smiles>  (273) 
[H]C(=NC([H])=c1c(=C([H])[H])n2nc([H])nc2n1C([H])([H])[H])C1([H])C(=O)OC([H])(C([H])([H])[H])C2([H])C([H])([H])C([H])(C([H])([H])[H])C([H])([H])C12[H]

$$$$
78:3:0
     RDKit          3D

 48 51  0  0  1  0  0  0  0  0999 V2000
    4.4453   -3.5379   -0.2222 C   0  0  0  0  0  0  0  0  0  0  0  0
    5.5814   -4.1814    0.1085 C   0  0  0  0  0  0  0  0  0  0  0  0
    5.8599   -5.5481    0.5443 C   0  0  0  0  0  0  0  0  0  0  0  0
    4.8952   -6.4901    0.6946 C   0  0  0  0  0  0  0  0  0  0  0  0
    5.1462   -7.7949    1.1078 N   0  0  0  0  0  0  0  0  0  0  0  0
    4.3425   -8.4498    1.8459 C   0  0  0  0  0  0  0  0  0  0  0  0
    3.0348   -7.9675    2.4767 C   0  0  2  0  0  0  0  0  0  0  0  0
    3.1902   -7.8451    4.0038 C   0  0  0  0  0  0  0  0  0  0  0  0
    3.5421   -6.7816    4.5075 O   0  0  0  0  0  0  0  0  0  0  0  0
    2.8962   -8.9522    4.7251 O   0  0  0  0  0  0  0  0  0  0  0  0
    2.5935  -10.1890    4.0856 C   0  0  1  0  0  0  0  0  0  0  0  0
    2.3092  -11.2650    5.1377 C   0  0  0  0  0  0  0  0  0  0  0  0
    1.4716   -9.9758    3.0439 C   0  0  1  0  0  0  0  0  0  0  0  0
    0.0866   -9.6274    3.6039 C   0  0  0  0  0  0  0  0  0  0  0  0
   -0.6052   -8.8032    2.5169 C   0  0  1  0  0  0  0  0  0  0  0  0
   -1.7439   -7.9228    3.0502 C   0  0  0  0  0  0  0  0  0  0  0  0
    0.5309   -8.0016    1.8795 C   0  0  0  0  0  0  0  0  0  0  0  0
    1.8175   -8.8377    2.0563 C   0  0  1  0  0  0  0  0  0  0  0  0
    7.2487   -5.6630    0.7736 N   0  0  0  0  0  0  0  0  0  0  0  0
    7.9521   -6.8584    1.1999 C   0  0  0  0  0  0  0  0  0  0  0  0
    7.8026   -4.4190    0.4843 C   0  0  0  0  0  0  0  0  0  0  0  0
    9.0093   -3.8819    0.4824 N   0  0  0  0  0  0  0  0  0  0  0  0
    8.6466   -2.6116    0.0726 C   0  0  0  0  0  0  0  0  0  0  0  0
    7.3420   -2.3957   -0.1745 N   0  0  0  0  0  0  0  0  0  0  0  0
    6.8454   -3.6154    0.1181 N   0  0  0  0  0  0  0  0  0  0  0  0
    4.4454   -2.5009   -0.5082 H   0  0  0  0  0  0  0  0  0  0  0  0
    3.4895   -4.0387   -0.2059 H   0  0  0  0  0  0  0  0  0  0  0  0
    3.8673   -6.2491    0.4521 H   0  0  0  0  0  0  0  0  0  0  0  0
    4.5854   -9.4882    2.0830 H   0  0  0  0  0  0  0  0  0  0  0  0
    2.8512   -6.9546    2.1431 H   0  0  0  0  0  0  0  0  0  0  0  0
    3.4901  -10.5156    3.5594 H   0  0  0  0  0  0  0  0  0  0  0  0
    2.0709  -12.2277    4.6825 H   0  0  0  0  0  0  0  0  0  0  0  0
    1.4843  -10.9841    5.7921 H   0  0  0  0  0  0  0  0  0  0  0  0
    3.1885  -11.4153    5.7656 H   0  0  0  0  0  0  0  0  0  0  0  0
    1.3604  -10.9013    2.4812 H   0  0  0  0  0  0  0  0  0  0  0  0
   -0.4824  -10.5275    3.8306 H   0  0  0  0  0  0  0  0  0  0  0  0
    0.1717   -9.0409    4.5186 H   0  0  0  0  0  0  0  0  0  0  0  0
   -1.0093   -9.4901    1.7700 H   0  0  0  0  0  0  0  0  0  0  0  0
   -1.3804   -7.2243    3.8051 H   0  0  0  0  0  0  0  0  0  0  0  0
   -2.5307   -8.5270    3.5038 H   0  0  0  0  0  0  0  0  0  0  0  0
   -2.1918   -7.3413    2.2476 H   0  0  0  0  0  0  0  0  0  0  0  0
    0.3284   -7.8043    0.8257 H   0  0  0  0  0  0  0  0  0  0  0  0
    0.6271   -7.0338    2.3731 H   0  0  0  0  0  0  0  0  0  0  0  0
    2.0416   -9.2989    1.0908 H   0  0  0  0  0  0  0  0  0  0  0  0
    9.0154   -6.6435    1.2672 H   0  0  0  0  0  0  0  0  0  0  0  0
    7.8175   -7.6709    0.4859 H   0  0  0  0  0  0  0  0  0  0  0  0
    7.6040   -7.1741    2.1833 H   0  0  0  0  0  0  0  0  0  0  0  0
    9.3686   -1.8185   -0.0500 H   0  0  0  0  0  0  0  0  0  0  0  0
  1  2  2  0
  1 26  1  0
  1 27  1  0
  2 25  1  0
  2  3  1  0
  3  4  2  3
  3 19  1  0
  4  5  1  0
  4 28  1  0
  5  6  2  3
  6  7  1  0
  6 29  1  0
  7 18  1  0
  7  8  1  0
  7 30  1  6
  8  9  2  0
  8 10  1  0
 10 11  1  0
 11 12  1  0
 11 13  1  0
 11 31  1  6
 12 32  1  0
 12 33  1  0
 12 34  1  0
 13 18  1  0
 13 14  1  0
 13 35  1  6
 14 15  1  0
 14 36  1  0
 14 37  1  0
 15 16  1  0
 15 17  1  0
 15 38  1  6
 16 39  1  0
 16 40  1  0
 16 41  1  0
 17 18  1  0
 17 42  1  0
 17 43  1  0
 18 44  1  6
 19 20  1  0
 19 21  1  0
 20 45  1  0
 20 46  1  0
 20 47  1  0
 21 25  1  0
 21 22  2  0
 22 23  1  0
 23 24  2  0
 23 48  1  0
 24 25  1  0
M  END
>  <i_m_ct_stereo_status>  (274) 
1

>  <s_m_source_file>  (274) 
/var/tmp/pbs.5076255.sched01/tmprva83imr/861x3d95ot.sdf

>  <i_m_source_file_index>  (274) 
24

>  <i_lp_mmshare_version>  (274) 
48012

>  <i_f3d_flags>  (274) 
0

>  <s_epik_input>  (274) 
bjFbY0hdbm4oYzEyKWMoPVtDSDJdKS9jKG4yW0NIM10pPVtDSF1cTj1bQ0hdXFtDQEhdKEMoPU8pT1tDQEhdM1tDSDNdKVtDQEBIXShbQ0BASF0zNClbQ0gyXVtDQEBIXShbQ0gyXTQpW0NIM10=

>  <s_epik_cmdline>  (274) 
J2VwaWtfcHl0aG9uJywgJy1waHQnLCAnMi4wJywgJy1waCcsICc3LjAnLCAnLXRuJywgJzgnLCAnLW1hJywgJzIwMCcsICctaW1hZScsICc8aW5maWxlLm1hZT4nLCAnLW9tYWUnLCAnPG91dGZpbGUubWFlPic=

>  <r_lp_tautomer_probability>  (274) 
1

>  <r_epik_Ionization_Penalty>  (274) 
1.12914e-07

>  <r_epik_Ionization_Penalty_Charging>  (274) 
1.11507e-07

>  <r_epik_Ionization_Penalty_Neutral>  (274) 
1.407e-09

>  <r_epik_State_Penalty>  (274) 
-0

>  <r_epik_Charging_Adjusted_Penalty>  (274) 
1.11507e-07

>  <i_epik_Tot_Q>  (274) 
0

>  <i_epik_Tot_abs_Q>  (274) 
0

>  <s_epik_Chemistry_Notes>  (274) 
This compound has an ester and may undergo hydrolysis at high or low pH. This compound has an imine and may undergo hydrolysis.

>  <s_lp_Force_Field>  (274) 
OPLS3e

>  <r_lp_Energy>  (274) 
37.8328

>  <b_lp_Chiralities_Consistent>  (274) 
1

>  <s_lp_Variant>  (274) 
78:0-4

>  <s_i_glide_gridfile>  (274) 
pfpi4k_grid

>  <i_i_glide_lignum>  (274) 
24

>  <i_i_glide_rotatable_bonds>  (274) 
2

>  <r_i_docking_score>  (274) 
-3.74598

>  <r_i_glide_ligand_efficiency>  (274) 
-0.149839

>  <r_i_glide_ligand_efficiency_sa>  (274) 
-0.438132

>  <r_i_glide_ligand_efficiency_ln>  (274) 
-0.887909

>  <r_i_glide_gscore>  (274) 
-3.74598

>  <r_i_glide_lipo>  (274) 
-0.405222

>  <r_i_glide_hbond>  (274) 
-0.0751513

>  <r_i_glide_metal>  (274) 
-0

>  <r_i_glide_rewards>  (274) 
-1.57556

>  <r_i_glide_evdw>  (274) 
-26.9392

>  <r_i_glide_ecoul>  (274) 
-4.28541

>  <r_i_glide_erotb>  (274) 
0.32515

>  <r_i_glide_esite>  (274) 
-0.0254233

>  <r_i_glide_emodel>  (274) 
-38.4764

>  <r_i_glide_energy>  (274) 
-31.2246

>  <r_i_glide_einternal>  (274) 
1.36406

>  <r_i_glide_intrahb_reward>  (274) 
-0

>  <i_i_glide_confnum>  (274) 
2

>  <i_i_glide_posenum>  (274) 
17

>  <r_i_glide_eff_state_penalty>  (274) 
0

>  <ligand_id>  (274) 
78

>  <original_smiles>  (274) 
C=c1c(=CN=CC2C(=O)OC(C)C3CC(C)CC23)n(C)c2ncnn12

>  <smiles>  (274) 
[H]C(=NC([H])=c1c(=C([H])[H])n2nc([H])nc2n1C([H])([H])[H])C1([H])C(=O)OC([H])(C([H])([H])[H])C2([H])C([H])([H])C([H])(C([H])([H])[H])C([H])([H])C12[H]

$$$$
78:3:1
     RDKit          3D

 48 51  0  0  1  0  0  0  0  0999 V2000
   -0.3135   -1.3459    5.8031 C   0  0  0  0  0  0  0  0  0  0  0  0
   -0.4480   -0.0958    5.3195 C   0  0  0  0  0  0  0  0  0  0  0  0
    0.1890    0.6084    4.2091 C   0  0  0  0  0  0  0  0  0  0  0  0
    1.1177    0.0338    3.4055 C   0  0  0  0  0  0  0  0  0  0  0  0
    1.7503    0.6885    2.3461 N   0  0  0  0  0  0  0  0  0  0  0  0
    2.7255    0.1853    1.6956 C   0  0  0  0  0  0  0  0  0  0  0  0
    3.4144   -1.1602    1.9268 C   0  0  2  0  0  0  0  0  0  0  0  0
    4.9169   -1.0557    1.6083 C   0  0  0  0  0  0  0  0  0  0  0  0
    5.7180   -0.7567    2.4905 O   0  0  0  0  0  0  0  0  0  0  0  0
    5.2815   -1.3248    0.3314 O   0  0  0  0  0  0  0  0  0  0  0  0
    4.3008   -1.5618   -0.6745 C   0  0  1  0  0  0  0  0  0  0  0  0
    4.9949   -1.8277   -2.0166 C   0  0  0  0  0  0  0  0  0  0  0  0
    3.3146   -2.6583   -0.2106 C   0  0  1  0  0  0  0  0  0  0  0  0
    3.8932   -4.0771   -0.0869 C   0  0  0  0  0  0  0  0  0  0  0  0
    3.0515   -4.7640    0.9936 C   0  0  1  0  0  0  0  0  0  0  0  0
    3.7576   -5.9566    1.6538 C   0  0  0  0  0  0  0  0  0  0  0  0
    2.7137   -3.6449    1.9820 C   0  0  0  0  0  0  0  0  0  0  0  0
    2.7139   -2.3296    1.1773 C   0  0  1  0  0  0  0  0  0  0  0  0
   -0.3324    1.9216    4.1732 N   0  0  0  0  0  0  0  0  0  0  0  0
    0.0292    2.9560    3.2284 C   0  0  0  0  0  0  0  0  0  0  0  0
   -1.2515    2.0231    5.2108 C   0  0  0  0  0  0  0  0  0  0  0  0
   -2.0484    2.9548    5.7085 N   0  0  0  0  0  0  0  0  0  0  0  0
   -2.5765    2.2140    6.7483 C   0  0  0  0  0  0  0  0  0  0  0  0
   -2.1429    0.9438    6.8782 N   0  0  0  0  0  0  0  0  0  0  0  0
   -1.2892    0.8807    5.8363 N   0  0  0  0  0  0  0  0  0  0  0  0
   -0.8719   -1.6907    6.6532 H   0  0  0  0  0  0  0  0  0  0  0  0
    0.3703   -2.0528    5.3571 H   0  0  0  0  0  0  0  0  0  0  0  0
    1.3900   -1.0003    3.5777 H   0  0  0  0  0  0  0  0  0  0  0  0
    3.1551    0.7604    0.8748 H   0  0  0  0  0  0  0  0  0  0  0  0
    3.3796   -1.3520    2.9935 H   0  0  0  0  0  0  0  0  0  0  0  0
    3.7346   -0.6403   -0.7977 H   0  0  0  0  0  0  0  0  0  0  0  0
    4.2674   -2.0077   -2.8093 H   0  0  0  0  0  0  0  0  0  0  0  0
    5.6779   -2.6790   -1.9740 H   0  0  0  0  0  0  0  0  0  0  0  0
    5.5753   -0.9517   -2.3056 H   0  0  0  0  0  0  0  0  0  0  0  0
    2.4947   -2.6995   -0.9283 H   0  0  0  0  0  0  0  0  0  0  0  0
    3.8549   -4.6187   -1.0343 H   0  0  0  0  0  0  0  0  0  0  0  0
    4.9362   -4.0383    0.2285 H   0  0  0  0  0  0  0  0  0  0  0  0
    2.1256   -5.1115    0.5335 H   0  0  0  0  0  0  0  0  0  0  0  0
    4.6932   -5.6474    2.1218 H   0  0  0  0  0  0  0  0  0  0  0  0
    3.9931   -6.7303    0.9226 H   0  0  0  0  0  0  0  0  0  0  0  0
    3.1360   -6.4070    2.4287 H   0  0  0  0  0  0  0  0  0  0  0  0
    1.7508   -3.8168    2.4682 H   0  0  0  0  0  0  0  0  0  0  0  0
    3.4632   -3.6076    2.7737 H   0  0  0  0  0  0  0  0  0  0  0  0
    1.6704   -2.0510    1.0260 H   0  0  0  0  0  0  0  0  0  0  0  0
   -0.5493    3.8599    3.4264 H   0  0  0  0  0  0  0  0  0  0  0  0
   -0.1899    2.6185    2.2145 H   0  0  0  0  0  0  0  0  0  0  0  0
    1.0882    3.2046    3.3128 H   0  0  0  0  0  0  0  0  0  0  0  0
   -3.3238    2.6067    7.4294 H   0  0  0  0  0  0  0  0  0  0  0  0
  1  2  2  0
  1 26  1  0
  1 27  1  0
  2 25  1  0
  2  3  1  0
  3  4  2  3
  3 19  1  0
  4  5  1  0
  4 28  1  0
  5  6  2  3
  6  7  1  0
  6 29  1  0
  7 18  1  0
  7  8  1  0
  7 30  1  1
  8  9  2  0
  8 10  1  0
 10 11  1  0
 11 12  1  0
 11 13  1  0
 11 31  1  6
 12 32  1  0
 12 33  1  0
 12 34  1  0
 13 18  1  0
 13 14  1  0
 13 35  1  6
 14 15  1  0
 14 36  1  0
 14 37  1  0
 15 16  1  0
 15 17  1  0
 15 38  1  6
 16 39  1  0
 16 40  1  0
 16 41  1  0
 17 18  1  0
 17 42  1  0
 17 43  1  0
 18 44  1  6
 19 20  1  0
 19 21  1  0
 20 45  1  0
 20 46  1  0
 20 47  1  0
 21 25  1  0
 21 22  2  0
 22 23  1  0
 23 24  2  0
 23 48  1  0
 24 25  1  0
M  END
>  <i_m_ct_stereo_status>  (275) 
1

>  <s_m_source_file>  (275) 
/var/tmp/pbs.5076255.sched01/tmprva83imr/861x3d95ot.sdf

>  <i_m_source_file_index>  (275) 
24

>  <i_lp_mmshare_version>  (275) 
48012

>  <i_f3d_flags>  (275) 
0

>  <s_epik_input>  (275) 
bjFbY0hdbm4oYzEyKWMoPVtDSDJdKS9jKG4yW0NIM10pPVtDSF1cTj1bQ0hdXFtDQEhdKEMoPU8pT1tDQEhdM1tDSDNdKVtDQEBIXShbQ0BASF0zNClbQ0gyXVtDQEBIXShbQ0gyXTQpW0NIM10=

>  <s_epik_cmdline>  (275) 
J2VwaWtfcHl0aG9uJywgJy1waHQnLCAnMi4wJywgJy1waCcsICc3LjAnLCAnLXRuJywgJzgnLCAnLW1hJywgJzIwMCcsICctaW1hZScsICc8aW5maWxlLm1hZT4nLCAnLW9tYWUnLCAnPG91dGZpbGUubWFlPic=

>  <r_lp_tautomer_probability>  (275) 
1

>  <r_epik_Ionization_Penalty>  (275) 
1.12914e-07

>  <r_epik_Ionization_Penalty_Charging>  (275) 
1.11507e-07

>  <r_epik_Ionization_Penalty_Neutral>  (275) 
1.407e-09

>  <r_epik_State_Penalty>  (275) 
-0

>  <r_epik_Charging_Adjusted_Penalty>  (275) 
1.11507e-07

>  <i_epik_Tot_Q>  (275) 
0

>  <i_epik_Tot_abs_Q>  (275) 
0

>  <s_epik_Chemistry_Notes>  (275) 
This compound has an ester and may undergo hydrolysis at high or low pH. This compound has an imine and may undergo hydrolysis.

>  <s_lp_Force_Field>  (275) 
OPLS3e

>  <r_lp_Energy>  (275) 
37.8328

>  <b_lp_Chiralities_Consistent>  (275) 
1

>  <s_lp_Variant>  (275) 
78:0-4

>  <s_i_glide_gridfile>  (275) 
pfpi4k_grid

>  <i_i_glide_lignum>  (275) 
24

>  <i_i_glide_rotatable_bonds>  (275) 
2

>  <r_i_docking_score>  (275) 
-3.16716

>  <r_i_glide_ligand_efficiency>  (275) 
-0.126687

>  <r_i_glide_ligand_efficiency_sa>  (275) 
-0.370434

>  <r_i_glide_ligand_efficiency_ln>  (275) 
-0.750712

>  <r_i_glide_gscore>  (275) 
-3.16716

>  <r_i_glide_lipo>  (275) 
-0.0319401

>  <r_i_glide_hbond>  (275) 
-0.16

>  <r_i_glide_metal>  (275) 
-0

>  <r_i_glide_rewards>  (275) 
-1.29403

>  <r_i_glide_evdw>  (275) 
-24.8016

>  <r_i_glide_ecoul>  (275) 
-4.55111

>  <r_i_glide_erotb>  (275) 
0.32515

>  <r_i_glide_esite>  (275) 
-0.0835947

>  <r_i_glide_emodel>  (275) 
-35.9768

>  <r_i_glide_energy>  (275) 
-29.3527

>  <r_i_glide_einternal>  (275) 
0.125087

>  <r_i_glide_intrahb_reward>  (275) 
-0

>  <i_i_glide_confnum>  (275) 
1

>  <i_i_glide_posenum>  (275) 
1

>  <r_i_glide_eff_state_penalty>  (275) 
0

>  <ligand_id>  (275) 
78

>  <original_smiles>  (275) 
C=c1c(=CN=CC2C(=O)OC(C)C3CC(C)CC23)n(C)c2ncnn12

>  <smiles>  (275) 
[H]C(=NC([H])=c1c(=C([H])[H])n2nc([H])nc2n1C([H])([H])[H])C1([H])C(=O)OC([H])(C([H])([H])[H])C2([H])C([H])([H])C([H])(C([H])([H])[H])C([H])([H])C12[H]

$$$$
78:3:2
     RDKit          3D

 48 51  0  0  1  0  0  0  0  0999 V2000
    1.5197   -3.8540   -1.5262 C   0  0  0  0  0  0  0  0  0  0  0  0
    2.7937   -3.6421   -1.1519 C   0  0  0  0  0  0  0  0  0  0  0  0
    3.7034   -4.3587   -0.2604 C   0  0  0  0  0  0  0  0  0  0  0  0
    3.3465   -5.4816    0.4152 C   0  0  0  0  0  0  0  0  0  0  0  0
    4.2019   -6.1736    1.2686 N   0  0  0  0  0  0  0  0  0  0  0  0
    3.7818   -6.8304    2.2759 C   0  0  0  0  0  0  0  0  0  0  0  0
    2.3412   -6.9473    2.7775 C   0  0  2  0  0  0  0  0  0  0  0  0
    2.2952   -6.8317    4.3119 C   0  0  0  0  0  0  0  0  0  0  0  0
    2.1330   -5.7388    4.8476 O   0  0  0  0  0  0  0  0  0  0  0  0
    2.4208   -7.9909    5.0033 O   0  0  0  0  0  0  0  0  0  0  0  0
    2.7074   -9.2197    4.3385 C   0  0  1  0  0  0  0  0  0  0  0  0
    2.8007  -10.3579    5.3649 C   0  0  0  0  0  0  0  0  0  0  0  0
    1.6906   -9.4443    3.1950 C   0  0  1  0  0  0  0  0  0  0  0  0
    0.2411   -9.7156    3.6333 C   0  0  0  0  0  0  0  0  0  0  0  0
   -0.6291   -9.1954    2.4879 C   0  0  1  0  0  0  0  0  0  0  0  0
   -2.0655   -8.8667    2.9012 C   0  0  0  0  0  0  0  0  0  0  0  0
    0.1284   -7.9763    1.9554 C   0  0  0  0  0  0  0  0  0  0  0  0
    1.6224   -8.2208    2.2470 C   0  0  1  0  0  0  0  0  0  0  0  0
    4.9358   -3.6690   -0.2481 N   0  0  0  0  0  0  0  0  0  0  0  0
    6.1162   -4.0375    0.5087 C   0  0  0  0  0  0  0  0  0  0  0  0
    4.7927   -2.5748   -1.0952 C   0  0  0  0  0  0  0  0  0  0  0  0
    5.5464   -1.5663   -1.5041 N   0  0  0  0  0  0  0  0  0  0  0  0
    4.6068   -0.9603   -2.3230 C   0  0  0  0  0  0  0  0  0  0  0  0
    3.4142   -1.5638   -2.4355 N   0  0  0  0  0  0  0  0  0  0  0  0
    3.5881   -2.5945   -1.5867 N   0  0  0  0  0  0  0  0  0  0  0  0
    1.0215   -3.1870   -2.2093 H   0  0  0  0  0  0  0  0  0  0  0  0
    0.9576   -4.7043   -1.1730 H   0  0  0  0  0  0  0  0  0  0  0  0
    2.3572   -5.8999    0.2770 H   0  0  0  0  0  0  0  0  0  0  0  0
    4.5060   -7.3795    2.8823 H   0  0  0  0  0  0  0  0  0  0  0  0
    1.8102   -6.0687    2.4245 H   0  0  0  0  0  0  0  0  0  0  0  0
    3.6993   -9.1264    3.8942 H   0  0  0  0  0  0  0  0  0  0  0  0
    3.0167  -11.3134    4.8842 H   0  0  0  0  0  0  0  0  0  0  0  0
    1.8890  -10.4738    5.9547 H   0  0  0  0  0  0  0  0  0  0  0  0
    3.6130  -10.1574    6.0631 H   0  0  0  0  0  0  0  0  0  0  0  0
    2.0191  -10.3010    2.6045 H   0  0  0  0  0  0  0  0  0  0  0  0
    0.0624  -10.7757    3.8251 H   0  0  0  0  0  0  0  0  0  0  0  0
    0.0040   -9.1739    4.5501 H   0  0  0  0  0  0  0  0  0  0  0  0
   -0.6633   -9.9638    1.7138 H   0  0  0  0  0  0  0  0  0  0  0  0
   -2.0926   -8.1158    3.6921 H   0  0  0  0  0  0  0  0  0  0  0  0
   -2.5755   -9.7535    3.2721 H   0  0  0  0  0  0  0  0  0  0  0  0
   -2.6259   -8.4825    2.0520 H   0  0  0  0  0  0  0  0  0  0  0  0
   -0.0519   -7.8401    0.8879 H   0  0  0  0  0  0  0  0  0  0  0  0
   -0.2213   -7.0726    2.4566 H   0  0  0  0  0  0  0  0  0  0  0  0
    2.0899   -8.5116    1.3032 H   0  0  0  0  0  0  0  0  0  0  0  0
    6.9159   -3.3242    0.3123 H   0  0  0  0  0  0  0  0  0  0  0  0
    6.4601   -5.0294    0.2191 H   0  0  0  0  0  0  0  0  0  0  0  0
    5.8984   -4.0227    1.5769 H   0  0  0  0  0  0  0  0  0  0  0  0
    4.8062   -0.0440   -2.8586 H   0  0  0  0  0  0  0  0  0  0  0  0
  1  2  2  0
  1 26  1  0
  1 27  1  0
  2 25  1  0
  2  3  1  0
  3  4  2  3
  3 19  1  0
  4  5  1  0
  4 28  1  0
  5  6  2  3
  6  7  1  0
  6 29  1  0
  7 18  1  0
  7  8  1  0
  7 30  1  6
  8  9  2  0
  8 10  1  0
 10 11  1  0
 11 12  1  0
 11 13  1  0
 11 31  1  6
 12 32  1  0
 12 33  1  0
 12 34  1  0
 13 18  1  0
 13 14  1  0
 13 35  1  6
 14 15  1  0
 14 36  1  0
 14 37  1  0
 15 16  1  0
 15 17  1  0
 15 38  1  6
 16 39  1  0
 16 40  1  0
 16 41  1  0
 17 18  1  0
 17 42  1  0
 17 43  1  0
 18 44  1  6
 19 20  1  0
 19 21  1  0
 20 45  1  0
 20 46  1  0
 20 47  1  0
 21 25  1  0
 21 22  2  0
 22 23  1  0
 23 24  2  0
 23 48  1  0
 24 25  1  0
M  END
>  <i_m_ct_stereo_status>  (276) 
1

>  <s_m_source_file>  (276) 
/var/tmp/pbs.5076255.sched01/tmprva83imr/861x3d95ot.sdf

>  <i_m_source_file_index>  (276) 
24

>  <i_lp_mmshare_version>  (276) 
48012

>  <i_f3d_flags>  (276) 
0

>  <s_epik_input>  (276) 
bjFbY0hdbm4oYzEyKWMoPVtDSDJdKS9jKG4yW0NIM10pPVtDSF1cTj1bQ0hdXFtDQEhdKEMoPU8pT1tDQEhdM1tDSDNdKVtDQEBIXShbQ0BASF0zNClbQ0gyXVtDQEBIXShbQ0gyXTQpW0NIM10=

>  <s_epik_cmdline>  (276) 
J2VwaWtfcHl0aG9uJywgJy1waHQnLCAnMi4wJywgJy1waCcsICc3LjAnLCAnLXRuJywgJzgnLCAnLW1hJywgJzIwMCcsICctaW1hZScsICc8aW5maWxlLm1hZT4nLCAnLW9tYWUnLCAnPG91dGZpbGUubWFlPic=

>  <r_lp_tautomer_probability>  (276) 
1

>  <r_epik_Ionization_Penalty>  (276) 
1.12914e-07

>  <r_epik_Ionization_Penalty_Charging>  (276) 
1.11507e-07

>  <r_epik_Ionization_Penalty_Neutral>  (276) 
1.407e-09

>  <r_epik_State_Penalty>  (276) 
-0

>  <r_epik_Charging_Adjusted_Penalty>  (276) 
1.11507e-07

>  <i_epik_Tot_Q>  (276) 
0

>  <i_epik_Tot_abs_Q>  (276) 
0

>  <s_epik_Chemistry_Notes>  (276) 
This compound has an ester and may undergo hydrolysis at high or low pH. This compound has an imine and may undergo hydrolysis.

>  <s_lp_Force_Field>  (276) 
OPLS3e

>  <r_lp_Energy>  (276) 
37.8328

>  <b_lp_Chiralities_Consistent>  (276) 
1

>  <s_lp_Variant>  (276) 
78:0-4

>  <s_i_glide_gridfile>  (276) 
pfpi4k_grid

>  <i_i_glide_lignum>  (276) 
24

>  <i_i_glide_rotatable_bonds>  (276) 
2

>  <r_i_docking_score>  (276) 
-2.61811

>  <r_i_glide_ligand_efficiency>  (276) 
-0.104724

>  <r_i_glide_ligand_efficiency_sa>  (276) 
-0.306216

>  <r_i_glide_ligand_efficiency_ln>  (276) 
-0.62057

>  <r_i_glide_gscore>  (276) 
-2.61811

>  <r_i_glide_lipo>  (276) 
-0.176274

>  <r_i_glide_hbond>  (276) 
-0.00653277

>  <r_i_glide_metal>  (276) 
-0

>  <r_i_glide_rewards>  (276) 
-1.15133

>  <r_i_glide_evdw>  (276) 
-28.4169

>  <r_i_glide_ecoul>  (276) 
-0.762797

>  <r_i_glide_erotb>  (276) 
0.32515

>  <r_i_glide_esite>  (276) 
-0.073862

>  <r_i_glide_emodel>  (276) 
-34.1292

>  <r_i_glide_energy>  (276) 
-29.1797

>  <r_i_glide_einternal>  (276) 
1.04561

>  <r_i_glide_intrahb_reward>  (276) 
-0

>  <i_i_glide_confnum>  (276) 
2

>  <i_i_glide_posenum>  (276) 
2

>  <r_i_glide_eff_state_penalty>  (276) 
0

>  <ligand_id>  (276) 
78

>  <original_smiles>  (276) 
C=c1c(=CN=CC2C(=O)OC(C)C3CC(C)CC23)n(C)c2ncnn12

>  <smiles>  (276) 
[H]C(=NC([H])=c1c(=C([H])[H])n2nc([H])nc2n1C([H])([H])[H])C1([H])C(=O)OC([H])(C([H])([H])[H])C2([H])C([H])([H])C([H])(C([H])([H])[H])C([H])([H])C12[H]

$$$$
79:0:0
     RDKit          3D

 36 41  0  0  1  0  0  0  0  0999 V2000
    4.9120   -4.3601    1.9933 C   0  0  0  0  0  0  0  0  0  0  0  0
    4.5985   -2.8800    1.7781 C   0  0  2  0  0  0  0  0  0  0  0  0
    3.8068   -2.3802    2.9050 N   0  0  0  0  0  0  0  0  0  0  0  0
    2.6191   -1.8179    2.5568 C   0  0  0  0  0  0  0  0  0  0  0  0
    1.4438   -1.2062    3.5507 S   0  0  0  0  0  0  0  0  0  0  0  0
    2.5838   -1.8572    1.2574 N   0  0  0  0  0  0  0  0  0  0  0  0
    3.7127   -2.4938    0.5153 C   0  0  1  0  0  0  0  0  0  0  0  0
    4.5304   -1.3862   -0.4324 C   0  0  2  0  0  0  0  0  0  0  0  0
    4.5470   -1.0713   -2.0503 C   0  0  2  0  0  0  0  0  0  0  0  0
    3.1452   -1.2749   -2.9634 C   0  0  0  0  0  0  0  0  0  0  0  0
    2.7161   -2.7938   -2.3868 C   0  0  1  0  0  0  0  0  0  0  0  0
    4.0620   -3.0322   -2.6040 C   0  0  1  0  0  0  0  0  0  0  0  0
    5.2987   -2.2832   -2.5614 C   0  0  2  0  0  0  0  0  0  0  0  0
    5.8285   -3.3285   -1.5588 C   0  0  0  0  0  0  0  0  0  0  0  0
    4.5063   -3.8272   -0.8831 C   0  0  1  0  0  0  0  0  0  0  0  0
    3.8221   -2.4541   -1.0816 C   0  0  1  0  0  0  0  0  0  0  0  0
    3.0902   -3.4728   -0.7557 C   0  0  1  0  0  0  0  0  0  0  0  0
    2.2563   -4.5782   -0.3318 O   0  0  0  0  0  0  0  0  0  0  0  0
    5.7475   -4.6629    1.3601 H   0  0  0  0  0  0  0  0  0  0  0  0
    4.0121   -4.9189    1.7355 H   0  0  0  0  0  0  0  0  0  0  0  0
    5.2403   -4.6503    2.9963 H   0  0  0  0  0  0  0  0  0  0  0  0
    5.5331   -2.3198    1.7600 H   0  0  0  0  0  0  0  0  0  0  0  0
    4.0680   -2.5079    3.8572 H   0  0  0  0  0  0  0  0  0  0  0  0
    1.8270   -1.4466    0.6830 H   0  0  0  0  0  0  0  0  0  0  0  0
    4.1252   -0.4530   -0.0127 H   0  0  0  0  0  0  0  0  0  0  0  0
    5.0789   -0.1480   -2.2623 H   0  0  0  0  0  0  0  0  0  0  0  0
    2.3906   -0.5266   -2.7101 H   0  0  0  0  0  0  0  0  0  0  0  0
    3.3186   -1.2479   -4.0398 H   0  0  0  0  0  0  0  0  0  0  0  0
    2.0850   -3.4212   -3.0267 H   0  0  0  0  0  0  0  0  0  0  0  0
    4.1271   -4.0946   -2.9389 H   0  0  0  0  0  0  0  0  0  0  0  0
    5.7577   -2.2579   -3.5303 H   0  0  0  0  0  0  0  0  0  0  0  0
    6.2780   -4.1764   -2.0632 H   0  0  0  0  0  0  0  0  0  0  0  0
    6.5840   -2.9383   -0.8666 H   0  0  0  0  0  0  0  0  0  0  0  0
    4.5395   -4.7279   -0.2605 H   0  0  0  0  0  0  0  0  0  0  0  0
    2.8543   -1.5512   -0.9128 H   0  0  0  0  0  0  0  0  0  0  0  0
    2.3124   -5.2636   -0.9697 H   0  0  0  0  0  0  0  0  0  0  0  0
  1  2  1  0
  1 19  1  0
  1 20  1  0
  1 21  1  0
  2  7  1  0
  2  3  1  0
  2 22  1  6
  3  4  1  0
  3 23  1  0
  4  5  2  0
  4  6  1  0
  7  6  1  1
  6 24  1  0
  7 17  1  0
  7  8  1  0
  8 16  1  0
  8  9  1  0
  8 25  1  1
  9 13  1  0
  9 10  1  0
  9 26  1  1
 10 11  1  0
 10 27  1  0
 10 28  1  0
 11 17  1  0
 11 12  1  0
 11 29  1  6
 12 16  1  0
 12 13  1  0
 12 30  1  1
 13 14  1  0
 13 31  1  6
 14 15  1  0
 14 32  1  0
 14 33  1  0
 15 16  1  0
 15 17  1  0
 15 34  1  1
 16 35  1  1
 17 18  1  1
 18 36  1  0
M  END
>  <i_m_ct_stereo_status>  (277) 
1

>  <s_m_source_file>  (277) 
/var/tmp/pbs.5076255.sched01/tmprva83imr/861x3d95ot.sdf

>  <i_m_source_file_index>  (277) 
25

>  <i_lp_mmshare_version>  (277) 
48012

>  <i_f3d_flags>  (277) 
0

>  <s_epik_input>  (277) 
Uz1DKFtOSF0xKVtOSF1bQ0BASF0oW0NIM10pW0NAXTEyW0NAQEhdM1tDQEhdNFtDQEBIXTVbQ0BASF02W0NASF0oW0NIMl00KVtDQEBdMihbT0hdKVtDQEBIXShbQ0gyXTUpW0NAQEhdMzY=

>  <s_epik_cmdline>  (277) 
J2VwaWtfcHl0aG9uJywgJy1waHQnLCAnMi4wJywgJy1waCcsICc3LjAnLCAnLXRuJywgJzgnLCAnLW1hJywgJzIwMCcsICctaW1hZScsICc8aW5maWxlLm1hZT4nLCAnLW9tYWUnLCAnPG91dGZpbGUubWFlPic=

>  <r_lp_tautomer_probability>  (277) 
1

>  <r_epik_Ionization_Penalty>  (277) 
7.39943e-06

>  <r_epik_Ionization_Penalty_Charging>  (277) 
0

>  <r_epik_Ionization_Penalty_Neutral>  (277) 
7.39943e-06

>  <r_epik_State_Penalty>  (277) 
-0

>  <r_epik_Charging_Adjusted_Penalty>  (277) 
0

>  <i_epik_Tot_Q>  (277) 
0

>  <i_epik_Tot_abs_Q>  (277) 
0

>  <s_lp_Force_Field>  (277) 
OPLS3e

>  <r_lp_Energy>  (277) 
629.099

>  <b_lp_Chiralities_Consistent>  (277) 
1

>  <s_lp_Variant>  (277) 
79:0-1

>  <s_i_glide_gridfile>  (277) 
pfpi4k_grid

>  <i_i_glide_lignum>  (277) 
25

>  <i_i_glide_rotatable_bonds>  (277) 
1

>  <r_i_docking_score>  (277) 
-3.7515

>  <r_i_glide_ligand_efficiency>  (277) 
-0.208417

>  <r_i_glide_ligand_efficiency_sa>  (277) 
-0.546207

>  <r_i_glide_ligand_efficiency_ln>  (277) 
-0.964304

>  <r_i_glide_gscore>  (277) 
-3.7515

>  <r_i_glide_lipo>  (277) 
-0.344432

>  <r_i_glide_hbond>  (277) 
-0.456

>  <r_i_glide_metal>  (277) 
-0

>  <r_i_glide_rewards>  (277) 
-1.62019

>  <r_i_glide_evdw>  (277) 
-21.6272

>  <r_i_glide_ecoul>  (277) 
-4.98219

>  <r_i_glide_erotb>  (277) 
0

>  <r_i_glide_esite>  (277) 
-0.0670687

>  <r_i_glide_emodel>  (277) 
-28.5975

>  <r_i_glide_energy>  (277) 
-26.6094

>  <r_i_glide_einternal>  (277) 
0.00916304

>  <r_i_glide_intrahb_reward>  (277) 
-0

>  <i_i_glide_confnum>  (277) 
1

>  <i_i_glide_posenum>  (277) 
1

>  <r_i_glide_eff_state_penalty>  (277) 
0

>  <ligand_id>  (277) 
79

>  <original_smiles>  (277) 
CC1NC(=S)NC12C1C3CC4C5C3CC(C51)C42O

>  <smiles>  (277) 
[H]OC12C3([H])C([H])([H])C4([H])C5([H])C([H])([H])C1([H])C([H])(C53[H])C4([H])C21N([H])C(=S)N([H])C1([H])C([H])([H])[H]

$$$$
79:0:1
     RDKit          3D

 36 41  0  0  1  0  0  0  0  0999 V2000
    5.1663   -2.3282    2.9677 C   0  0  0  0  0  0  0  0  0  0  0  0
    4.7635   -1.1422    2.0962 C   0  0  2  0  0  0  0  0  0  0  0  0
    3.8818   -0.2521    2.8520 N   0  0  0  0  0  0  0  0  0  0  0  0
    2.6774   -0.0065    2.2812 C   0  0  0  0  0  0  0  0  0  0  0  0
    1.4145    0.8841    2.8509 S   0  0  0  0  0  0  0  0  0  0  0  0
    2.7057   -0.6689    1.1152 N   0  0  0  0  0  0  0  0  0  0  0  0
    3.9238   -1.4439    0.7981 C   0  0  1  0  0  0  0  0  0  0  0  0
    4.6977   -0.8664   -0.5422 C   0  0  2  0  0  0  0  0  0  0  0  0
    4.7803   -1.3251   -2.1277 C   0  0  2  0  0  0  0  0  0  0  0  0
    3.4356   -2.0413   -2.8601 C   0  0  0  0  0  0  0  0  0  0  0  0
    3.0922   -3.1568   -1.6357 C   0  0  1  0  0  0  0  0  0  0  0  0
    4.4554   -3.3549   -1.6956 C   0  0  1  0  0  0  0  0  0  0  0  0
    5.6437   -2.5709   -2.0045 C   0  0  2  0  0  0  0  0  0  0  0  0
    6.1988   -2.9870   -0.6292 C   0  0  0  0  0  0  0  0  0  0  0  0
    4.8779   -3.2265    0.2165 C   0  0  1  0  0  0  0  0  0  0  0  0
    4.1023   -2.1490   -0.6379 C   0  0  1  0  0  0  0  0  0  0  0  0
    3.4281   -2.9785    0.1327 C   0  0  1  0  0  0  0  0  0  0  0  0
    2.6401   -3.8149    0.9869 O   0  0  0  0  0  0  0  0  0  0  0  0
    6.0479   -2.8200    2.5596 H   0  0  0  0  0  0  0  0  0  0  0  0
    4.3203   -3.0177    2.9970 H   0  0  0  0  0  0  0  0  0  0  0  0
    5.4629   -2.0936    3.9876 H   0  0  0  0  0  0  0  0  0  0  0  0
    5.6675   -0.5748    1.8333 H   0  0  0  0  0  0  0  0  0  0  0  0
    4.1052    0.1020    3.7536 H   0  0  0  0  0  0  0  0  0  0  0  0
    1.9504   -0.6329    0.4338 H   0  0  0  0  0  0  0  0  0  0  0  0
    4.2142    0.1234   -0.6056 H   0  0  0  0  0  0  0  0  0  0  0  0
    5.2457   -0.5636   -2.7277 H   0  0  0  0  0  0  0  0  0  0  0  0
    2.6142   -1.3326   -2.9885 H   0  0  0  0  0  0  0  0  0  0  0  0
    3.6616   -2.5031   -3.8142 H   0  0  0  0  0  0  0  0  0  0  0  0
    2.5331   -4.0397   -1.9198 H   0  0  0  0  0  0  0  0  0  0  0  0
    4.6096   -4.4401   -1.5160 H   0  0  0  0  0  0  0  0  0  0  0  0
    6.1537   -2.9491   -2.8937 H   0  0  0  0  0  0  0  0  0  0  0  0
    6.7573   -3.9265   -0.6611 H   0  0  0  0  0  0  0  0  0  0  0  0
    6.8784   -2.2515   -0.1894 H   0  0  0  0  0  0  0  0  0  0  0  0
    4.9460   -3.6870    1.1591 H   0  0  0  0  0  0  0  0  0  0  0  0
    3.0544   -1.3564   -0.8977 H   0  0  0  0  0  0  0  0  0  0  0  0
    2.9862   -3.8135    1.8758 H   0  0  0  0  0  0  0  0  0  0  0  0
  1  2  1  0
  1 19  1  0
  1 20  1  0
  1 21  1  0
  2  7  1  0
  2  3  1  0
  2 22  1  6
  3  4  1  0
  3 23  1  0
  4  5  2  0
  4  6  1  0
  7  6  1  1
  6 24  1  0
  7 17  1  0
  7  8  1  0
  8 16  1  0
  8  9  1  0
  8 25  1  1
  9 13  1  0
  9 10  1  0
  9 26  1  6
 10 11  1  0
 10 27  1  0
 10 28  1  0
 11 17  1  0
 11 12  1  0
 11 29  1  1
 12 16  1  0
 12 13  1  0
 12 30  1  1
 13 14  1  0
 13 31  1  6
 14 15  1  0
 14 32  1  0
 14 33  1  0
 15 16  1  0
 15 17  1  0
 15 34  1  1
 16 35  1  1
 17 18  1  1
 18 36  1  0
M  END
>  <i_m_ct_stereo_status>  (278) 
1

>  <s_m_source_file>  (278) 
/var/tmp/pbs.5076255.sched01/tmprva83imr/861x3d95ot.sdf

>  <i_m_source_file_index>  (278) 
25

>  <i_lp_mmshare_version>  (278) 
48012

>  <i_f3d_flags>  (278) 
0

>  <s_epik_input>  (278) 
Uz1DKFtOSF0xKVtOSF1bQ0BASF0oW0NIM10pW0NAXTEyW0NAQEhdM1tDQEhdNFtDQEBIXTVbQ0BASF02W0NASF0oW0NIMl00KVtDQEBdMihbT0hdKVtDQEBIXShbQ0gyXTUpW0NAQEhdMzY=

>  <s_epik_cmdline>  (278) 
J2VwaWtfcHl0aG9uJywgJy1waHQnLCAnMi4wJywgJy1waCcsICc3LjAnLCAnLXRuJywgJzgnLCAnLW1hJywgJzIwMCcsICctaW1hZScsICc8aW5maWxlLm1hZT4nLCAnLW9tYWUnLCAnPG91dGZpbGUubWFlPic=

>  <r_lp_tautomer_probability>  (278) 
1

>  <r_epik_Ionization_Penalty>  (278) 
7.39943e-06

>  <r_epik_Ionization_Penalty_Charging>  (278) 
0

>  <r_epik_Ionization_Penalty_Neutral>  (278) 
7.39943e-06

>  <r_epik_State_Penalty>  (278) 
-0

>  <r_epik_Charging_Adjusted_Penalty>  (278) 
0

>  <i_epik_Tot_Q>  (278) 
0

>  <i_epik_Tot_abs_Q>  (278) 
0

>  <s_lp_Force_Field>  (278) 
OPLS3e

>  <r_lp_Energy>  (278) 
629.099

>  <b_lp_Chiralities_Consistent>  (278) 
1

>  <s_lp_Variant>  (278) 
79:0-1

>  <s_i_glide_gridfile>  (278) 
pfpi4k_grid

>  <i_i_glide_lignum>  (278) 
25

>  <i_i_glide_rotatable_bonds>  (278) 
1

>  <r_i_docking_score>  (278) 
-3.3516

>  <r_i_glide_ligand_efficiency>  (278) 
-0.1862

>  <r_i_glide_ligand_efficiency_sa>  (278) 
-0.487982

>  <r_i_glide_ligand_efficiency_ln>  (278) 
-0.861512

>  <r_i_glide_gscore>  (278) 
-3.3516

>  <r_i_glide_lipo>  (278) 
-0.255209

>  <r_i_glide_hbond>  (278) 
-0.16

>  <r_i_glide_metal>  (278) 
-0

>  <r_i_glide_rewards>  (278) 
-1.62019

>  <r_i_glide_evdw>  (278) 
-24.0719

>  <r_i_glide_ecoul>  (278) 
-2.37395

>  <r_i_glide_erotb>  (278) 
0

>  <r_i_glide_esite>  (278) 
-0.094552

>  <r_i_glide_emodel>  (278) 
-28.1068

>  <r_i_glide_energy>  (278) 
-26.4459

>  <r_i_glide_einternal>  (278) 
0.0817586

>  <r_i_glide_intrahb_reward>  (278) 
-0

>  <i_i_glide_confnum>  (278) 
1

>  <i_i_glide_posenum>  (278) 
4

>  <r_i_glide_eff_state_penalty>  (278) 
0

>  <ligand_id>  (278) 
79

>  <original_smiles>  (278) 
CC1NC(=S)NC12C1C3CC4C5C3CC(C51)C42O

>  <smiles>  (278) 
[H]OC12C3([H])C([H])([H])C4([H])C5([H])C([H])([H])C1([H])C([H])(C53[H])C4([H])C21N([H])C(=S)N([H])C1([H])C([H])([H])[H]

$$$$
79:0:2
     RDKit          3D

 36 41  0  0  1  0  0  0  0  0999 V2000
    5.6437   -3.3942    1.6267 C   0  0  0  0  0  0  0  0  0  0  0  0
    5.3909   -1.9983    1.0630 C   0  0  2  0  0  0  0  0  0  0  0  0
    5.0140   -1.1049    2.1670 N   0  0  0  0  0  0  0  0  0  0  0  0
    3.8289   -0.4765    1.9843 C   0  0  0  0  0  0  0  0  0  0  0  0
    3.0269    0.5446    3.0434 S   0  0  0  0  0  0  0  0  0  0  0  0
    3.4091   -0.8324    0.7777 N   0  0  0  0  0  0  0  0  0  0  0  0
    4.2492   -1.8014   -0.0061 C   0  0  1  0  0  0  0  0  0  0  0  0
    4.8204   -1.1119   -1.3989 C   0  0  2  0  0  0  0  0  0  0  0  0
    4.4191   -1.1879   -2.9808 C   0  0  2  0  0  0  0  0  0  0  0  0
    2.8194   -1.4011   -3.4432 C   0  0  0  0  0  0  0  0  0  0  0  0
    2.4390   -2.6377   -2.3702 C   0  0  1  0  0  0  0  0  0  0  0  0
    3.6301   -3.1272   -2.8341 C   0  0  1  0  0  0  0  0  0  0  0  0
    4.8924   -2.5992   -3.3177 C   0  0  2  0  0  0  0  0  0  0  0  0
    5.5793   -3.4406   -2.2039 C   0  0  0  0  0  0  0  0  0  0  0  0
    4.5048   -3.5421   -1.0679 C   0  0  1  0  0  0  0  0  0  0  0  0
    3.8576   -2.1806   -1.5208 C   0  0  1  0  0  0  0  0  0  0  0  0
    3.2109   -2.9472   -0.7560 C   0  0  1  0  0  0  0  0  0  0  0  0
    2.4333   -3.7563    0.1610 O   0  0  0  0  0  0  0  0  0  0  0  0
    6.2285   -3.9812    0.9070 H   0  0  0  0  0  0  0  0  0  0  0  0
    4.6756   -3.8747    1.7851 H   0  0  0  0  0  0  0  0  0  0  0  0
    6.2041   -3.4558    2.5707 H   0  0  0  0  0  0  0  0  0  0  0  0
    6.3056   -1.6128    0.6668 H   0  0  0  0  0  0  0  0  0  0  0  0
    5.5281   -1.0275    3.0306 H   0  0  0  0  0  0  0  0  0  0  0  0
    2.5385   -0.4462    0.3816 H   0  0  0  0  0  0  0  0  0  0  0  0
    4.6169   -0.0382   -1.1850 H   0  0  0  0  0  0  0  0  0  0  0  0
    4.9419   -0.4556   -3.5798 H   0  0  0  0  0  0  0  0  0  0  0  0
    2.2443   -0.4874   -3.2181 H   0  0  0  0  0  0  0  0  0  0  0  0
    2.6739   -1.6673   -4.5088 H   0  0  0  0  0  0  0  0  0  0  0  0
    1.5919   -3.2943   -2.6290 H   0  0  0  0  0  0  0  0  0  0  0  0
    3.5201   -4.2237   -2.8994 H   0  0  0  0  0  0  0  0  0  0  0  0
    5.0273   -2.9095   -4.3704 H   0  0  0  0  0  0  0  0  0  0  0  0
    5.7941   -4.4425   -2.5727 H   0  0  0  0  0  0  0  0  0  0  0  0
    6.5329   -3.0162   -1.8738 H   0  0  0  0  0  0  0  0  0  0  0  0
    4.5761   -4.2815   -0.2851 H   0  0  0  0  0  0  0  0  0  0  0  0
    3.0834   -1.0995   -1.3820 H   0  0  0  0  0  0  0  0  0  0  0  0
    1.9201   -3.1693    0.7081 H   0  0  0  0  0  0  0  0  0  0  0  0
  1  2  1  0
  1 19  1  0
  1 20  1  0
  1 21  1  0
  2  7  1  0
  2  3  1  0
  2 22  1  6
  3  4  1  0
  3 23  1  0
  4  5  2  0
  4  6  1  0
  7  6  1  1
  6 24  1  0
  7 17  1  0
  7  8  1  0
  8 16  1  0
  8  9  1  0
  8 25  1  6
  9 13  1  0
  9 10  1  0
  9 26  1  6
 10 11  1  0
 10 27  1  0
 10 28  1  0
 11 17  1  0
 11 12  1  0
 11 29  1  1
 12 16  1  0
 12 13  1  0
 12 30  1  1
 13 14  1  0
 13 31  1  6
 14 15  1  0
 14 32  1  0
 14 33  1  0
 15 16  1  0
 15 17  1  0
 15 34  1  1
 16 35  1  1
 17 18  1  1
 18 36  1  0
M  END
>  <i_m_ct_stereo_status>  (279) 
1

>  <s_m_source_file>  (279) 
/var/tmp/pbs.5076255.sched01/tmprva83imr/861x3d95ot.sdf

>  <i_m_source_file_index>  (279) 
25

>  <i_lp_mmshare_version>  (279) 
48012

>  <i_f3d_flags>  (279) 
0

>  <s_epik_input>  (279) 
Uz1DKFtOSF0xKVtOSF1bQ0BASF0oW0NIM10pW0NAXTEyW0NAQEhdM1tDQEhdNFtDQEBIXTVbQ0BASF02W0NASF0oW0NIMl00KVtDQEBdMihbT0hdKVtDQEBIXShbQ0gyXTUpW0NAQEhdMzY=

>  <s_epik_cmdline>  (279) 
J2VwaWtfcHl0aG9uJywgJy1waHQnLCAnMi4wJywgJy1waCcsICc3LjAnLCAnLXRuJywgJzgnLCAnLW1hJywgJzIwMCcsICctaW1hZScsICc8aW5maWxlLm1hZT4nLCAnLW9tYWUnLCAnPG91dGZpbGUubWFlPic=

>  <r_lp_tautomer_probability>  (279) 
1

>  <r_epik_Ionization_Penalty>  (279) 
7.39943e-06

>  <r_epik_Ionization_Penalty_Charging>  (279) 
0

>  <r_epik_Ionization_Penalty_Neutral>  (279) 
7.39943e-06

>  <r_epik_State_Penalty>  (279) 
-0

>  <r_epik_Charging_Adjusted_Penalty>  (279) 
0

>  <i_epik_Tot_Q>  (279) 
0

>  <i_epik_Tot_abs_Q>  (279) 
0

>  <s_lp_Force_Field>  (279) 
OPLS3e

>  <r_lp_Energy>  (279) 
629.099

>  <b_lp_Chiralities_Consistent>  (279) 
1

>  <s_lp_Variant>  (279) 
79:0-1

>  <s_i_glide_gridfile>  (279) 
pfpi4k_grid

>  <i_i_glide_lignum>  (279) 
25

>  <i_i_glide_rotatable_bonds>  (279) 
1

>  <r_i_docking_score>  (279) 
-3.25528

>  <r_i_glide_ligand_efficiency>  (279) 
-0.180849

>  <r_i_glide_ligand_efficiency_sa>  (279) 
-0.473959

>  <r_i_glide_ligand_efficiency_ln>  (279) 
-0.836754

>  <r_i_glide_gscore>  (279) 
-3.25528

>  <r_i_glide_lipo>  (279) 
-0.503688

>  <r_i_glide_hbond>  (279) 
-0.0722467

>  <r_i_glide_metal>  (279) 
-0

>  <r_i_glide_rewards>  (279) 
-1.68976

>  <r_i_glide_evdw>  (279) 
-17.9627

>  <r_i_glide_ecoul>  (279) 
-2.15235

>  <r_i_glide_erotb>  (279) 
0

>  <r_i_glide_esite>  (279) 
-0.046462

>  <r_i_glide_emodel>  (279) 
-21.5719

>  <r_i_glide_energy>  (279) 
-20.115

>  <r_i_glide_einternal>  (279) 
0.372929

>  <r_i_glide_intrahb_reward>  (279) 
-0

>  <i_i_glide_confnum>  (279) 
2

>  <i_i_glide_posenum>  (279) 
28

>  <r_i_glide_eff_state_penalty>  (279) 
0

>  <ligand_id>  (279) 
79

>  <original_smiles>  (279) 
CC1NC(=S)NC12C1C3CC4C5C3CC(C51)C42O

>  <smiles>  (279) 
[H]OC12C3([H])C([H])([H])C4([H])C5([H])C([H])([H])C1([H])C([H])(C53[H])C4([H])C21N([H])C(=S)N([H])C1([H])C([H])([H])[H]

$$$$
80:0:0
     RDKit          3D

 26 28  0  0  1  0  0  0  0  0999 V2000
    7.8482   -2.9290   -1.5157 C   0  0  0  0  0  0  0  0  0  0  0  0
    7.6013   -3.0278   -0.0040 C   0  0  0  0  0  0  0  0  0  0  0  0
    6.6441   -4.1126    0.3782 C   0  0  0  0  0  0  0  0  0  0  0  0
    6.9382   -5.3529    0.8849 C   0  0  0  0  0  0  0  0  0  0  0  0
    5.7793   -6.1422    1.1324 C   0  0  0  0  0  0  0  0  0  0  0  0
    5.9741   -7.7201    1.7327 Cl  0  0  0  0  0  0  0  0  0  0  0  0
    4.6030   -5.5083    0.8102 C   0  0  0  0  0  0  0  0  0  0  0  0
    3.2197   -5.9703    0.9104 C   0  0  0  0  0  0  0  0  0  0  0  0
    2.1145   -5.4455    0.3688 N   0  0  0  0  0  0  0  0  0  0  0  0
    1.0733   -6.2515    0.7633 N   0  0  0  0  0  0  0  0  0  0  0  0
    1.6121   -7.1807    1.5490 C   0  0  0  0  0  0  0  0  0  0  0  0
    0.9208   -8.2394    2.2577 C   0  0  0  0  0  0  0  0  0  0  0  0
   -0.3947   -8.2355    2.4872 N   0  0  0  0  0  0  0  0  0  0  0  0
   -0.8086   -9.3859    3.1491 C   0  0  0  0  0  0  0  0  0  0  0  0
    0.2171  -10.2469    3.4426 C   0  0  0  0  0  0  0  0  0  0  0  0
    1.7493   -9.6599    2.8784 S   0  0  0  0  0  0  0  0  0  0  0  0
    2.9609   -7.0618    1.6794 O   0  0  0  0  0  0  0  0  0  0  0  0
    4.9184   -3.9045    0.1929 S   0  0  0  0  0  0  0  0  0  0  0  0
    8.5821   -2.1574   -1.7448 H   0  0  0  0  0  0  0  0  0  0  0  0
    6.9295   -2.7018   -2.0594 H   0  0  0  0  0  0  0  0  0  0  0  0
    8.2550   -3.8590   -1.9114 H   0  0  0  0  0  0  0  0  0  0  0  0
    8.5539   -3.1821    0.5044 H   0  0  0  0  0  0  0  0  0  0  0  0
    7.2217   -2.0733    0.3604 H   0  0  0  0  0  0  0  0  0  0  0  0
    7.9312   -5.7335    1.0763 H   0  0  0  0  0  0  0  0  0  0  0  0
   -1.8593   -9.4972    3.3915 H   0  0  0  0  0  0  0  0  0  0  0  0
    0.1544  -11.1855    3.9690 H   0  0  0  0  0  0  0  0  0  0  0  0
  1  2  1  0
  1 19  1  0
  1 20  1  0
  1 21  1  0
  2  3  1  0
  2 22  1  0
  2 23  1  0
  3 18  1  0
  3  4  2  0
  4  5  1  0
  4 24  1  0
  5  6  1  0
  5  7  2  0
  7  8  1  0
  7 18  1  0
  8 17  1  0
  8  9  2  0
  9 10  1  0
 10 11  2  0
 11 12  1  0
 11 17  1  0
 12 16  1  0
 12 13  2  0
 13 14  1  0
 14 15  2  0
 14 25  1  0
 15 16  1  0
 15 26  1  0
M  END
>  <i_m_ct_stereo_status>  (280) 
1

>  <s_m_source_file>  (280) 
/var/tmp/pbs.5076255.sched01/tmprva83imr/861x3d95ot.sdf

>  <i_m_source_file_index>  (280) 
26

>  <i_lp_mmshare_version>  (280) 
48012

>  <i_f3d_flags>  (280) 
0

>  <s_epik_input>  (280) 
W0NIM11bQ0gyXWMxW2NIXWMoQ2wpYyhzMSktYzJubmMobzIpLWMzbltjSF1bY0hdczM=

>  <s_epik_cmdline>  (280) 
J2VwaWtfcHl0aG9uJywgJy1waHQnLCAnMi4wJywgJy1waCcsICc3LjAnLCAnLXRuJywgJzgnLCAnLW1hJywgJzIwMCcsICctaW1hZScsICc8aW5maWxlLm1hZT4nLCAnLW9tYWUnLCAnPG91dGZpbGUubWFlPic=

>  <r_lp_tautomer_probability>  (280) 
1

>  <r_epik_Ionization_Penalty>  (280) 
4.00063e-07

>  <r_epik_Ionization_Penalty_Charging>  (280) 
0

>  <r_epik_Ionization_Penalty_Neutral>  (280) 
4.00063e-07

>  <r_epik_State_Penalty>  (280) 
-0

>  <r_epik_Charging_Adjusted_Penalty>  (280) 
0

>  <i_epik_Tot_Q>  (280) 
0

>  <i_epik_Tot_abs_Q>  (280) 
0

>  <s_lp_Force_Field>  (280) 
OPLS3e

>  <r_lp_Energy>  (280) 
6.87072

>  <b_lp_Chiralities_Consistent>  (280) 
1

>  <s_lp_Variant>  (280) 
80:0-1

>  <s_i_glide_gridfile>  (280) 
pfpi4k_grid

>  <i_i_glide_lignum>  (280) 
26

>  <i_i_glide_rotatable_bonds>  (280) 
3

>  <r_i_docking_score>  (280) 
-3.62704

>  <r_i_glide_ligand_efficiency>  (280) 
-0.201502

>  <r_i_glide_ligand_efficiency_sa>  (280) 
-0.528085

>  <r_i_glide_ligand_efficiency_ln>  (280) 
-0.932312

>  <r_i_glide_gscore>  (280) 
-3.62704

>  <r_i_glide_lipo>  (280) 
-0.685936

>  <r_i_glide_hbond>  (280) 
0

>  <r_i_glide_metal>  (280) 
-0

>  <r_i_glide_rewards>  (280) 
-1.37874

>  <r_i_glide_evdw>  (280) 
-26.3861

>  <r_i_glide_ecoul>  (280) 
-3.28589

>  <r_i_glide_erotb>  (280) 
0.41366

>  <r_i_glide_esite>  (280) 
-0.163841

>  <r_i_glide_emodel>  (280) 
-34.9581

>  <r_i_glide_energy>  (280) 
-29.672

>  <r_i_glide_einternal>  (280) 
4.22345

>  <r_i_glide_intrahb_reward>  (280) 
-0

>  <i_i_glide_confnum>  (280) 
3

>  <i_i_glide_posenum>  (280) 
24

>  <r_i_glide_eff_state_penalty>  (280) 
0

>  <ligand_id>  (280) 
80

>  <original_smiles>  (280) 
CCc1cc(Cl)c(-c2nnc(-c3nccs3)o2)s1

>  <smiles>  (280) 
[H]c1nc(-c2nnc(-c3sc(C([H])([H])C([H])([H])[H])c([H])c3Cl)o2)sc1[H]

$$$$
80:0:1
     RDKit          3D

 26 28  0  0  1  0  0  0  0  0999 V2000
    4.7043   -1.7715   -2.6199 C   0  0  0  0  0  0  0  0  0  0  0  0
    5.1700   -1.8794   -1.1627 C   0  0  0  0  0  0  0  0  0  0  0  0
    4.7992   -3.1679   -0.5065 C   0  0  0  0  0  0  0  0  0  0  0  0
    5.6381   -4.1158    0.0267 C   0  0  0  0  0  0  0  0  0  0  0  0
    4.9461   -5.2288    0.5812 C   0  0  0  0  0  0  0  0  0  0  0  0
    5.8411   -6.4971    1.2777 Cl  0  0  0  0  0  0  0  0  0  0  0  0
    3.5812   -5.1261    0.4760 C   0  0  0  0  0  0  0  0  0  0  0  0
    2.5245   -6.0383    0.8919 C   0  0  0  0  0  0  0  0  0  0  0  0
    1.2089   -5.9227    0.6906 N   0  0  0  0  0  0  0  0  0  0  0  0
    0.6319   -7.0070    1.3015 N   0  0  0  0  0  0  0  0  0  0  0  0
    1.6428   -7.7282    1.8000 C   0  0  0  0  0  0  0  0  0  0  0  0
    1.5800   -8.9883    2.5315 C   0  0  0  0  0  0  0  0  0  0  0  0
    0.4520   -9.5259    3.0127 N   0  0  0  0  0  0  0  0  0  0  0  0
    0.6734  -10.7307    3.6811 C   0  0  0  0  0  0  0  0  0  0  0  0
    1.9904  -11.1107    3.7034 C   0  0  0  0  0  0  0  0  0  0  0  0
    3.0109   -9.9584    2.8857 S   0  0  0  0  0  0  0  0  0  0  0  0
    2.8607   -7.1616    1.5801 O   0  0  0  0  0  0  0  0  0  0  0  0
    3.1278   -3.6315   -0.3084 S   0  0  0  0  0  0  0  0  0  0  0  0
    5.0135   -0.8240   -3.0605 H   0  0  0  0  0  0  0  0  0  0  0  0
    3.6166   -1.8196   -2.6887 H   0  0  0  0  0  0  0  0  0  0  0  0
    5.1185   -2.5773   -3.2271 H   0  0  0  0  0  0  0  0  0  0  0  0
    6.2518   -1.7562   -1.1275 H   0  0  0  0  0  0  0  0  0  0  0  0
    4.7529   -1.0501   -0.5909 H   0  0  0  0  0  0  0  0  0  0  0  0
    6.7159   -4.0625    0.0414 H   0  0  0  0  0  0  0  0  0  0  0  0
   -0.1717  -11.2539    4.1104 H   0  0  0  0  0  0  0  0  0  0  0  0
    2.4108  -11.9978    4.1502 H   0  0  0  0  0  0  0  0  0  0  0  0
  1  2  1  0
  1 19  1  0
  1 20  1  0
  1 21  1  0
  2  3  1  0
  2 22  1  0
  2 23  1  0
  3 18  1  0
  3  4  2  0
  4  5  1  0
  4 24  1  0
  5  6  1  0
  5  7  2  0
  7  8  1  0
  7 18  1  0
  8 17  1  0
  8  9  2  0
  9 10  1  0
 10 11  2  0
 11 12  1  0
 11 17  1  0
 12 16  1  0
 12 13  2  0
 13 14  1  0
 14 15  2  0
 14 25  1  0
 15 16  1  0
 15 26  1  0
M  END
>  <i_m_ct_stereo_status>  (281) 
1

>  <s_m_source_file>  (281) 
/var/tmp/pbs.5076255.sched01/tmprva83imr/861x3d95ot.sdf

>  <i_m_source_file_index>  (281) 
26

>  <i_lp_mmshare_version>  (281) 
48012

>  <i_f3d_flags>  (281) 
0

>  <s_epik_input>  (281) 
W0NIM11bQ0gyXWMxW2NIXWMoQ2wpYyhzMSktYzJubmMobzIpLWMzbltjSF1bY0hdczM=

>  <s_epik_cmdline>  (281) 
J2VwaWtfcHl0aG9uJywgJy1waHQnLCAnMi4wJywgJy1waCcsICc3LjAnLCAnLXRuJywgJzgnLCAnLW1hJywgJzIwMCcsICctaW1hZScsICc8aW5maWxlLm1hZT4nLCAnLW9tYWUnLCAnPG91dGZpbGUubWFlPic=

>  <r_lp_tautomer_probability>  (281) 
1

>  <r_epik_Ionization_Penalty>  (281) 
4.00063e-07

>  <r_epik_Ionization_Penalty_Charging>  (281) 
0

>  <r_epik_Ionization_Penalty_Neutral>  (281) 
4.00063e-07

>  <r_epik_State_Penalty>  (281) 
-0

>  <r_epik_Charging_Adjusted_Penalty>  (281) 
0

>  <i_epik_Tot_Q>  (281) 
0

>  <i_epik_Tot_abs_Q>  (281) 
0

>  <s_lp_Force_Field>  (281) 
OPLS3e

>  <r_lp_Energy>  (281) 
6.87072

>  <b_lp_Chiralities_Consistent>  (281) 
1

>  <s_lp_Variant>  (281) 
80:0-1

>  <s_i_glide_gridfile>  (281) 
pfpi4k_grid

>  <i_i_glide_lignum>  (281) 
26

>  <i_i_glide_rotatable_bonds>  (281) 
3

>  <r_i_docking_score>  (281) 
-3.36542

>  <r_i_glide_ligand_efficiency>  (281) 
-0.186968

>  <r_i_glide_ligand_efficiency_sa>  (281) 
-0.489994

>  <r_i_glide_ligand_efficiency_ln>  (281) 
-0.865064

>  <r_i_glide_gscore>  (281) 
-3.36542

>  <r_i_glide_lipo>  (281) 
-0.337959

>  <r_i_glide_hbond>  (281) 
0

>  <r_i_glide_metal>  (281) 
-0

>  <r_i_glide_rewards>  (281) 
-1.37874

>  <r_i_glide_evdw>  (281) 
-25.5704

>  <r_i_glide_ecoul>  (281) 
-3.96889

>  <r_i_glide_erotb>  (281) 
0.41366

>  <r_i_glide_esite>  (281) 
-0.188531

>  <r_i_glide_emodel>  (281) 
-34.4883

>  <r_i_glide_energy>  (281) 
-29.5393

>  <r_i_glide_einternal>  (281) 
3.94163

>  <r_i_glide_intrahb_reward>  (281) 
-0

>  <i_i_glide_confnum>  (281) 
3

>  <i_i_glide_posenum>  (281) 
19

>  <r_i_glide_eff_state_penalty>  (281) 
0

>  <ligand_id>  (281) 
80

>  <original_smiles>  (281) 
CCc1cc(Cl)c(-c2nnc(-c3nccs3)o2)s1

>  <smiles>  (281) 
[H]c1nc(-c2nnc(-c3sc(C([H])([H])C([H])([H])[H])c([H])c3Cl)o2)sc1[H]

$$$$
80:0:2
     RDKit          3D

 26 28  0  0  1  0  0  0  0  0999 V2000
    4.9614   -1.0031   -1.3134 C   0  0  0  0  0  0  0  0  0  0  0  0
    5.7762   -2.2881   -1.4976 C   0  0  0  0  0  0  0  0  0  0  0  0
    5.2622   -3.4413   -0.6966 C   0  0  0  0  0  0  0  0  0  0  0  0
    5.9796   -4.3141    0.0796 C   0  0  0  0  0  0  0  0  0  0  0  0
    5.1686   -5.3171    0.6845 C   0  0  0  0  0  0  0  0  0  0  0  0
    5.9123   -6.4850    1.6725 Cl  0  0  0  0  0  0  0  0  0  0  0  0
    3.8336   -5.2046    0.3781 C   0  0  0  0  0  0  0  0  0  0  0  0
    2.6801   -6.0091    0.7747 C   0  0  0  0  0  0  0  0  0  0  0  0
    1.3964   -5.8556    0.4308 N   0  0  0  0  0  0  0  0  0  0  0  0
    0.6930   -6.8384    1.0935 N   0  0  0  0  0  0  0  0  0  0  0  0
    1.6201   -7.5714    1.7234 C   0  0  0  0  0  0  0  0  0  0  0  0
    1.4600   -8.7664    2.5438 C   0  0  0  0  0  0  0  0  0  0  0  0
    2.4569   -9.4396    3.1274 N   0  0  0  0  0  0  0  0  0  0  0  0
    2.0114  -10.5430    3.8581 C   0  0  0  0  0  0  0  0  0  0  0  0
    0.6483  -10.6865    3.8327 C   0  0  0  0  0  0  0  0  0  0  0  0
   -0.1269   -9.4542    2.8813 S   0  0  0  0  0  0  0  0  0  0  0  0
    2.8823   -7.0882    1.5686 O   0  0  0  0  0  0  0  0  0  0  0  0
    3.5656   -3.8494   -0.6906 S   0  0  0  0  0  0  0  0  0  0  0  0
    5.3632   -0.2075   -1.9348 H   0  0  0  0  0  0  0  0  0  0  0  0
    4.9698   -0.6674   -0.2747 H   0  0  0  0  0  0  0  0  0  0  0  0
    3.9208   -1.1359   -1.6129 H   0  0  0  0  0  0  0  0  0  0  0  0
    5.7934   -2.5582   -2.5533 H   0  0  0  0  0  0  0  0  0  0  0  0
    6.8115   -2.0933   -1.2186 H   0  0  0  0  0  0  0  0  0  0  0  0
    7.0476   -4.2846    0.2343 H   0  0  0  0  0  0  0  0  0  0  0  0
    2.7290  -11.1672    4.3770 H   0  0  0  0  0  0  0  0  0  0  0  0
    0.0482  -11.4381    4.3254 H   0  0  0  0  0  0  0  0  0  0  0  0
  1  2  1  0
  1 19  1  0
  1 20  1  0
  1 21  1  0
  2  3  1  0
  2 22  1  0
  2 23  1  0
  3 18  1  0
  3  4  2  0
  4  5  1  0
  4 24  1  0
  5  6  1  0
  5  7  2  0
  7  8  1  0
  7 18  1  0
  8 17  1  0
  8  9  2  0
  9 10  1  0
 10 11  2  0
 11 12  1  0
 11 17  1  0
 12 16  1  0
 12 13  2  0
 13 14  1  0
 14 15  2  0
 14 25  1  0
 15 16  1  0
 15 26  1  0
M  END
>  <i_m_ct_stereo_status>  (282) 
1

>  <s_m_source_file>  (282) 
/var/tmp/pbs.5076255.sched01/tmprva83imr/861x3d95ot.sdf

>  <i_m_source_file_index>  (282) 
26

>  <i_lp_mmshare_version>  (282) 
48012

>  <i_f3d_flags>  (282) 
0

>  <s_epik_input>  (282) 
W0NIM11bQ0gyXWMxW2NIXWMoQ2wpYyhzMSktYzJubmMobzIpLWMzbltjSF1bY0hdczM=

>  <s_epik_cmdline>  (282) 
J2VwaWtfcHl0aG9uJywgJy1waHQnLCAnMi4wJywgJy1waCcsICc3LjAnLCAnLXRuJywgJzgnLCAnLW1hJywgJzIwMCcsICctaW1hZScsICc8aW5maWxlLm1hZT4nLCAnLW9tYWUnLCAnPG91dGZpbGUubWFlPic=

>  <r_lp_tautomer_probability>  (282) 
1

>  <r_epik_Ionization_Penalty>  (282) 
4.00063e-07

>  <r_epik_Ionization_Penalty_Charging>  (282) 
0

>  <r_epik_Ionization_Penalty_Neutral>  (282) 
4.00063e-07

>  <r_epik_State_Penalty>  (282) 
-0

>  <r_epik_Charging_Adjusted_Penalty>  (282) 
0

>  <i_epik_Tot_Q>  (282) 
0

>  <i_epik_Tot_abs_Q>  (282) 
0

>  <s_lp_Force_Field>  (282) 
OPLS3e

>  <r_lp_Energy>  (282) 
6.87072

>  <b_lp_Chiralities_Consistent>  (282) 
1

>  <s_lp_Variant>  (282) 
80:0-1

>  <s_i_glide_gridfile>  (282) 
pfpi4k_grid

>  <i_i_glide_lignum>  (282) 
26

>  <i_i_glide_rotatable_bonds>  (282) 
3

>  <r_i_docking_score>  (282) 
-3.35726

>  <r_i_glide_ligand_efficiency>  (282) 
-0.186514

>  <r_i_glide_ligand_efficiency_sa>  (282) 
-0.488806

>  <r_i_glide_ligand_efficiency_ln>  (282) 
-0.862966

>  <r_i_glide_gscore>  (282) 
-3.35726

>  <r_i_glide_lipo>  (282) 
-0.293401

>  <r_i_glide_hbond>  (282) 
0

>  <r_i_glide_metal>  (282) 
-0

>  <r_i_glide_rewards>  (282) 
-1.37874

>  <r_i_glide_evdw>  (282) 
-26.0906

>  <r_i_glide_ecoul>  (282) 
-3.99936

>  <r_i_glide_erotb>  (282) 
0.41366

>  <r_i_glide_esite>  (282) 
-0.194349

>  <r_i_glide_emodel>  (282) 
-36.6189

>  <r_i_glide_energy>  (282) 
-30.0899

>  <r_i_glide_einternal>  (282) 
0.690539

>  <r_i_glide_intrahb_reward>  (282) 
-0

>  <i_i_glide_confnum>  (282) 
3

>  <i_i_glide_posenum>  (282) 
38

>  <r_i_glide_eff_state_penalty>  (282) 
0

>  <ligand_id>  (282) 
80

>  <original_smiles>  (282) 
CCc1cc(Cl)c(-c2nnc(-c3nccs3)o2)s1

>  <smiles>  (282) 
[H]c1nc(-c2nnc(-c3sc(C([H])([H])C([H])([H])[H])c([H])c3Cl)o2)sc1[H]

$$$$
81:0:0
     RDKit          3D

 13 14  0  0  1  0  0  0  0  0999 V2000
   -5.2039   -7.0597   -4.7248 Cl  0  0  0  0  0  0  0  0  0  0  0  0
   -6.5631   -6.4819   -5.6101 C   0  0  0  0  0  0  0  0  0  0  0  0
   -6.9875   -7.1700   -6.7648 C   0  0  0  0  0  0  0  0  0  0  0  0
   -8.0839   -6.6944   -7.5157 C   0  0  0  0  0  0  0  0  0  0  0  0
   -8.7820   -5.5255   -7.1270 C   0  0  0  0  0  0  0  0  0  0  0  0
   -9.8866   -4.9179   -7.7426 N   0  0  0  0  0  0  0  0  0  0  0  0
  -10.3068   -3.8515   -7.1189 N   0  0  0  0  0  0  0  0  0  0  0  0
   -9.3865   -3.4870   -5.7704 S   0  0  0  0  0  0  0  0  0  0  0  0
   -8.3278   -4.8568   -5.9576 C   0  0  0  0  0  0  0  0  0  0  0  0
   -7.2359   -5.3153   -5.1993 C   0  0  0  0  0  0  0  0  0  0  0  0
   -6.4655   -8.0583   -7.0818 H   0  0  0  0  0  0  0  0  0  0  0  0
   -8.4001   -7.2296   -8.3948 H   0  0  0  0  0  0  0  0  0  0  0  0
   -6.9219   -4.7756   -4.3176 H   0  0  0  0  0  0  0  0  0  0  0  0
  1  2  1  0
  2 10  2  0
  2  3  1  0
  3  4  2  0
  3 11  1  0
  4  5  1  0
  4 12  1  0
  5  9  2  0
  5  6  1  0
  6  7  2  0
  7  8  1  0
  8  9  1  0
  9 10  1  0
 10 13  1  0
M  END
>  <i_m_ct_stereo_status>  (283) 
1

>  <s_m_source_file>  (283) 
/var/tmp/pbs.5076255.sched01/tmprva83imr/861x3d95ot.sdf

>  <i_m_source_file_index>  (283) 
27

>  <i_lp_mmshare_version>  (283) 
48012

>  <i_f3d_flags>  (283) 
0

>  <s_epik_input>  (283) 
W2NIXTFbY0hdYyhDbClbY0hdYyhjMTIpc25uMg==

>  <s_epik_cmdline>  (283) 
J2VwaWtfcHl0aG9uJywgJy1waHQnLCAnMi4wJywgJy1waCcsICc3LjAnLCAnLXRuJywgJzgnLCAnLW1hJywgJzIwMCcsICctaW1hZScsICc8aW5maWxlLm1hZT4nLCAnLW9tYWUnLCAnPG91dGZpbGUubWFlPic=

>  <r_lp_tautomer_probability>  (283) 
1

>  <r_epik_Ionization_Penalty>  (283) 
1.01947e-10

>  <r_epik_Ionization_Penalty_Charging>  (283) 
0

>  <r_epik_Ionization_Penalty_Neutral>  (283) 
1.01947e-10

>  <r_epik_State_Penalty>  (283) 
-0

>  <r_epik_Charging_Adjusted_Penalty>  (283) 
0

>  <i_epik_Tot_Q>  (283) 
0

>  <i_epik_Tot_abs_Q>  (283) 
0

>  <s_lp_Force_Field>  (283) 
OPLS3e

>  <r_lp_Energy>  (283) 
9.04582

>  <b_lp_Chiralities_Consistent>  (283) 
1

>  <s_lp_Variant>  (283) 
81:0-1

>  <s_i_glide_gridfile>  (283) 
pfpi4k_grid

>  <i_i_glide_lignum>  (283) 
27

>  <i_i_glide_rotatable_bonds>  (283) 
0

>  <r_i_docking_score>  (283) 
-6.43162

>  <r_i_glide_ligand_efficiency>  (283) 
-0.643162

>  <r_i_glide_ligand_efficiency_sa>  (283) 
-1.38565

>  <r_i_glide_ligand_efficiency_ln>  (283) 
-1.94745

>  <r_i_glide_gscore>  (283) 
-6.43162

>  <r_i_glide_lipo>  (283) 
-2.12309

>  <r_i_glide_hbond>  (283) 
0

>  <r_i_glide_metal>  (283) 
-0

>  <r_i_glide_rewards>  (283) 
-2.96244

>  <r_i_glide_evdw>  (283) 
-22.6744

>  <r_i_glide_ecoul>  (283) 
-1.2722

>  <r_i_glide_erotb>  (283) 
0

>  <r_i_glide_esite>  (283) 
-0.021545

>  <r_i_glide_emodel>  (283) 
-33.423

>  <r_i_glide_energy>  (283) 
-23.9466

>  <r_i_glide_einternal>  (283) 
0

>  <r_i_glide_intrahb_reward>  (283) 
-0

>  <i_i_glide_confnum>  (283) 
1

>  <i_i_glide_posenum>  (283) 
1

>  <r_i_glide_eff_state_penalty>  (283) 
0

>  <ligand_id>  (283) 
81

>  <original_smiles>  (283) 
Clc1ccc2nnsc2c1

>  <smiles>  (283) 
[H]c1c(Cl)c([H])c2snnc2c1[H]

$$$$
81:0:1
     RDKit          3D

 13 14  0  0  1  0  0  0  0  0999 V2000
   -6.6593   -4.6011   -4.3127 Cl  0  0  0  0  0  0  0  0  0  0  0  0
   -6.5801   -6.0444   -5.2421 C   0  0  0  0  0  0  0  0  0  0  0  0
   -7.4321   -6.2160   -6.3493 C   0  0  0  0  0  0  0  0  0  0  0  0
   -7.3686   -7.3951   -7.1217 C   0  0  0  0  0  0  0  0  0  0  0  0
   -6.4510   -8.4228   -6.7994 C   0  0  0  0  0  0  0  0  0  0  0  0
   -6.2496   -9.6479   -7.4491 N   0  0  0  0  0  0  0  0  0  0  0  0
   -5.3209  -10.3850   -6.8986 N   0  0  0  0  0  0  0  0  0  0  0  0
   -4.6227   -9.6497   -5.5525 S   0  0  0  0  0  0  0  0  0  0  0  0
   -5.6058   -8.2167   -5.6770 C   0  0  0  0  0  0  0  0  0  0  0  0
   -5.6579   -7.0471   -4.9000 C   0  0  0  0  0  0  0  0  0  0  0  0
   -8.1341   -5.4387   -6.6104 H   0  0  0  0  0  0  0  0  0  0  0  0
   -8.0259   -7.5107   -7.9696 H   0  0  0  0  0  0  0  0  0  0  0  0
   -5.0026   -6.9262   -4.0503 H   0  0  0  0  0  0  0  0  0  0  0  0
  1  2  1  0
  2 10  2  0
  2  3  1  0
  3  4  2  0
  3 11  1  0
  4  5  1  0
  4 12  1  0
  5  9  2  0
  5  6  1  0
  6  7  2  0
  7  8  1  0
  8  9  1  0
  9 10  1  0
 10 13  1  0
M  END
>  <i_m_ct_stereo_status>  (284) 
1

>  <s_m_source_file>  (284) 
/var/tmp/pbs.5076255.sched01/tmprva83imr/861x3d95ot.sdf

>  <i_m_source_file_index>  (284) 
27

>  <i_lp_mmshare_version>  (284) 
48012

>  <i_f3d_flags>  (284) 
0

>  <s_epik_input>  (284) 
W2NIXTFbY0hdYyhDbClbY0hdYyhjMTIpc25uMg==

>  <s_epik_cmdline>  (284) 
J2VwaWtfcHl0aG9uJywgJy1waHQnLCAnMi4wJywgJy1waCcsICc3LjAnLCAnLXRuJywgJzgnLCAnLW1hJywgJzIwMCcsICctaW1hZScsICc8aW5maWxlLm1hZT4nLCAnLW9tYWUnLCAnPG91dGZpbGUubWFlPic=

>  <r_lp_tautomer_probability>  (284) 
1

>  <r_epik_Ionization_Penalty>  (284) 
1.01947e-10

>  <r_epik_Ionization_Penalty_Charging>  (284) 
0

>  <r_epik_Ionization_Penalty_Neutral>  (284) 
1.01947e-10

>  <r_epik_State_Penalty>  (284) 
-0

>  <r_epik_Charging_Adjusted_Penalty>  (284) 
0

>  <i_epik_Tot_Q>  (284) 
0

>  <i_epik_Tot_abs_Q>  (284) 
0

>  <s_lp_Force_Field>  (284) 
OPLS3e

>  <r_lp_Energy>  (284) 
9.04582

>  <b_lp_Chiralities_Consistent>  (284) 
1

>  <s_lp_Variant>  (284) 
81:0-1

>  <s_i_glide_gridfile>  (284) 
pfpi4k_grid

>  <i_i_glide_lignum>  (284) 
27

>  <i_i_glide_rotatable_bonds>  (284) 
0

>  <r_i_docking_score>  (284) 
-5.39205

>  <r_i_glide_ligand_efficiency>  (284) 
-0.539205

>  <r_i_glide_ligand_efficiency_sa>  (284) 
-1.16168

>  <r_i_glide_ligand_efficiency_ln>  (284) 
-1.63267

>  <r_i_glide_gscore>  (284) 
-5.39205

>  <r_i_glide_lipo>  (284) 
-2.04404

>  <r_i_glide_hbond>  (284) 
0

>  <r_i_glide_metal>  (284) 
-0

>  <r_i_glide_rewards>  (284) 
-2.24577

>  <r_i_glide_evdw>  (284) 
-22.0419

>  <r_i_glide_ecoul>  (284) 
-0.00092429

>  <r_i_glide_erotb>  (284) 
0

>  <r_i_glide_esite>  (284) 
0

>  <r_i_glide_emodel>  (284) 
-29.9877

>  <r_i_glide_energy>  (284) 
-22.0428

>  <r_i_glide_einternal>  (284) 
0

>  <r_i_glide_intrahb_reward>  (284) 
-0

>  <i_i_glide_confnum>  (284) 
2

>  <i_i_glide_posenum>  (284) 
8

>  <r_i_glide_eff_state_penalty>  (284) 
0

>  <ligand_id>  (284) 
81

>  <original_smiles>  (284) 
Clc1ccc2nnsc2c1

>  <smiles>  (284) 
[H]c1c(Cl)c([H])c2snnc2c1[H]

$$$$
81:0:2
     RDKit          3D

 13 14  0  0  1  0  0  0  0  0999 V2000
   -7.1653   -4.6317   -4.4559 Cl  0  0  0  0  0  0  0  0  0  0  0  0
   -6.6437   -6.0783   -5.2274 C   0  0  0  0  0  0  0  0  0  0  0  0
   -5.4969   -6.7451   -4.7594 C   0  0  0  0  0  0  0  0  0  0  0  0
   -5.0548   -7.9359   -5.3727 C   0  0  0  0  0  0  0  0  0  0  0  0
   -5.7544   -8.4802   -6.4757 C   0  0  0  0  0  0  0  0  0  0  0  0
   -5.4660   -9.6391   -7.2054 N   0  0  0  0  0  0  0  0  0  0  0  0
   -6.3132   -9.8723   -8.1724 N   0  0  0  0  0  0  0  0  0  0  0  0
   -7.5127   -8.6967   -8.2805 S   0  0  0  0  0  0  0  0  0  0  0  0
   -6.9059   -7.7798   -6.9292 C   0  0  0  0  0  0  0  0  0  0  0  0
   -7.3570   -6.5937   -6.3218 C   0  0  0  0  0  0  0  0  0  0  0  0
   -4.9599   -6.3394   -3.9204 H   0  0  0  0  0  0  0  0  0  0  0  0
   -4.1773   -8.4400   -4.9944 H   0  0  0  0  0  0  0  0  0  0  0  0
   -8.2360   -6.0863   -6.6930 H   0  0  0  0  0  0  0  0  0  0  0  0
  1  2  1  0
  2 10  2  0
  2  3  1  0
  3  4  2  0
  3 11  1  0
  4  5  1  0
  4 12  1  0
  5  9  2  0
  5  6  1  0
  6  7  2  0
  7  8  1  0
  8  9  1  0
  9 10  1  0
 10 13  1  0
M  END
>  <i_m_ct_stereo_status>  (285) 
1

>  <s_m_source_file>  (285) 
/var/tmp/pbs.5076255.sched01/tmprva83imr/861x3d95ot.sdf

>  <i_m_source_file_index>  (285) 
27

>  <i_lp_mmshare_version>  (285) 
48012

>  <i_f3d_flags>  (285) 
0

>  <s_epik_input>  (285) 
W2NIXTFbY0hdYyhDbClbY0hdYyhjMTIpc25uMg==

>  <s_epik_cmdline>  (285) 
J2VwaWtfcHl0aG9uJywgJy1waHQnLCAnMi4wJywgJy1waCcsICc3LjAnLCAnLXRuJywgJzgnLCAnLW1hJywgJzIwMCcsICctaW1hZScsICc8aW5maWxlLm1hZT4nLCAnLW9tYWUnLCAnPG91dGZpbGUubWFlPic=

>  <r_lp_tautomer_probability>  (285) 
1

>  <r_epik_Ionization_Penalty>  (285) 
1.01947e-10

>  <r_epik_Ionization_Penalty_Charging>  (285) 
0

>  <r_epik_Ionization_Penalty_Neutral>  (285) 
1.01947e-10

>  <r_epik_State_Penalty>  (285) 
-0

>  <r_epik_Charging_Adjusted_Penalty>  (285) 
0

>  <i_epik_Tot_Q>  (285) 
0

>  <i_epik_Tot_abs_Q>  (285) 
0

>  <s_lp_Force_Field>  (285) 
OPLS3e

>  <r_lp_Energy>  (285) 
9.04582

>  <b_lp_Chiralities_Consistent>  (285) 
1

>  <s_lp_Variant>  (285) 
81:0-1

>  <s_i_glide_gridfile>  (285) 
pfpi4k_grid

>  <i_i_glide_lignum>  (285) 
27

>  <i_i_glide_rotatable_bonds>  (285) 
0

>  <r_i_docking_score>  (285) 
-5.29842

>  <r_i_glide_ligand_efficiency>  (285) 
-0.529842

>  <r_i_glide_ligand_efficiency_sa>  (285) 
-1.14151

>  <r_i_glide_ligand_efficiency_ln>  (285) 
-1.60433

>  <r_i_glide_gscore>  (285) 
-5.29842

>  <r_i_glide_lipo>  (285) 
-2.02274

>  <r_i_glide_hbond>  (285) 
0

>  <r_i_glide_metal>  (285) 
-0

>  <r_i_glide_rewards>  (285) 
-2.24577

>  <r_i_glide_evdw>  (285) 
-20.9167

>  <r_i_glide_ecoul>  (285) 
0.106161

>  <r_i_glide_erotb>  (285) 
0

>  <r_i_glide_esite>  (285) 
0

>  <r_i_glide_emodel>  (285) 
-28.6173

>  <r_i_glide_energy>  (285) 
-20.8105

>  <r_i_glide_einternal>  (285) 
0

>  <r_i_glide_intrahb_reward>  (285) 
-0

>  <i_i_glide_confnum>  (285) 
1

>  <i_i_glide_posenum>  (285) 
3

>  <r_i_glide_eff_state_penalty>  (285) 
0

>  <ligand_id>  (285) 
81

>  <original_smiles>  (285) 
Clc1ccc2nnsc2c1

>  <smiles>  (285) 
[H]c1c(Cl)c([H])c2snnc2c1[H]

$$$$
82:0:0
     RDKit          3D

101108  0  0  1  0  0  0  0  0999 V2000
    6.1162   -9.1084    1.9074 C   0  0  0  0  0  0  0  0  0  0  0  0
    4.6382   -8.9225    2.3165 C   0  0  2  0  0  0  0  0  0  0  0  0
    4.0357   -7.7934    1.4977 C   0  0  0  0  0  0  0  0  0  0  0  0
    2.6010   -7.5497    1.9206 C   0  0  0  0  0  0  0  0  0  0  0  0
    2.2582   -7.8387    3.3996 C   0  0  1  0  0  0  0  0  0  0  0  0
    1.4319   -9.2139    3.7193 C   0  0  0  0  0  0  0  0  0  0  0  0
   -0.0669   -8.9777    3.3819 C   0  0  0  0  0  0  0  0  0  0  0  0
    1.7533  -10.4747    2.8753 C   0  0  0  0  0  0  0  0  0  0  0  0
    1.6274   -9.5216    5.2960 C   0  0  1  0  0  0  0  0  0  0  0  0
    2.3520  -10.6890    5.5949 O   0  0  0  0  0  0  0  0  0  0  0  0
    2.2966   -8.1951    5.6919 C   0  0  1  0  0  0  0  0  0  0  0  0
    1.1053   -7.4777    5.6040 O   0  0  0  0  0  0  0  0  0  0  0  0
    2.8127   -7.8146    6.9699 O   0  0  0  0  0  0  0  0  0  0  0  0
    2.2865   -7.9219    8.3081 C   0  0  2  0  0  0  0  0  0  0  0  0
    0.8007   -7.6207    8.3017 C   0  0  0  0  0  0  0  0  0  0  0  0
    0.2559   -6.4210    7.9155 C   0  0  0  0  0  0  0  0  0  0  0  0
    0.7980   -5.0840    7.2565 C   0  0  2  0  0  0  0  0  0  0  0  0
    1.0431   -4.1852    8.3118 O   0  0  0  0  0  0  0  0  0  0  0  0
   -0.4363   -4.4612    6.5832 C   0  0  0  0  0  0  0  0  0  0  0  0
    0.0181   -3.2891    5.7047 C   0  0  0  0  0  0  0  0  0  0  0  0
    1.5297   -3.4494    5.4452 C   0  0  0  0  0  0  0  0  0  0  0  0
    1.7850   -3.3519    3.9213 C   0  0  0  0  0  0  0  0  0  0  0  0
    2.2621   -2.2546    6.1013 C   0  0  0  0  0  0  0  0  0  0  0  0
    1.8715   -4.8847    6.0294 C   0  0  1  0  0  0  0  0  0  0  0  0
    3.4438   -5.2621    6.0822 C   0  0  1  0  0  0  0  0  0  0  0  0
    4.0343   -4.7256    7.4040 C   0  0  0  0  0  0  0  0  0  0  0  0
    5.4349   -5.1067    7.7905 C   0  0  0  0  0  0  0  0  0  0  0  0
    5.6620   -6.6111    7.7012 C   0  0  1  0  0  0  0  0  0  0  0  0
    5.1411   -7.5866    8.8849 C   0  0  1  0  0  0  0  0  0  0  0  0
    6.3572   -8.0147    9.7550 C   0  0  0  0  0  0  0  0  0  0  0  0
    4.1812   -6.9203    9.8865 C   0  0  0  0  0  0  0  0  0  0  0  0
    2.7138   -6.9749    9.4862 C   0  0  0  0  0  0  0  0  0  0  0  0
    4.5035   -8.8994    8.3567 C   0  0  0  0  0  0  0  0  0  0  0  0
    5.0161   -9.4134    7.2331 C   0  0  0  0  0  0  0  0  0  0  0  0
    5.9984   -8.6037    6.4207 C   0  0  0  0  0  0  0  0  0  0  0  0
    5.5875   -7.0776    6.1926 C   0  0  2  0  0  0  0  0  0  0  0  0
    6.9226   -6.5658    5.5322 C   0  0  0  0  0  0  0  0  0  0  0  0
    4.2300   -6.5234    5.2789 C   0  0  2  0  0  0  0  0  0  0  0  0
    4.7586   -5.7654    4.0080 C   0  0  0  0  0  0  0  0  0  0  0  0
    3.3564   -7.7770    4.5620 C   0  0  2  0  0  0  0  0  0  0  0  0
    4.4430   -8.7867    3.8729 C   0  0  1  0  0  0  0  0  0  0  0  0
    4.5934  -10.1161    4.3187 O   0  0  0  0  0  0  0  0  0  0  0  0
    3.0203   -9.2233    8.7186 C   0  0  0  0  0  0  0  0  0  0  0  0
    6.7120   -8.2225    2.1336 H   0  0  0  0  0  0  0  0  0  0  0  0
    6.1952   -9.2949    0.8368 H   0  0  0  0  0  0  0  0  0  0  0  0
    6.5663   -9.9566    2.4200 H   0  0  0  0  0  0  0  0  0  0  0  0
    4.1418   -9.8252    1.9687 H   0  0  0  0  0  0  0  0  0  0  0  0
    4.6178   -6.8778    1.5742 H   0  0  0  0  0  0  0  0  0  0  0  0
    4.0534   -8.0620    0.4423 H   0  0  0  0  0  0  0  0  0  0  0  0
    2.3508   -6.5179    1.6676 H   0  0  0  0  0  0  0  0  0  0  0  0
    1.9459   -8.1422    1.2856 H   0  0  0  0  0  0  0  0  0  0  0  0
    1.5828   -6.9860    3.5066 H   0  0  0  0  0  0  0  0  0  0  0  0
   -0.6747   -9.8292    3.6917 H   0  0  0  0  0  0  0  0  0  0  0  0
   -0.2075   -8.8521    2.3084 H   0  0  0  0  0  0  0  0  0  0  0  0
   -0.4918   -8.0970    3.8596 H   0  0  0  0  0  0  0  0  0  0  0  0
    0.9980  -11.2454    3.0287 H   0  0  0  0  0  0  0  0  0  0  0  0
    2.6952  -10.9635    3.0913 H   0  0  0  0  0  0  0  0  0  0  0  0
    1.7483  -10.2432    1.8120 H   0  0  0  0  0  0  0  0  0  0  0  0
    0.6604   -9.6577    5.8000 H   0  0  0  0  0  0  0  0  0  0  0  0
    1.9138  -11.1656    6.2973 H   0  0  0  0  0  0  0  0  0  0  0  0
    0.4967   -7.8416    6.2248 H   0  0  0  0  0  0  0  0  0  0  0  0
    0.1689   -8.3927    8.7240 H   0  0  0  0  0  0  0  0  0  0  0  0
   -0.8106   -6.3805    8.0727 H   0  0  0  0  0  0  0  0  0  0  0  0
    1.8977   -4.3820    8.6632 H   0  0  0  0  0  0  0  0  0  0  0  0
   -0.9047   -5.2156    5.9445 H   0  0  0  0  0  0  0  0  0  0  0  0
   -1.1953   -4.1565    7.3062 H   0  0  0  0  0  0  0  0  0  0  0  0
   -0.5624   -3.2818    4.7808 H   0  0  0  0  0  0  0  0  0  0  0  0
   -0.1963   -2.3448    6.2043 H   0  0  0  0  0  0  0  0  0  0  0  0
    2.8465   -3.4033    3.6883 H   0  0  0  0  0  0  0  0  0  0  0  0
    1.4195   -2.4010    3.5345 H   0  0  0  0  0  0  0  0  0  0  0  0
    1.2781   -4.1395    3.3637 H   0  0  0  0  0  0  0  0  0  0  0  0
    3.3198   -2.2352    5.8436 H   0  0  0  0  0  0  0  0  0  0  0  0
    2.1693   -2.2429    7.1878 H   0  0  0  0  0  0  0  0  0  0  0  0
    1.8425   -1.3165    5.7403 H   0  0  0  0  0  0  0  0  0  0  0  0
    1.5258   -5.3869    5.1406 H   0  0  0  0  0  0  0  0  0  0  0  0
    3.7823   -4.4116    5.5104 H   0  0  0  0  0  0  0  0  0  0  0  0
    4.0195   -3.6381    7.4138 H   0  0  0  0  0  0  0  0  0  0  0  0
    3.4035   -4.9734    8.2170 H   0  0  0  0  0  0  0  0  0  0  0  0
    6.1205   -4.5719    7.1360 H   0  0  0  0  0  0  0  0  0  0  0  0
    5.6789   -4.7278    8.7837 H   0  0  0  0  0  0  0  0  0  0  0  0
    6.7283   -6.6093    7.9211 H   0  0  0  0  0  0  0  0  0  0  0  0
    6.8135   -7.1588   10.2482 H   0  0  0  0  0  0  0  0  0  0  0  0
    7.1276   -8.5132    9.1703 H   0  0  0  0  0  0  0  0  0  0  0  0
    6.0532   -8.7255   10.5281 H   0  0  0  0  0  0  0  0  0  0  0  0
    4.2511   -7.4584   10.8336 H   0  0  0  0  0  0  0  0  0  0  0  0
    4.4861   -5.9104   10.1485 H   0  0  0  0  0  0  0  0  0  0  0  0
    2.2823   -5.9856    9.4758 H   0  0  0  0  0  0  0  0  0  0  0  0
    2.2100   -7.3597   10.3713 H   0  0  0  0  0  0  0  0  0  0  0  0
    4.5183  -10.2313    6.7452 H   0  0  0  0  0  0  0  0  0  0  0  0
    6.9020   -8.6267    7.0283 H   0  0  0  0  0  0  0  0  0  0  0  0
    6.3687   -9.1634    5.5726 H   0  0  0  0  0  0  0  0  0  0  0  0
    7.1156   -7.0338    4.5671 H   0  0  0  0  0  0  0  0  0  0  0  0
    7.8089   -6.8157    6.1183 H   0  0  0  0  0  0  0  0  0  0  0  0
    6.9838   -5.4895    5.3895 H   0  0  0  0  0  0  0  0  0  0  0  0
    5.4468   -6.3432    3.4052 H   0  0  0  0  0  0  0  0  0  0  0  0
    5.3099   -4.8518    4.2324 H   0  0  0  0  0  0  0  0  0  0  0  0
    3.9276   -5.4743    3.3661 H   0  0  0  0  0  0  0  0  0  0  0  0
    5.3911   -8.3253    4.0645 H   0  0  0  0  0  0  0  0  0  0  0  0
    3.7484  -10.5501    4.2536 H   0  0  0  0  0  0  0  0  0  0  0  0
    2.9078   -9.4493    9.7771 H   0  0  0  0  0  0  0  0  0  0  0  0
    2.6585  -10.0770    8.1520 H   0  0  0  0  0  0  0  0  0  0  0  0
  1  2  1  0
  1 44  1  0
  1 45  1  0
  1 46  1  0
  2 41  1  0
  2  3  1  0
  2 47  1  6
  3  4  1  0
  3 48  1  0
  3 49  1  0
  4  5  1  0
  4 50  1  0
  4 51  1  0
  5 40  1  0
  5  6  1  0
  5 52  1  1
  6  7  1  0
  6  8  1  0
  6  9  1  0
  7 53  1  0
  7 54  1  0
  7 55  1  0
  8 56  1  0
  8 57  1  0
  8 58  1  0
  9 10  1  0
  9 11  1  0
  9 59  1  1
 10 60  1  0
 40 11  1  1
 11 12  1  6
 11 13  1  0
 12 61  1  0
 13 14  1  0
 14 32  1  1
 14 43  1  0
 14 15  1  0
 15 16  2  3
 15 62  1  0
 16 17  1  0
 16 63  1  0
 17 24  1  0
 17 18  1  1
 17 19  1  0
 18 64  1  0
 19 20  1  0
 19 65  1  0
 19 66  1  0
 20 21  1  0
 20 67  1  0
 20 68  1  0
 21 22  1  0
 21 23  1  0
 21 24  1  0
 22 69  1  0
 22 70  1  0
 22 71  1  0
 23 72  1  0
 23 73  1  0
 23 74  1  0
 24 25  1  0
 24 75  1  6
 25 38  1  0
 25 26  1  0
 25 76  1  6
 26 27  1  0
 26 77  1  0
 26 78  1  0
 27 28  1  0
 27 79  1  0
 27 80  1  0
 28 36  1  0
 28 29  1  0
 28 81  1  1
 29 30  1  1
 29 31  1  0
 29 33  1  0
 30 82  1  0
 30 83  1  0
 30 84  1  0
 31 32  1  0
 31 85  1  0
 31 86  1  0
 32 87  1  0
 32 88  1  0
 33 34  2  0
 33 43  1  0
 34 35  1  0
 34 89  1  0
 35 36  1  0
 35 90  1  0
 35 91  1  0
 36 37  1  6
 36 38  1  0
 37 92  1  0
 37 93  1  0
 37 94  1  0
 38 39  1  6
 38 40  1  0
 39 95  1  0
 39 96  1  0
 39 97  1  0
 40 41  1  0
 41 42  1  0
 41 98  1  1
 42 99  1  0
 43100  1  0
 43101  1  0
M  END
>  <i_m_ct_stereo_status>  (286) 
1

>  <s_m_source_file>  (286) 
/var/tmp/pbs.5076255.sched01/tmprva83imr/861x3d95ot.sdf

>  <i_m_source_file_index>  (286) 
28

>  <i_lp_mmshare_version>  (286) 
48012

>  <i_f3d_flags>  (286) 
0

>  <s_epik_input>  (286) 
W09IXVtDQEhdMVtDQEhdKFtDSDNdKVtDSDJdW0NIMl1bQ0hdKEMoW0NIM10pKFtDSDNdKVtDQEhdMltPSF0pW0NAXTEoW0NAXTIoW09IXSlPW0NAXTM0NSlbQ0BAXTYoW0NIM10pW0NIXShbQ0BIXTdbQ0BdKFtPSF0pKC9bQ0hdPVtDSF1cMylbQ0gyXVtDSDJdQzcoW0NIM10pW0NIM10pW0NIMl1bQ0gyXVtDQEhdOFtDQEBdKFtDSDNdKShbQ0gyXVtDSDJdNClDKFtDSDJdNSk9W0NIXVtDSDJdW0NAQF02OFtDSDNd

>  <s_epik_cmdline>  (286) 
J2VwaWtfcHl0aG9uJywgJy1waHQnLCAnMi4wJywgJy1waCcsICc3LjAnLCAnLXRuJywgJzgnLCAnLW1hJywgJzIwMCcsICctaW1hZScsICc8aW5maWxlLm1hZT4nLCAnLW9tYWUnLCAnPG91dGZpbGUubWFlPic=

>  <r_lp_tautomer_probability>  (286) 
1

>  <r_epik_Ionization_Penalty>  (286) 
8.69048e-07

>  <r_epik_Ionization_Penalty_Charging>  (286) 
0

>  <r_epik_Ionization_Penalty_Neutral>  (286) 
8.69048e-07

>  <r_epik_State_Penalty>  (286) 
-0

>  <r_epik_Charging_Adjusted_Penalty>  (286) 
0

>  <i_epik_Tot_Q>  (286) 
0

>  <i_epik_Tot_abs_Q>  (286) 
0

>  <s_lp_Force_Field>  (286) 
OPLS3e

>  <r_lp_Energy>  (286) 
372.305

>  <b_lp_Chiralities_Consistent>  (286) 
1

>  <s_lp_Variant>  (286) 
82:0-1

>  <s_i_glide_gridfile>  (286) 
pfpi4k_grid

>  <i_i_glide_lignum>  (286) 
28

>  <i_i_glide_rotatable_bonds>  (286) 
4

>  <r_i_docking_score>  (286) 
-2.55598

>  <r_i_glide_ligand_efficiency>  (286) 
-0.0594415

>  <r_i_glide_ligand_efficiency_sa>  (286) 
-0.208247

>  <r_i_glide_ligand_efficiency_ln>  (286) 
-0.536836

>  <r_i_glide_gscore>  (286) 
-2.55598

>  <r_i_glide_lipo>  (286) 
-0.186249

>  <r_i_glide_hbond>  (286) 
0

>  <r_i_glide_metal>  (286) 
-0

>  <r_i_glide_rewards>  (286) 
-0.5

>  <r_i_glide_evdw>  (286) 
-26.5638

>  <r_i_glide_ecoul>  (286) 
-3.55897

>  <r_i_glide_erotb>  (286) 
0

>  <r_i_glide_esite>  (286) 
-0.00770012

>  <r_i_glide_emodel>  (286) 
-39.8947

>  <r_i_glide_energy>  (286) 
-30.1228

>  <r_i_glide_einternal>  (286) 
1.45347

>  <r_i_glide_intrahb_reward>  (286) 
-0.5

>  <i_i_glide_confnum>  (286) 
2

>  <i_i_glide_posenum>  (286) 
26

>  <r_i_glide_eff_state_penalty>  (286) 
0

>  <ligand_id>  (286) 
82

>  <original_smiles>  (286) 
CC1CCC2C(C)(C)C(O)C3(O)OC45C=CC6(O)CCC(C)(C)C6C6CCC7C(C)(CC4)C(=CCC7(C)C6(C)C23C1O)C5

>  <smiles>  (286) 
[H]OC1([H])C2(O[H])OC34C([H])=C([H])C5(O[H])C([H])([H])C([H])([H])C(C([H])([H])[H])(C([H])([H])[H])C5([H])C5([H])C([H])([H])C([H])([H])C6([H])C(C([H])([H])[H])(C(=C([H])C([H])([H])C6(C([H])([H])[H])C5(C([H])([H])[H])C25C([H])(O[H])C([H])(C([H])([H])[H])C([H])([H])C([H])([H])C5([H])C1(C([H])([H])[H])C([H])([H])[H])C3([H])[H])C([H])([H])C4([H])[H]

$$$$
82:0:1
     RDKit          3D

101108  0  0  1  0  0  0  0  0999 V2000
    4.6186  -10.8040    3.4071 C   0  0  0  0  0  0  0  0  0  0  0  0
    3.3626   -9.9186    3.2574 C   0  0  2  0  0  0  0  0  0  0  0  0
    3.5522   -8.9674    2.0865 C   0  0  0  0  0  0  0  0  0  0  0  0
    2.3586   -8.0456    1.9561 C   0  0  0  0  0  0  0  0  0  0  0  0
    1.6224   -7.6889    3.2692 C   0  0  1  0  0  0  0  0  0  0  0  0
    0.1961   -8.4449    3.5406 C   0  0  0  0  0  0  0  0  0  0  0  0
   -0.9050   -7.7406    2.6999 C   0  0  0  0  0  0  0  0  0  0  0  0
    0.0562   -9.9222    3.0891 C   0  0  0  0  0  0  0  0  0  0  0  0
   -0.1164   -8.2888    5.1143 C   0  0  1  0  0  0  0  0  0  0  0  0
   -0.1690   -9.4709    5.8703 O   0  0  0  0  0  0  0  0  0  0  0  0
    1.0001   -7.2858    5.4739 C   0  0  1  0  0  0  0  0  0  0  0  0
    0.3405   -6.2181    4.8701 O   0  0  0  0  0  0  0  0  0  0  0  0
    1.3526   -6.7683    6.7575 O   0  0  0  0  0  0  0  0  0  0  0  0
    0.5734   -6.2155    7.8434 C   0  0  2  0  0  0  0  0  0  0  0  0
   -0.5517   -5.3617    7.2921 C   0  0  0  0  0  0  0  0  0  0  0  0
   -0.3629   -4.2381    6.5280 C   0  0  0  0  0  0  0  0  0  0  0  0
    0.8806   -3.5152    5.8568 C   0  0  2  0  0  0  0  0  0  0  0  0
    1.2998   -2.5182    6.7577 O   0  0  0  0  0  0  0  0  0  0  0  0
    0.2730   -2.6829    4.7146 C   0  0  0  0  0  0  0  0  0  0  0  0
    1.3964   -2.1466    3.8292 C   0  0  0  0  0  0  0  0  0  0  0  0
    2.6620   -2.9796    4.1190 C   0  0  0  0  0  0  0  0  0  0  0  0
    3.2515   -3.4777    2.7750 C   0  0  0  0  0  0  0  0  0  0  0  0
    3.7188   -2.0398    4.7479 C   0  0  0  0  0  0  0  0  0  0  0  0
    2.1453   -4.1672    5.0361 C   0  0  1  0  0  0  0  0  0  0  0  0
    3.2955   -5.1039    5.6738 C   0  0  1  0  0  0  0  0  0  0  0  0
    3.7807   -4.4649    6.9969 C   0  0  0  0  0  0  0  0  0  0  0  0
    4.7138   -5.2370    7.8862 C   0  0  0  0  0  0  0  0  0  0  0  0
    4.2042   -6.6471    8.1573 C   0  0  1  0  0  0  0  0  0  0  0  0
    3.0423   -6.9026    9.2597 C   0  0  1  0  0  0  0  0  0  0  0  0
    3.6886   -7.4897   10.5472 C   0  0  0  0  0  0  0  0  0  0  0  0
    2.3337   -5.6277    9.7481 C   0  0  0  0  0  0  0  0  0  0  0  0
    1.1385   -5.2077    8.9028 C   0  0  0  0  0  0  0  0  0  0  0  0
    1.9849   -7.9429    8.8028 C   0  0  0  0  0  0  0  0  0  0  0  0
    2.4114   -8.9485    8.0316 C   0  0  0  0  0  0  0  0  0  0  0  0
    3.8062   -8.9024    7.4551 C   0  0  0  0  0  0  0  0  0  0  0  0
    4.2366   -7.4961    6.8232 C   0  0  2  0  0  0  0  0  0  0  0  0
    5.7593   -7.8061    6.5613 C   0  0  0  0  0  0  0  0  0  0  0  0
    3.5350   -6.7571    5.4226 C   0  0  2  0  0  0  0  0  0  0  0  0
    4.6164   -6.7227    4.2854 C   0  0  0  0  0  0  0  0  0  0  0  0
    2.3431   -7.7064    4.6995 C   0  0  2  0  0  0  0  0  0  0  0  0
    2.9333   -9.2267    4.6074 C   0  0  1  0  0  0  0  0  0  0  0  0
    2.3366  -10.2817    5.3187 O   0  0  0  0  0  0  0  0  0  0  0  0
    0.4927   -7.5035    8.7005 C   0  0  0  0  0  0  0  0  0  0  0  0
    5.5036  -10.2147    3.6511 H   0  0  0  0  0  0  0  0  0  0  0  0
    4.8240  -11.3398    2.4796 H   0  0  0  0  0  0  0  0  0  0  0  0
    4.4873  -11.5517    4.1913 H   0  0  0  0  0  0  0  0  0  0  0  0
    2.5824  -10.6058    2.9409 H   0  0  0  0  0  0  0  0  0  0  0  0
    4.4651   -8.3903    2.1835 H   0  0  0  0  0  0  0  0  0  0  0  0
    3.6701   -9.5379    1.1639 H   0  0  0  0  0  0  0  0  0  0  0  0
    2.6960   -7.1358    1.4485 H   0  0  0  0  0  0  0  0  0  0  0  0
    1.6498   -8.4915    1.2613 H   0  0  0  0  0  0  0  0  0  0  0  0
    1.4293   -6.6560    2.9888 H   0  0  0  0  0  0  0  0  0  0  0  0
   -1.8994   -8.1197    2.9490 H   0  0  0  0  0  0  0  0  0  0  0  0
   -0.7491   -7.9073    1.6356 H   0  0  0  0  0  0  0  0  0  0  0  0
   -0.9350   -6.6631    2.8443 H   0  0  0  0  0  0  0  0  0  0  0  0
   -0.9900  -10.2325    3.1198 H   0  0  0  0  0  0  0  0  0  0  0  0
    0.5702  -10.6514    3.7047 H   0  0  0  0  0  0  0  0  0  0  0  0
    0.3912  -10.0721    2.0688 H   0  0  0  0  0  0  0  0  0  0  0  0
   -1.1109   -7.8586    5.2777 H   0  0  0  0  0  0  0  0  0  0  0  0
   -0.8890  -10.0231    5.5597 H   0  0  0  0  0  0  0  0  0  0  0  0
   -0.4165   -6.0166    5.4056 H   0  0  0  0  0  0  0  0  0  0  0  0
   -1.5497   -5.6105    7.6274 H   0  0  0  0  0  0  0  0  0  0  0  0
   -1.2870   -3.7231    6.3133 H   0  0  0  0  0  0  0  0  0  0  0  0
    1.9526   -2.9002    7.3245 H   0  0  0  0  0  0  0  0  0  0  0  0
   -0.3329   -3.3413    4.0931 H   0  0  0  0  0  0  0  0  0  0  0  0
   -0.3867   -1.8842    5.0662 H   0  0  0  0  0  0  0  0  0  0  0  0
    1.0923   -2.2087    2.7835 H   0  0  0  0  0  0  0  0  0  0  0  0
    1.5557   -1.0876    4.0323 H   0  0  0  0  0  0  0  0  0  0  0  0
    4.1818   -4.0236    2.9214 H   0  0  0  0  0  0  0  0  0  0  0  0
    3.4773   -2.6358    2.1202 H   0  0  0  0  0  0  0  0  0  0  0  0
    2.5637   -4.1277    2.2332 H   0  0  0  0  0  0  0  0  0  0  0  0
    4.6860   -2.5265    4.8593 H   0  0  0  0  0  0  0  0  0  0  0  0
    3.4165   -1.6501    5.7175 H   0  0  0  0  0  0  0  0  0  0  0  0
    3.8900   -1.1749    4.1073 H   0  0  0  0  0  0  0  0  0  0  0  0
    1.7903   -4.7355    4.1954 H   0  0  0  0  0  0  0  0  0  0  0  0
    4.1125   -4.6946    5.0935 H   0  0  0  0  0  0  0  0  0  0  0  0
    4.2801   -3.5215    6.8005 H   0  0  0  0  0  0  0  0  0  0  0  0
    2.9512   -4.1715    7.5879 H   0  0  0  0  0  0  0  0  0  0  0  0
    5.6897   -5.2636    7.4061 H   0  0  0  0  0  0  0  0  0  0  0  0
    4.8936   -4.6959    8.8140 H   0  0  0  0  0  0  0  0  0  0  0  0
    5.0666   -7.0064    8.7164 H   0  0  0  0  0  0  0  0  0  0  0  0
    4.3850   -6.7833   11.0009 H   0  0  0  0  0  0  0  0  0  0  0  0
    4.2330   -8.4130   10.3563 H   0  0  0  0  0  0  0  0  0  0  0  0
    2.9310   -7.7352   11.2932 H   0  0  0  0  0  0  0  0  0  0  0  0
    1.9366   -5.8155   10.7472 H   0  0  0  0  0  0  0  0  0  0  0  0
    3.0199   -4.7987    9.9045 H   0  0  0  0  0  0  0  0  0  0  0  0
    1.2508   -4.1878    8.5691 H   0  0  0  0  0  0  0  0  0  0  0  0
    0.3355   -5.0501    9.6257 H   0  0  0  0  0  0  0  0  0  0  0  0
    1.7051   -9.6174    7.5699 H   0  0  0  0  0  0  0  0  0  0  0  0
    4.4395   -9.1002    8.3156 H   0  0  0  0  0  0  0  0  0  0  0  0
    4.0353   -9.8009    6.9006 H   0  0  0  0  0  0  0  0  0  0  0  0
    5.9046   -8.5897    5.8196 H   0  0  0  0  0  0  0  0  0  0  0  0
    6.2708   -8.1900    7.4442 H   0  0  0  0  0  0  0  0  0  0  0  0
    6.3523   -6.9483    6.2506 H   0  0  0  0  0  0  0  0  0  0  0  0
    5.0580   -7.6851    4.0606 H   0  0  0  0  0  0  0  0  0  0  0  0
    5.4757   -6.0877    4.5043 H   0  0  0  0  0  0  0  0  0  0  0  0
    4.1869   -6.3433    3.3607 H   0  0  0  0  0  0  0  0  0  0  0  0
    3.9205   -9.1544    5.0160 H   0  0  0  0  0  0  0  0  0  0  0  0
    1.4372  -10.3828    5.0356 H   0  0  0  0  0  0  0  0  0  0  0  0
    0.0715   -7.3272    9.6907 H   0  0  0  0  0  0  0  0  0  0  0  0
   -0.1067   -8.2686    8.2126 H   0  0  0  0  0  0  0  0  0  0  0  0
  1  2  1  0
  1 44  1  0
  1 45  1  0
  1 46  1  0
  2 41  1  0
  2  3  1  0
  2 47  1  6
  3  4  1  0
  3 48  1  0
  3 49  1  0
  4  5  1  0
  4 50  1  0
  4 51  1  0
  5 40  1  0
  5  6  1  0
  5 52  1  6
  6  7  1  0
  6  8  1  0
  6  9  1  0
  7 53  1  0
  7 54  1  0
  7 55  1  0
  8 56  1  0
  8 57  1  0
  8 58  1  0
  9 10  1  0
  9 11  1  0
  9 59  1  6
 10 60  1  0
 40 11  1  1
 11 12  1  6
 11 13  1  0
 12 61  1  0
 13 14  1  0
 14 32  1  1
 14 43  1  0
 14 15  1  0
 15 16  2  3
 15 62  1  0
 16 17  1  0
 16 63  1  0
 17 24  1  0
 17 18  1  1
 17 19  1  0
 18 64  1  0
 19 20  1  0
 19 65  1  0
 19 66  1  0
 20 21  1  0
 20 67  1  0
 20 68  1  0
 21 22  1  0
 21 23  1  0
 21 24  1  0
 22 69  1  0
 22 70  1  0
 22 71  1  0
 23 72  1  0
 23 73  1  0
 23 74  1  0
 24 25  1  0
 24 75  1  6
 25 38  1  0
 25 26  1  0
 25 76  1  6
 26 27  1  0
 26 77  1  0
 26 78  1  0
 27 28  1  0
 27 79  1  0
 27 80  1  0
 28 36  1  0
 28 29  1  0
 28 81  1  1
 29 30  1  1
 29 31  1  0
 29 33  1  0
 30 82  1  0
 30 83  1  0
 30 84  1  0
 31 32  1  0
 31 85  1  0
 31 86  1  0
 32 87  1  0
 32 88  1  0
 33 34  2  0
 33 43  1  0
 34 35  1  0
 34 89  1  0
 35 36  1  0
 35 90  1  0
 35 91  1  0
 36 37  1  6
 36 38  1  0
 37 92  1  0
 37 93  1  0
 37 94  1  0
 38 39  1  6
 38 40  1  0
 39 95  1  0
 39 96  1  0
 39 97  1  0
 40 41  1  0
 41 42  1  0
 41 98  1  1
 42 99  1  0
 43100  1  0
 43101  1  0
M  END
>  <i_m_ct_stereo_status>  (287) 
1

>  <s_m_source_file>  (287) 
/var/tmp/pbs.5076255.sched01/tmprva83imr/861x3d95ot.sdf

>  <i_m_source_file_index>  (287) 
28

>  <i_lp_mmshare_version>  (287) 
48012

>  <i_f3d_flags>  (287) 
0

>  <s_epik_input>  (287) 
W09IXVtDQEhdMVtDQEhdKFtDSDNdKVtDSDJdW0NIMl1bQ0hdKEMoW0NIM10pKFtDSDNdKVtDQEhdMltPSF0pW0NAXTEoW0NAXTIoW09IXSlPW0NAXTM0NSlbQ0BAXTYoW0NIM10pW0NIXShbQ0BIXTdbQ0BdKFtPSF0pKC9bQ0hdPVtDSF1cMylbQ0gyXVtDSDJdQzcoW0NIM10pW0NIM10pW0NIMl1bQ0gyXVtDQEhdOFtDQEBdKFtDSDNdKShbQ0gyXVtDSDJdNClDKFtDSDJdNSk9W0NIXVtDSDJdW0NAQF02OFtDSDNd

>  <s_epik_cmdline>  (287) 
J2VwaWtfcHl0aG9uJywgJy1waHQnLCAnMi4wJywgJy1waCcsICc3LjAnLCAnLXRuJywgJzgnLCAnLW1hJywgJzIwMCcsICctaW1hZScsICc8aW5maWxlLm1hZT4nLCAnLW9tYWUnLCAnPG91dGZpbGUubWFlPic=

>  <r_lp_tautomer_probability>  (287) 
1

>  <r_epik_Ionization_Penalty>  (287) 
8.69048e-07

>  <r_epik_Ionization_Penalty_Charging>  (287) 
0

>  <r_epik_Ionization_Penalty_Neutral>  (287) 
8.69048e-07

>  <r_epik_State_Penalty>  (287) 
-0

>  <r_epik_Charging_Adjusted_Penalty>  (287) 
0

>  <i_epik_Tot_Q>  (287) 
0

>  <i_epik_Tot_abs_Q>  (287) 
0

>  <s_lp_Force_Field>  (287) 
OPLS3e

>  <r_lp_Energy>  (287) 
372.305

>  <b_lp_Chiralities_Consistent>  (287) 
1

>  <s_lp_Variant>  (287) 
82:0-1

>  <s_i_glide_gridfile>  (287) 
pfpi4k_grid

>  <i_i_glide_lignum>  (287) 
28

>  <i_i_glide_rotatable_bonds>  (287) 
4

>  <r_i_docking_score>  (287) 
-2.5304

>  <r_i_glide_ligand_efficiency>  (287) 
-0.0588465

>  <r_i_glide_ligand_efficiency_sa>  (287) 
-0.206163

>  <r_i_glide_ligand_efficiency_ln>  (287) 
-0.531463

>  <r_i_glide_gscore>  (287) 
-2.5304

>  <r_i_glide_lipo>  (287) 
-0.133168

>  <r_i_glide_hbond>  (287) 
0

>  <r_i_glide_metal>  (287) 
-0

>  <r_i_glide_rewards>  (287) 
-0.5

>  <r_i_glide_evdw>  (287) 
-30.3112

>  <r_i_glide_ecoul>  (287) 
-2.49384

>  <r_i_glide_erotb>  (287) 
0

>  <r_i_glide_esite>  (287) 
-0.0075979

>  <r_i_glide_emodel>  (287) 
-43.2736

>  <r_i_glide_energy>  (287) 
-32.805

>  <r_i_glide_einternal>  (287) 
0.384891

>  <r_i_glide_intrahb_reward>  (287) 
-0.5

>  <i_i_glide_confnum>  (287) 
1

>  <i_i_glide_posenum>  (287) 
16

>  <r_i_glide_eff_state_penalty>  (287) 
0

>  <ligand_id>  (287) 
82

>  <original_smiles>  (287) 
CC1CCC2C(C)(C)C(O)C3(O)OC45C=CC6(O)CCC(C)(C)C6C6CCC7C(C)(CC4)C(=CCC7(C)C6(C)C23C1O)C5

>  <smiles>  (287) 
[H]OC1([H])C2(O[H])OC34C([H])=C([H])C5(O[H])C([H])([H])C([H])([H])C(C([H])([H])[H])(C([H])([H])[H])C5([H])C5([H])C([H])([H])C([H])([H])C6([H])C(C([H])([H])[H])(C(=C([H])C([H])([H])C6(C([H])([H])[H])C5(C([H])([H])[H])C25C([H])(O[H])C([H])(C([H])([H])[H])C([H])([H])C([H])([H])C5([H])C1(C([H])([H])[H])C([H])([H])[H])C3([H])[H])C([H])([H])C4([H])[H]

$$$$
82:0:2
     RDKit          3D

101108  0  0  1  0  0  0  0  0999 V2000
    4.0817  -11.3875    3.7174 C   0  0  0  0  0  0  0  0  0  0  0  0
    2.9956  -10.3367    3.3992 C   0  0  2  0  0  0  0  0  0  0  0  0
    3.4015   -9.5506    2.1622 C   0  0  0  0  0  0  0  0  0  0  0  0
    2.3837   -8.4789    1.8492 C   0  0  0  0  0  0  0  0  0  0  0  0
    1.6374   -7.8833    3.0678 C   0  0  1  0  0  0  0  0  0  0  0  0
    0.0952   -8.3718    3.3061 C   0  0  0  0  0  0  0  0  0  0  0  0
   -0.8239   -7.6020    2.3202 C   0  0  0  0  0  0  0  0  0  0  0  0
   -0.2516   -9.8495    2.9828 C   0  0  0  0  0  0  0  0  0  0  0  0
   -0.2855   -7.9980    4.8322 C   0  0  1  0  0  0  0  0  0  0  0  0
   -0.5873   -9.0528    5.7159 O   0  0  0  0  0  0  0  0  0  0  0  0
    0.9645   -7.1536    5.1676 C   0  0  1  0  0  0  0  0  0  0  0  0
    0.5420   -6.0621    4.4120 O   0  0  0  0  0  0  0  0  0  0  0  0
    1.3166   -6.5658    6.4232 O   0  0  0  0  0  0  0  0  0  0  0  0
    0.5725   -5.7857    7.3853 C   0  0  2  0  0  0  0  0  0  0  0  0
   -0.3702   -4.8342    6.6729 C   0  0  0  0  0  0  0  0  0  0  0  0
    0.0399   -3.8368    5.8248 C   0  0  0  0  0  0  0  0  0  0  0  0
    1.4197   -3.3866    5.1808 C   0  0  2  0  0  0  0  0  0  0  0  0
    1.9437   -2.3746    6.0115 O   0  0  0  0  0  0  0  0  0  0  0  0
    1.0146   -2.6020    3.9177 C   0  0  0  0  0  0  0  0  0  0  0  0
    2.2610   -2.3375    3.0721 C   0  0  0  0  0  0  0  0  0  0  0  0
    3.3640   -3.3151    3.5351 C   0  0  0  0  0  0  0  0  0  0  0  0
    3.9458   -4.0376    2.2916 C   0  0  0  0  0  0  0  0  0  0  0  0
    4.5207   -2.4873    4.1491 C   0  0  0  0  0  0  0  0  0  0  0  0
    2.6120   -4.3066    4.5174 C   0  0  1  0  0  0  0  0  0  0  0  0
    3.5569   -5.3395    5.3251 C   0  0  1  0  0  0  0  0  0  0  0  0
    4.0586   -4.6439    6.6133 C   0  0  0  0  0  0  0  0  0  0  0  0
    4.8043   -5.4537    7.6405 C   0  0  0  0  0  0  0  0  0  0  0  0
    4.0622   -6.7319    8.0082 C   0  0  1  0  0  0  0  0  0  0  0  0
    2.8153   -6.6883    9.0421 C   0  0  1  0  0  0  0  0  0  0  0  0
    3.2806   -7.2292   10.4230 C   0  0  0  0  0  0  0  0  0  0  0  0
    2.2905   -5.2753    9.3512 C   0  0  0  0  0  0  0  0  0  0  0  0
    1.2285   -4.7671    8.3805 C   0  0  0  0  0  0  0  0  0  0  0  0
    1.6356   -7.5954    8.6120 C   0  0  0  0  0  0  0  0  0  0  0  0
    1.9364   -8.7306    7.9746 C   0  0  0  0  0  0  0  0  0  0  0  0
    3.3501   -8.9625    7.4982 C   0  0  0  0  0  0  0  0  0  0  0  0
    4.0383   -7.7127    6.7681 C   0  0  2  0  0  0  0  0  0  0  0  0
    5.5045   -8.2792    6.6493 C   0  0  0  0  0  0  0  0  0  0  0  0
    3.5432   -7.0267    5.2555 C   0  0  2  0  0  0  0  0  0  0  0  0
    4.6825   -7.2793    4.2022 C   0  0  0  0  0  0  0  0  0  0  0  0
    2.2659   -7.8558    4.5385 C   0  0  2  0  0  0  0  0  0  0  0  0
    2.6118   -9.4508    4.6445 C   0  0  1  0  0  0  0  0  0  0  0  0
    1.7693  -10.2881    5.3901 O   0  0  0  0  0  0  0  0  0  0  0  0
    0.2428   -6.9425    8.3609 C   0  0  0  0  0  0  0  0  0  0  0  0
    5.0357  -10.9203    3.9641 H   0  0  0  0  0  0  0  0  0  0  0  0
    4.2540  -12.0385    2.8597 H   0  0  0  0  0  0  0  0  0  0  0  0
    3.7946  -12.0291    4.5509 H   0  0  0  0  0  0  0  0  0  0  0  0
    2.1338  -10.9236    3.0899 H   0  0  0  0  0  0  0  0  0  0  0  0
    4.3893   -9.1121    2.2660 H   0  0  0  0  0  0  0  0  0  0  0  0
    3.4801  -10.2224    1.3049 H   0  0  0  0  0  0  0  0  0  0  0  0
    2.8938   -7.6914    1.2863 H   0  0  0  0  0  0  0  0  0  0  0  0
    1.6580   -8.8795    1.1487 H   0  0  0  0  0  0  0  0  0  0  0  0
    1.6312   -6.8707    2.6668 H   0  0  0  0  0  0  0  0  0  0  0  0
   -1.8792   -7.7854    2.5280 H   0  0  0  0  0  0  0  0  0  0  0  0
   -0.6362   -7.8961    1.2865 H   0  0  0  0  0  0  0  0  0  0  0  0
   -0.6763   -6.5266    2.3554 H   0  0  0  0  0  0  0  0  0  0  0  0
   -1.3326   -9.9890    2.9603 H   0  0  0  0  0  0  0  0  0  0  0  0
    0.1025  -10.5693    3.7083 H   0  0  0  0  0  0  0  0  0  0  0  0
    0.1225  -10.1644    2.0125 H   0  0  0  0  0  0  0  0  0  0  0  0
   -1.1948   -7.3876    4.8778 H   0  0  0  0  0  0  0  0  0  0  0  0
   -1.1611   -9.6978    5.2942 H   0  0  0  0  0  0  0  0  0  0  0  0
    1.2593   -5.4493    4.4040 H   0  0  0  0  0  0  0  0  0  0  0  0
   -1.4127   -4.9062    6.9433 H   0  0  0  0  0  0  0  0  0  0  0  0
   -0.7756   -3.2133    5.4863 H   0  0  0  0  0  0  0  0  0  0  0  0
    2.5783   -1.8883    5.5072 H   0  0  0  0  0  0  0  0  0  0  0  0
    0.3360   -3.2159    3.3227 H   0  0  0  0  0  0  0  0  0  0  0  0
    0.4715   -1.6781    4.1343 H   0  0  0  0  0  0  0  0  0  0  0  0
    2.0168   -2.4619    2.0154 H   0  0  0  0  0  0  0  0  0  0  0  0
    2.5720   -1.2974    3.1799 H   0  0  0  0  0  0  0  0  0  0  0  0
    4.7654   -4.7033    2.5575 H   0  0  0  0  0  0  0  0  0  0  0  0
    4.3422   -3.3180    1.5748 H   0  0  0  0  0  0  0  0  0  0  0  0
    3.1983   -4.6299    1.7615 H   0  0  0  0  0  0  0  0  0  0  0  0
    5.3884   -3.1058    4.3738 H   0  0  0  0  0  0  0  0  0  0  0  0
    4.2401   -1.9582    5.0574 H   0  0  0  0  0  0  0  0  0  0  0  0
    4.8672   -1.7308    3.4433 H   0  0  0  0  0  0  0  0  0  0  0  0
    2.2289   -4.8895    3.6988 H   0  0  0  0  0  0  0  0  0  0  0  0
    4.4612   -5.1241    4.7718 H   0  0  0  0  0  0  0  0  0  0  0  0
    4.7139   -3.8143    6.3680 H   0  0  0  0  0  0  0  0  0  0  0  0
    3.2550   -4.1552    7.1065 H   0  0  0  0  0  0  0  0  0  0  0  0
    5.7904   -5.6799    7.2365 H   0  0  0  0  0  0  0  0  0  0  0  0
    5.0161   -4.8506    8.5231 H   0  0  0  0  0  0  0  0  0  0  0  0
    4.8233   -7.1567    8.6612 H   0  0  0  0  0  0  0  0  0  0  0  0
    4.0531   -6.5951   10.8607 H   0  0  0  0  0  0  0  0  0  0  0  0
    3.6801   -8.2406   10.3622 H   0  0  0  0  0  0  0  0  0  0  0  0
    2.4509   -7.2770   11.1315 H   0  0  0  0  0  0  0  0  0  0  0  0
    1.8084   -5.2916   10.3326 H   0  0  0  0  0  0  0  0  0  0  0  0
    3.0897   -4.5458    9.4788 H   0  0  0  0  0  0  0  0  0  0  0  0
    1.5255   -3.8178    7.9598 H   0  0  0  0  0  0  0  0  0  0  0  0
    0.4218   -4.4077    9.0245 H   0  0  0  0  0  0  0  0  0  0  0  0
    1.1579   -9.3208    7.5218 H   0  0  0  0  0  0  0  0  0  0  0  0
    3.8935   -9.1647    8.4181 H   0  0  0  0  0  0  0  0  0  0  0  0
    3.4627   -9.9424    7.0533 H   0  0  0  0  0  0  0  0  0  0  0  0
    5.5678   -9.1504    5.9990 H   0  0  0  0  0  0  0  0  0  0  0  0
    5.8965   -8.6409    7.6006 H   0  0  0  0  0  0  0  0  0  0  0  0
    6.2428   -7.5602    6.3027 H   0  0  0  0  0  0  0  0  0  0  0  0
    4.9798   -8.3171    4.1028 H   0  0  0  0  0  0  0  0  0  0  0  0
    5.6189   -6.7622    4.4211 H   0  0  0  0  0  0  0  0  0  0  0  0
    4.3756   -6.9396    3.2132 H   0  0  0  0  0  0  0  0  0  0  0  0
    3.5701   -9.4962    5.1203 H   0  0  0  0  0  0  0  0  0  0  0  0
    2.2065  -11.1026    5.5966 H   0  0  0  0  0  0  0  0  0  0  0  0
   -0.1974   -6.5945    9.2936 H   0  0  0  0  0  0  0  0  0  0  0  0
   -0.4378   -7.6622    7.9152 H   0  0  0  0  0  0  0  0  0  0  0  0
  1  2  1  0
  1 44  1  0
  1 45  1  0
  1 46  1  0
  2 41  1  0
  2  3  1  0
  2 47  1  6
  3  4  1  0
  3 48  1  0
  3 49  1  0
  4  5  1  0
  4 50  1  0
  4 51  1  0
  5 40  1  0
  5  6  1  0
  5 52  1  6
  6  7  1  0
  6  8  1  0
  6  9  1  0
  7 53  1  0
  7 54  1  0
  7 55  1  0
  8 56  1  0
  8 57  1  0
  8 58  1  0
  9 10  1  0
  9 11  1  0
  9 59  1  6
 10 60  1  0
 40 11  1  1
 11 12  1  6
 11 13  1  0
 12 61  1  0
 13 14  1  0
 14 32  1  1
 14 43  1  0
 14 15  1  0
 15 16  2  3
 15 62  1  0
 16 17  1  0
 16 63  1  0
 17 24  1  0
 17 18  1  1
 17 19  1  0
 18 64  1  0
 19 20  1  0
 19 65  1  0
 19 66  1  0
 20 21  1  0
 20 67  1  0
 20 68  1  0
 21 22  1  0
 21 23  1  0
 21 24  1  0
 22 69  1  0
 22 70  1  0
 22 71  1  0
 23 72  1  0
 23 73  1  0
 23 74  1  0
 24 25  1  0
 24 75  1  6
 25 38  1  0
 25 26  1  0
 25 76  1  6
 26 27  1  0
 26 77  1  0
 26 78  1  0
 27 28  1  0
 27 79  1  0
 27 80  1  0
 28 36  1  0
 28 29  1  0
 28 81  1  1
 29 30  1  1
 29 31  1  0
 29 33  1  0
 30 82  1  0
 30 83  1  0
 30 84  1  0
 31 32  1  0
 31 85  1  0
 31 86  1  0
 32 87  1  0
 32 88  1  0
 33 34  2  0
 33 43  1  0
 34 35  1  0
 34 89  1  0
 35 36  1  0
 35 90  1  0
 35 91  1  0
 36 37  1  6
 36 38  1  0
 37 92  1  0
 37 93  1  0
 37 94  1  0
 38 39  1  6
 38 40  1  0
 39 95  1  0
 39 96  1  0
 39 97  1  0
 40 41  1  0
 41 42  1  0
 41 98  1  1
 42 99  1  0
 43100  1  0
 43101  1  0
M  END
>  <i_m_ct_stereo_status>  (288) 
1

>  <s_m_source_file>  (288) 
/var/tmp/pbs.5076255.sched01/tmprva83imr/861x3d95ot.sdf

>  <i_m_source_file_index>  (288) 
28

>  <i_lp_mmshare_version>  (288) 
48012

>  <i_f3d_flags>  (288) 
0

>  <s_epik_input>  (288) 
W09IXVtDQEhdMVtDQEhdKFtDSDNdKVtDSDJdW0NIMl1bQ0hdKEMoW0NIM10pKFtDSDNdKVtDQEhdMltPSF0pW0NAXTEoW0NAXTIoW09IXSlPW0NAXTM0NSlbQ0BAXTYoW0NIM10pW0NIXShbQ0BIXTdbQ0BdKFtPSF0pKC9bQ0hdPVtDSF1cMylbQ0gyXVtDSDJdQzcoW0NIM10pW0NIM10pW0NIMl1bQ0gyXVtDQEhdOFtDQEBdKFtDSDNdKShbQ0gyXVtDSDJdNClDKFtDSDJdNSk9W0NIXVtDSDJdW0NAQF02OFtDSDNd

>  <s_epik_cmdline>  (288) 
J2VwaWtfcHl0aG9uJywgJy1waHQnLCAnMi4wJywgJy1waCcsICc3LjAnLCAnLXRuJywgJzgnLCAnLW1hJywgJzIwMCcsICctaW1hZScsICc8aW5maWxlLm1hZT4nLCAnLW9tYWUnLCAnPG91dGZpbGUubWFlPic=

>  <r_lp_tautomer_probability>  (288) 
1

>  <r_epik_Ionization_Penalty>  (288) 
8.69048e-07

>  <r_epik_Ionization_Penalty_Charging>  (288) 
0

>  <r_epik_Ionization_Penalty_Neutral>  (288) 
8.69048e-07

>  <r_epik_State_Penalty>  (288) 
-0

>  <r_epik_Charging_Adjusted_Penalty>  (288) 
0

>  <i_epik_Tot_Q>  (288) 
0

>  <i_epik_Tot_abs_Q>  (288) 
0

>  <s_lp_Force_Field>  (288) 
OPLS3e

>  <r_lp_Energy>  (288) 
372.305

>  <b_lp_Chiralities_Consistent>  (288) 
1

>  <s_lp_Variant>  (288) 
82:0-1

>  <s_i_glide_gridfile>  (288) 
pfpi4k_grid

>  <i_i_glide_lignum>  (288) 
28

>  <i_i_glide_rotatable_bonds>  (288) 
4

>  <r_i_docking_score>  (288) 
-2.34354

>  <r_i_glide_ligand_efficiency>  (288) 
-0.0545008

>  <r_i_glide_ligand_efficiency_sa>  (288) 
-0.190938

>  <r_i_glide_ligand_efficiency_ln>  (288) 
-0.492215

>  <r_i_glide_gscore>  (288) 
-2.34354

>  <r_i_glide_lipo>  (288) 
-0.067798

>  <r_i_glide_hbond>  (288) 
0

>  <r_i_glide_metal>  (288) 
-0

>  <r_i_glide_rewards>  (288) 
0

>  <r_i_glide_evdw>  (288) 
-30.1415

>  <r_i_glide_ecoul>  (288) 
-5.06925

>  <r_i_glide_erotb>  (288) 
0

>  <r_i_glide_esite>  (288) 
-0.0082749

>  <r_i_glide_emodel>  (288) 
-39.8051

>  <r_i_glide_energy>  (288) 
-35.2108

>  <r_i_glide_einternal>  (288) 
1.16446

>  <r_i_glide_intrahb_reward>  (288) 
-0

>  <i_i_glide_confnum>  (288) 
1

>  <i_i_glide_posenum>  (288) 
27

>  <r_i_glide_eff_state_penalty>  (288) 
0

>  <ligand_id>  (288) 
82

>  <original_smiles>  (288) 
CC1CCC2C(C)(C)C(O)C3(O)OC45C=CC6(O)CCC(C)(C)C6C6CCC7C(C)(CC4)C(=CCC7(C)C6(C)C23C1O)C5

>  <smiles>  (288) 
[H]OC1([H])C2(O[H])OC34C([H])=C([H])C5(O[H])C([H])([H])C([H])([H])C(C([H])([H])[H])(C([H])([H])[H])C5([H])C5([H])C([H])([H])C([H])([H])C6([H])C(C([H])([H])[H])(C(=C([H])C([H])([H])C6(C([H])([H])[H])C5(C([H])([H])[H])C25C([H])(O[H])C([H])(C([H])([H])[H])C([H])([H])C([H])([H])C5([H])C1(C([H])([H])[H])C([H])([H])[H])C3([H])[H])C([H])([H])C4([H])[H]

$$$$
82:1:0
     RDKit          3D

101108  0  0  1  0  0  0  0  0999 V2000
   -0.4130   -7.5043    2.4376 C   0  0  0  0  0  0  0  0  0  0  0  0
    1.0785   -7.7787    2.1360 C   0  0  2  0  0  0  0  0  0  0  0  0
    1.3634   -9.3135    2.2087 C   0  0  0  0  0  0  0  0  0  0  0  0
    2.1059   -9.8375    3.4471 C   0  0  0  0  0  0  0  0  0  0  0  0
    2.5109   -8.6919    4.3739 C   0  0  1  0  0  0  0  0  0  0  0  0
    2.4122   -8.8821    5.9028 C   0  0  0  0  0  0  0  0  0  0  0  0
    0.9604   -9.2067    6.4378 C   0  0  0  0  0  0  0  0  0  0  0  0
    3.2273  -10.0650    6.4875 C   0  0  0  0  0  0  0  0  0  0  0  0
    2.7414   -7.4485    6.3843 C   0  0  1  0  0  0  0  0  0  0  0  0
    3.2390   -7.3572    7.6891 O   0  0  0  0  0  0  0  0  0  0  0  0
    3.4718   -6.6254    5.2507 C   0  0  1  0  0  0  0  0  0  0  0  0
    2.7925   -5.3720    5.2836 O   0  0  0  0  0  0  0  0  0  0  0  0
    4.8565   -6.5852    5.6256 O   0  0  0  0  0  0  0  0  0  0  0  0
    5.6563   -5.5170    6.2688 C   0  0  1  0  0  0  0  0  0  0  0  0
    5.6106   -4.8893    4.9069 C   0  0  0  0  0  0  0  0  0  0  0  0
    4.9218   -3.7862    4.6015 C   0  0  0  0  0  0  0  0  0  0  0  0
    4.4596   -3.4969    3.2124 C   0  0  1  0  0  0  0  0  0  0  0  0
    3.0571   -3.3923    3.2500 O   0  0  0  0  0  0  0  0  0  0  0  0
    4.9108   -2.0895    2.8018 C   0  0  0  0  0  0  0  0  0  0  0  0
    4.7653   -2.0481    1.2822 C   0  0  0  0  0  0  0  0  0  0  0  0
    4.7481   -3.5056    0.7606 C   0  0  0  0  0  0  0  0  0  0  0  0
    3.3882   -3.7729    0.0837 C   0  0  0  0  0  0  0  0  0  0  0  0
    5.8067   -3.5960   -0.3642 C   0  0  0  0  0  0  0  0  0  0  0  0
    5.0394   -4.3951    2.0559 C   0  0  2  0  0  0  0  0  0  0  0  0
    5.1555   -6.0304    1.8857 C   0  0  1  0  0  0  0  0  0  0  0  0
    6.6057   -6.2519    1.3664 C   0  0  0  0  0  0  0  0  0  0  0  0
    7.6539   -6.3255    2.4671 C   0  0  0  0  0  0  0  0  0  0  0  0
    7.4041   -7.4633    3.4778 C   0  0  1  0  0  0  0  0  0  0  0  0
    7.8987   -7.2281    4.9788 C   0  0  1  0  0  0  0  0  0  0  0  0
    9.1954   -8.0514    5.1976 C   0  0  0  0  0  0  0  0  0  0  0  0
    8.2491   -5.7685    5.4516 C   0  0  0  0  0  0  0  0  0  0  0  0
    7.1668   -4.9682    6.2569 C   0  0  0  0  0  0  0  0  0  0  0  0
    6.8983   -7.7948    5.9606 C   0  0  0  0  0  0  0  0  0  0  0  0
    6.1488   -8.8644    5.6955 C   0  0  0  0  0  0  0  0  0  0  0  0
    5.9295   -9.3767    4.3223 C   0  0  0  0  0  0  0  0  0  0  0  0
    6.0862   -8.3178    3.1976 C   0  0  2  0  0  0  0  0  0  0  0  0
    6.5267   -9.3873    2.1023 C   0  0  0  0  0  0  0  0  0  0  0  0
    4.6919   -7.4086    2.7783 C   0  0  2  0  0  0  0  0  0  0  0  0
    4.1791   -8.2243    1.5372 C   0  0  0  0  0  0  0  0  0  0  0  0
    3.2990   -7.3790    3.8035 C   0  0  1  0  0  0  0  0  0  0  0  0
    2.0148   -6.8005    2.9764 C   0  0  1  0  0  0  0  0  0  0  0  0
    2.2762   -5.7231    2.1301 O   0  0  0  0  0  0  0  0  0  0  0  0
    6.3133   -6.8254    6.9502 C   0  0  0  0  0  0  0  0  0  0  0  0
   -0.6657   -7.7382    3.4673 H   0  0  0  0  0  0  0  0  0  0  0  0
   -1.0721   -8.0890    1.7908 H   0  0  0  0  0  0  0  0  0  0  0  0
   -0.6375   -6.4567    2.2593 H   0  0  0  0  0  0  0  0  0  0  0  0
    1.1592   -7.5452    1.0769 H   0  0  0  0  0  0  0  0  0  0  0  0
    0.4193   -9.8500    2.1563 H   0  0  0  0  0  0  0  0  0  0  0  0
    1.8782   -9.6458    1.3039 H   0  0  0  0  0  0  0  0  0  0  0  0
    1.4532  -10.5353    3.9946 H   0  0  0  0  0  0  0  0  0  0  0  0
    2.9645  -10.4311    3.1767 H   0  0  0  0  0  0  0  0  0  0  0  0
    1.5086   -8.3036    4.4467 H   0  0  0  0  0  0  0  0  0  0  0  0
    0.9636   -9.2895    7.5253 H   0  0  0  0  0  0  0  0  0  0  0  0
    0.5844  -10.1582    6.0601 H   0  0  0  0  0  0  0  0  0  0  0  0
    0.2140   -8.4524    6.1834 H   0  0  0  0  0  0  0  0  0  0  0  0
    3.6864   -9.8431    7.4506 H   0  0  0  0  0  0  0  0  0  0  0  0
    3.9562  -10.4760    5.8041 H   0  0  0  0  0  0  0  0  0  0  0  0
    2.6178  -10.9387    6.6685 H   0  0  0  0  0  0  0  0  0  0  0  0
    1.7781   -6.9603    6.5032 H   0  0  0  0  0  0  0  0  0  0  0  0
    4.0824   -7.8037    7.7087 H   0  0  0  0  0  0  0  0  0  0  0  0
    3.1649   -4.8575    4.5498 H   0  0  0  0  0  0  0  0  0  0  0  0
    5.9811   -5.4933    4.1274 H   0  0  0  0  0  0  0  0  0  0  0  0
    4.4710   -3.2098    5.3960 H   0  0  0  0  0  0  0  0  0  0  0  0
    2.6512   -4.2220    2.9769 H   0  0  0  0  0  0  0  0  0  0  0  0
    4.3559   -1.2944    3.2990 H   0  0  0  0  0  0  0  0  0  0  0  0
    5.9599   -1.9409    3.0508 H   0  0  0  0  0  0  0  0  0  0  0  0
    3.8424   -1.5254    1.0118 H   0  0  0  0  0  0  0  0  0  0  0  0
    5.5661   -1.4478    0.8490 H   0  0  0  0  0  0  0  0  0  0  0  0
    3.2920   -4.7942   -0.2794 H   0  0  0  0  0  0  0  0  0  0  0  0
    3.2534   -3.1277   -0.7866 H   0  0  0  0  0  0  0  0  0  0  0  0
    2.5493   -3.5582    0.7441 H   0  0  0  0  0  0  0  0  0  0  0  0
    5.7665   -4.5591   -0.8705 H   0  0  0  0  0  0  0  0  0  0  0  0
    6.8144   -3.4245    0.0086 H   0  0  0  0  0  0  0  0  0  0  0  0
    5.6224   -2.8388   -1.1325 H   0  0  0  0  0  0  0  0  0  0  0  0
    6.0844   -4.1447    2.2185 H   0  0  0  0  0  0  0  0  0  0  0  0
    4.5854   -6.0881    0.9600 H   0  0  0  0  0  0  0  0  0  0  0  0
    6.6779   -7.1008    0.7087 H   0  0  0  0  0  0  0  0  0  0  0  0
    6.9533   -5.4753    0.7085 H   0  0  0  0  0  0  0  0  0  0  0  0
    8.6336   -6.4609    2.0111 H   0  0  0  0  0  0  0  0  0  0  0  0
    7.7109   -5.3449    2.9156 H   0  0  0  0  0  0  0  0  0  0  0  0
    8.1921   -8.1341    3.1219 H   0  0  0  0  0  0  0  0  0  0  0  0
   10.0169   -7.6823    4.5754 H   0  0  0  0  0  0  0  0  0  0  0  0
    9.0449   -9.1107    4.9601 H   0  0  0  0  0  0  0  0  0  0  0  0
    9.5292   -8.0180    6.2367 H   0  0  0  0  0  0  0  0  0  0  0  0
    9.0937   -5.8263    6.1355 H   0  0  0  0  0  0  0  0  0  0  0  0
    8.6777   -5.1658    4.6652 H   0  0  0  0  0  0  0  0  0  0  0  0
    7.2679   -3.9135    5.9789 H   0  0  0  0  0  0  0  0  0  0  0  0
    7.5259   -4.7953    7.2788 H   0  0  0  0  0  0  0  0  0  0  0  0
    5.4143   -9.1221    6.4203 H   0  0  0  0  0  0  0  0  0  0  0  0
    6.6516  -10.2009    4.2789 H   0  0  0  0  0  0  0  0  0  0  0  0
    4.9688   -9.8462    4.2026 H   0  0  0  0  0  0  0  0  0  0  0  0
    5.8019  -10.1868    1.9582 H   0  0  0  0  0  0  0  0  0  0  0  0
    7.4138   -9.9342    2.4048 H   0  0  0  0  0  0  0  0  0  0  0  0
    6.8018   -9.0329    1.1209 H   0  0  0  0  0  0  0  0  0  0  0  0
    3.9542   -9.2592    1.7559 H   0  0  0  0  0  0  0  0  0  0  0  0
    4.8590   -8.2638    0.6899 H   0  0  0  0  0  0  0  0  0  0  0  0
    3.3123   -7.8065    1.0353 H   0  0  0  0  0  0  0  0  0  0  0  0
    1.3291   -6.3490    3.6867 H   0  0  0  0  0  0  0  0  0  0  0  0
    2.8709   -6.0332    1.4507 H   0  0  0  0  0  0  0  0  0  0  0  0
    7.0746   -6.6743    7.7231 H   0  0  0  0  0  0  0  0  0  0  0  0
    5.6024   -7.3324    7.5925 H   0  0  0  0  0  0  0  0  0  0  0  0
  1  2  1  0
  1 44  1  0
  1 45  1  0
  1 46  1  0
  2 41  1  0
  2  3  1  0
  2 47  1  6
  3  4  1  0
  3 48  1  0
  3 49  1  0
  4  5  1  0
  4 50  1  0
  4 51  1  0
  5 40  1  0
  5  6  1  0
  5 52  1  6
  6  7  1  0
  6  8  1  0
  6  9  1  0
  7 53  1  0
  7 54  1  0
  7 55  1  0
  8 56  1  0
  8 57  1  0
  8 58  1  0
  9 10  1  0
  9 11  1  0
  9 59  1  1
 10 60  1  0
 40 11  1  1
 11 12  1  6
 11 13  1  0
 12 61  1  0
 13 14  1  0
 14 32  1  6
 14 43  1  0
 14 15  1  0
 15 16  2  3
 15 62  1  0
 16 17  1  0
 16 63  1  0
 17 24  1  0
 17 18  1  1
 17 19  1  0
 18 64  1  0
 19 20  1  0
 19 65  1  0
 19 66  1  0
 20 21  1  0
 20 67  1  0
 20 68  1  0
 21 22  1  0
 21 23  1  0
 21 24  1  0
 22 69  1  0
 22 70  1  0
 22 71  1  0
 23 72  1  0
 23 73  1  0
 23 74  1  0
 24 25  1  0
 24 75  1  1
 25 38  1  0
 25 26  1  0
 25 76  1  6
 26 27  1  0
 26 77  1  0
 26 78  1  0
 27 28  1  0
 27 79  1  0
 27 80  1  0
 28 36  1  0
 28 29  1  0
 28 81  1  6
 29 30  1  6
 29 31  1  0
 29 33  1  0
 30 82  1  0
 30 83  1  0
 30 84  1  0
 31 32  1  0
 31 85  1  0
 31 86  1  0
 32 87  1  0
 32 88  1  0
 33 34  2  0
 33 43  1  0
 34 35  1  0
 34 89  1  0
 35 36  1  0
 35 90  1  0
 35 91  1  0
 36 37  1  6
 36 38  1  0
 37 92  1  0
 37 93  1  0
 37 94  1  0
 38 39  1  6
 38 40  1  0
 39 95  1  0
 39 96  1  0
 39 97  1  0
 40 41  1  0
 41 42  1  0
 41 98  1  1
 42 99  1  0
 43100  1  0
 43101  1  0
M  END
>  <i_m_ct_stereo_status>  (289) 
1

>  <s_m_source_file>  (289) 
/var/tmp/pbs.5076255.sched01/tmprva83imr/861x3d95ot.sdf

>  <i_m_source_file_index>  (289) 
29

>  <i_lp_mmshare_version>  (289) 
48012

>  <i_f3d_flags>  (289) 
2

>  <s_epik_input>  (289) 
W09IXVtDQEhdMVtDQEhdKFtDSDNdKVtDSDJdW0NIMl1bQ0hdKEMoW0NIM10pKFtDSDNdKVtDQEhdMltPSF0pW0NAXTEoW0NAXTIoW09IXSlPW0NAXTM0NSlbQ0BAXTYoW0NIM10pW0NIXShbQ0BIXTdbQ0BdKFtPSF0pKC9bQ0hdPVtDSF1cMylbQ0gyXVtDSDJdQzcoW0NIM10pW0NIM10pW0NIMl1bQ0gyXVtDQEhdOFtDQEBdKFtDSDNdKShbQ0gyXVtDSDJdNClDKFtDSDJdNSk9W0NIXVtDSDJdW0NAQF02OFtDSDNd

>  <s_epik_cmdline>  (289) 
J2VwaWtfcHl0aG9uJywgJy1waHQnLCAnMi4wJywgJy1waCcsICc3LjAnLCAnLXRuJywgJzgnLCAnLW1hJywgJzIwMCcsICctaW1hZScsICc8aW5maWxlLm1hZT4nLCAnLW9tYWUnLCAnPG91dGZpbGUubWFlPic=

>  <r_lp_tautomer_probability>  (289) 
1

>  <r_epik_Ionization_Penalty>  (289) 
8.69048e-07

>  <r_epik_Ionization_Penalty_Charging>  (289) 
0

>  <r_epik_Ionization_Penalty_Neutral>  (289) 
8.69048e-07

>  <r_epik_State_Penalty>  (289) 
-0

>  <r_epik_Charging_Adjusted_Penalty>  (289) 
0

>  <i_epik_Tot_Q>  (289) 
0

>  <i_epik_Tot_abs_Q>  (289) 
0

>  <s_lp_Force_Field>  (289) 
OPLS3e

>  <r_lp_Energy>  (289) 
471.472

>  <b_lp_Chiralities_Consistent>  (289) 
0

>  <s_lp_Variant>  (289) 
82:0-2

>  <s_i_glide_gridfile>  (289) 
pfpi4k_grid

>  <i_i_glide_lignum>  (289) 
29

>  <i_i_glide_rotatable_bonds>  (289) 
4

>  <r_i_docking_score>  (289) 
-2.6516

>  <r_i_glide_ligand_efficiency>  (289) 
-0.0616651

>  <r_i_glide_ligand_efficiency_sa>  (289) 
-0.216037

>  <r_i_glide_ligand_efficiency_ln>  (289) 
-0.556918

>  <r_i_glide_gscore>  (289) 
-2.6516

>  <r_i_glide_lipo>  (289) 
-0.522829

>  <r_i_glide_hbond>  (289) 
0

>  <r_i_glide_metal>  (289) 
-0

>  <r_i_glide_rewards>  (289) 
-0.5

>  <r_i_glide_evdw>  (289) 
-32.0525

>  <r_i_glide_ecoul>  (289) 
-0.17429

>  <r_i_glide_erotb>  (289) 
0

>  <r_i_glide_esite>  (289) 
0

>  <r_i_glide_emodel>  (289) 
-42.5533

>  <r_i_glide_energy>  (289) 
-32.2268

>  <r_i_glide_einternal>  (289) 
0.132459

>  <r_i_glide_intrahb_reward>  (289) 
-0.5

>  <i_i_glide_confnum>  (289) 
2

>  <i_i_glide_posenum>  (289) 
5

>  <r_i_glide_eff_state_penalty>  (289) 
0

>  <ligand_id>  (289) 
82

>  <original_smiles>  (289) 
CC1CCC2C(C)(C)C(O)C3(O)OC45C=CC6(O)CCC(C)(C)C6C6CCC7C(C)(CC4)C(=CCC7(C)C6(C)C23C1O)C5

>  <smiles>  (289) 
[H]OC1([H])C2(O[H])OC34C([H])=C([H])C5(O[H])C([H])([H])C([H])([H])C(C([H])([H])[H])(C([H])([H])[H])C5([H])C5([H])C([H])([H])C([H])([H])C6([H])C(C([H])([H])[H])(C(=C([H])C([H])([H])C6(C([H])([H])[H])C5(C([H])([H])[H])C25C([H])(O[H])C([H])(C([H])([H])[H])C([H])([H])C([H])([H])C5([H])C1(C([H])([H])[H])C([H])([H])[H])C3([H])[H])C([H])([H])C4([H])[H]

$$$$
82:1:1
     RDKit          3D

101108  0  0  1  0  0  0  0  0999 V2000
   -1.0817   -7.3056    3.9244 C   0  0  0  0  0  0  0  0  0  0  0  0
    0.3092   -7.2058    4.5740 C   0  0  2  0  0  0  0  0  0  0  0  0
    0.3127   -7.8600    5.9903 C   0  0  0  0  0  0  0  0  0  0  0  0
    0.3421   -6.8873    7.1932 C   0  0  0  0  0  0  0  0  0  0  0  0
    0.4692   -5.4331    6.7413 C   0  0  1  0  0  0  0  0  0  0  0  0
   -0.3586   -4.3357    7.4854 C   0  0  0  0  0  0  0  0  0  0  0  0
   -1.9079   -4.5414    7.4657 C   0  0  0  0  0  0  0  0  0  0  0  0
   -0.1146   -4.2290    9.0147 C   0  0  0  0  0  0  0  0  0  0  0  0
   -0.0508   -3.1348    6.5722 C   0  0  1  0  0  0  0  0  0  0  0  0
   -0.1839   -1.8727    7.1908 O   0  0  0  0  0  0  0  0  0  0  0  0
    1.2224   -3.3503    5.6607 C   0  0  1  0  0  0  0  0  0  0  0  0
    0.8180   -2.9158    4.3767 O   0  0  0  0  0  0  0  0  0  0  0  0
    2.2666   -2.6058    6.2869 O   0  0  0  0  0  0  0  0  0  0  0  0
    2.8545   -1.2900    5.9326 C   0  0  1  0  0  0  0  0  0  0  0  0
    3.5251   -2.0621    4.8424 C   0  0  0  0  0  0  0  0  0  0  0  0
    3.2390   -1.9504    3.5530 C   0  0  0  0  0  0  0  0  0  0  0  0
    3.5075   -3.0548    2.5914 C   0  0  1  0  0  0  0  0  0  0  0  0
    2.2488   -3.4130    2.0816 O   0  0  0  0  0  0  0  0  0  0  0  0
    4.2814   -2.5301    1.3834 C   0  0  0  0  0  0  0  0  0  0  0  0
    4.8365   -3.7691    0.6862 C   0  0  0  0  0  0  0  0  0  0  0  0
    4.8353   -4.9373    1.7088 C   0  0  0  0  0  0  0  0  0  0  0  0
    3.9009   -6.0466    1.1713 C   0  0  0  0  0  0  0  0  0  0  0  0
    6.2549   -5.5454    1.6972 C   0  0  0  0  0  0  0  0  0  0  0  0
    4.3757   -4.2676    3.0815 C   0  0  2  0  0  0  0  0  0  0  0  0
    4.2903   -5.2160    4.4300 C   0  0  1  0  0  0  0  0  0  0  0  0
    5.7668   -5.2969    4.9285 C   0  0  0  0  0  0  0  0  0  0  0  0
    6.1682   -4.1159    5.8002 C   0  0  0  0  0  0  0  0  0  0  0  0
    5.3430   -3.9635    7.0838 C   0  0  1  0  0  0  0  0  0  0  0  0
    5.1321   -2.4845    7.6557 C   0  0  1  0  0  0  0  0  0  0  0  0
    6.0537   -2.3245    8.8966 C   0  0  0  0  0  0  0  0  0  0  0  0
    5.4631   -1.2549    6.7329 C   0  0  0  0  0  0  0  0  0  0  0  0
    4.2732   -0.5411    6.0032 C   0  0  0  0  0  0  0  0  0  0  0  0
    3.7263   -2.3227    8.1778 C   0  0  0  0  0  0  0  0  0  0  0  0
    3.0224   -3.3057    8.7092 C   0  0  0  0  0  0  0  0  0  0  0  0
    3.3761   -4.7419    8.5199 C   0  0  0  0  0  0  0  0  0  0  0  0
    4.1720   -5.0443    7.2197 C   0  0  2  0  0  0  0  0  0  0  0  0
    4.9030   -6.3170    7.8401 C   0  0  0  0  0  0  0  0  0  0  0  0
    3.2909   -5.3438    5.7914 C   0  0  2  0  0  0  0  0  0  0  0  0
    3.2563   -6.9228    5.8001 C   0  0  0  0  0  0  0  0  0  0  0  0
    1.5982   -4.9758    5.6761 C   0  0  1  0  0  0  0  0  0  0  0  0
    0.9228   -5.7453    4.4093 C   0  0  1  0  0  0  0  0  0  0  0  0
    1.6823   -5.8701    3.2422 O   0  0  0  0  0  0  0  0  0  0  0  0
    2.9134   -1.2125    7.5419 C   0  0  0  0  0  0  0  0  0  0  0  0
   -1.8078   -6.6801    4.4475 H   0  0  0  0  0  0  0  0  0  0  0  0
   -1.4595   -8.3291    3.9299 H   0  0  0  0  0  0  0  0  0  0  0  0
   -1.0476   -6.9913    2.8828 H   0  0  0  0  0  0  0  0  0  0  0  0
    0.8999   -7.9110    3.9757 H   0  0  0  0  0  0  0  0  0  0  0  0
   -0.5834   -8.4803    6.0803 H   0  0  0  0  0  0  0  0  0  0  0  0
    1.1176   -8.5840    6.0747 H   0  0  0  0  0  0  0  0  0  0  0  0
   -0.5262   -7.0074    7.8214 H   0  0  0  0  0  0  0  0  0  0  0  0
    1.1515   -7.1397    7.8765 H   0  0  0  0  0  0  0  0  0  0  0  0
   -0.4027   -5.4945    6.0972 H   0  0  0  0  0  0  0  0  0  0  0  0
   -2.4244   -3.7323    7.9748 H   0  0  0  0  0  0  0  0  0  0  0  0
   -2.2023   -5.4376    8.0000 H   0  0  0  0  0  0  0  0  0  0  0  0
   -2.3596   -4.6085    6.4822 H   0  0  0  0  0  0  0  0  0  0  0  0
   -0.0879   -3.1994    9.3668 H   0  0  0  0  0  0  0  0  0  0  0  0
    0.7718   -4.7527    9.3477 H   0  0  0  0  0  0  0  0  0  0  0  0
   -0.9003   -4.7115    9.5989 H   0  0  0  0  0  0  0  0  0  0  0  0
   -0.8713   -3.0938    5.8564 H   0  0  0  0  0  0  0  0  0  0  0  0
    0.2232   -1.2568    6.6140 H   0  0  0  0  0  0  0  0  0  0  0  0
    1.4799   -3.1842    3.7436 H   0  0  0  0  0  0  0  0  0  0  0  0
    4.1001   -2.8892    5.1713 H   0  0  0  0  0  0  0  0  0  0  0  0
    2.5653   -1.1665    3.2295 H   0  0  0  0  0  0  0  0  0  0  0  0
    1.9290   -2.7155    1.5485 H   0  0  0  0  0  0  0  0  0  0  0  0
    3.6910   -1.8993    0.7135 H   0  0  0  0  0  0  0  0  0  0  0  0
    5.1189   -1.9168    1.7312 H   0  0  0  0  0  0  0  0  0  0  0  0
    4.2282   -4.0154   -0.1876 H   0  0  0  0  0  0  0  0  0  0  0  0
    5.8324   -3.5630    0.2878 H   0  0  0  0  0  0  0  0  0  0  0  0
    3.8213   -6.8893    1.8562 H   0  0  0  0  0  0  0  0  0  0  0  0
    4.2730   -6.4491    0.2285 H   0  0  0  0  0  0  0  0  0  0  0  0
    2.8972   -5.6753    0.9674 H   0  0  0  0  0  0  0  0  0  0  0  0
    6.3060   -6.4566    2.2941 H   0  0  0  0  0  0  0  0  0  0  0  0
    7.0034   -4.8390    2.0581 H   0  0  0  0  0  0  0  0  0  0  0  0
    6.5534   -5.8245    0.6866 H   0  0  0  0  0  0  0  0  0  0  0  0
    5.2658   -3.6874    3.3077 H   0  0  0  0  0  0  0  0  0  0  0  0
    4.1893   -6.1595    3.9022 H   0  0  0  0  0  0  0  0  0  0  0  0
    6.0057   -6.2471    5.3760 H   0  0  0  0  0  0  0  0  0  0  0  0
    6.4849   -5.2857    4.1259 H   0  0  0  0  0  0  0  0  0  0  0  0
    7.2178   -4.2409    6.0780 H   0  0  0  0  0  0  0  0  0  0  0  0
    6.1797   -3.2291    5.1860 H   0  0  0  0  0  0  0  0  0  0  0  0
    6.0853   -4.3337    7.7829 H   0  0  0  0  0  0  0  0  0  0  0  0
    7.1080   -2.3706    8.6240 H   0  0  0  0  0  0  0  0  0  0  0  0
    5.8611   -3.1027    9.6399 H   0  0  0  0  0  0  0  0  0  0  0  0
    5.8802   -1.3711    9.4031 H   0  0  0  0  0  0  0  0  0  0  0  0
    5.8812   -0.4706    7.3620 H   0  0  0  0  0  0  0  0  0  0  0  0
    6.2925   -1.4269    6.0629 H   0  0  0  0  0  0  0  0  0  0  0  0
    4.6547   -0.1941    5.0328 H   0  0  0  0  0  0  0  0  0  0  0  0
    4.1512    0.4712    6.3960 H   0  0  0  0  0  0  0  0  0  0  0  0
    2.0037   -3.1042    8.9496 H   0  0  0  0  0  0  0  0  0  0  0  0
    3.9019   -4.9783    9.4429 H   0  0  0  0  0  0  0  0  0  0  0  0
    2.5013   -5.3756    8.5193 H   0  0  0  0  0  0  0  0  0  0  0  0
    4.2065   -7.0665    8.2132 H   0  0  0  0  0  0  0  0  0  0  0  0
    5.4955   -6.0801    8.7254 H   0  0  0  0  0  0  0  0  0  0  0  0
    5.6269   -6.8418    7.2306 H   0  0  0  0  0  0  0  0  0  0  0  0
    2.8074   -7.3435    6.6839 H   0  0  0  0  0  0  0  0  0  0  0  0
    4.2312   -7.3962    5.7340 H   0  0  0  0  0  0  0  0  0  0  0  0
    2.7862   -7.3809    4.9452 H   0  0  0  0  0  0  0  0  0  0  0  0
    0.0816   -5.1489    4.0814 H   0  0  0  0  0  0  0  0  0  0  0  0
    2.4677   -6.3297    3.4454 H   0  0  0  0  0  0  0  0  0  0  0  0
    3.2614   -0.2838    7.9991 H   0  0  0  0  0  0  0  0  0  0  0  0
    1.9238   -1.2018    7.9834 H   0  0  0  0  0  0  0  0  0  0  0  0
  1  2  1  0
  1 44  1  0
  1 45  1  0
  1 46  1  0
  2 41  1  0
  2  3  1  0
  2 47  1  6
  3  4  1  0
  3 48  1  0
  3 49  1  0
  4  5  1  0
  4 50  1  0
  4 51  1  0
  5 40  1  0
  5  6  1  0
  5 52  1  6
  6  7  1  0
  6  8  1  0
  6  9  1  0
  7 53  1  0
  7 54  1  0
  7 55  1  0
  8 56  1  0
  8 57  1  0
  8 58  1  0
  9 10  1  0
  9 11  1  0
  9 59  1  6
 10 60  1  0
 40 11  1  6
 11 12  1  6
 11 13  1  0
 12 61  1  0
 13 14  1  0
 14 32  1  1
 14 43  1  0
 14 15  1  0
 15 16  2  3
 15 62  1  0
 16 17  1  0
 16 63  1  0
 17 24  1  0
 17 18  1  6
 17 19  1  0
 18 64  1  0
 19 20  1  0
 19 65  1  0
 19 66  1  0
 20 21  1  0
 20 67  1  0
 20 68  1  0
 21 22  1  0
 21 23  1  0
 21 24  1  0
 22 69  1  0
 22 70  1  0
 22 71  1  0
 23 72  1  0
 23 73  1  0
 23 74  1  0
 24 25  1  0
 24 75  1  1
 25 38  1  0
 25 26  1  0
 25 76  1  6
 26 27  1  0
 26 77  1  0
 26 78  1  0
 27 28  1  0
 27 79  1  0
 27 80  1  0
 28 36  1  0
 28 29  1  0
 28 81  1  1
 29 30  1  1
 29 31  1  0
 29 33  1  0
 30 82  1  0
 30 83  1  0
 30 84  1  0
 31 32  1  0
 31 85  1  0
 31 86  1  0
 32 87  1  0
 32 88  1  0
 33 34  2  0
 33 43  1  0
 34 35  1  0
 34 89  1  0
 35 36  1  0
 35 90  1  0
 35 91  1  0
 36 37  1  1
 36 38  1  0
 37 92  1  0
 37 93  1  0
 37 94  1  0
 38 39  1  1
 38 40  1  0
 39 95  1  0
 39 96  1  0
 39 97  1  0
 40 41  1  0
 41 42  1  0
 41 98  1  6
 42 99  1  0
 43100  1  0
 43101  1  0
M  END
>  <i_m_ct_stereo_status>  (290) 
1

>  <s_m_source_file>  (290) 
/var/tmp/pbs.5076255.sched01/tmprva83imr/861x3d95ot.sdf

>  <i_m_source_file_index>  (290) 
29

>  <i_lp_mmshare_version>  (290) 
48012

>  <i_f3d_flags>  (290) 
2

>  <s_epik_input>  (290) 
W09IXVtDQEhdMVtDQEhdKFtDSDNdKVtDSDJdW0NIMl1bQ0hdKEMoW0NIM10pKFtDSDNdKVtDQEhdMltPSF0pW0NAXTEoW0NAXTIoW09IXSlPW0NAXTM0NSlbQ0BAXTYoW0NIM10pW0NIXShbQ0BIXTdbQ0BdKFtPSF0pKC9bQ0hdPVtDSF1cMylbQ0gyXVtDSDJdQzcoW0NIM10pW0NIM10pW0NIMl1bQ0gyXVtDQEhdOFtDQEBdKFtDSDNdKShbQ0gyXVtDSDJdNClDKFtDSDJdNSk9W0NIXVtDSDJdW0NAQF02OFtDSDNd

>  <s_epik_cmdline>  (290) 
J2VwaWtfcHl0aG9uJywgJy1waHQnLCAnMi4wJywgJy1waCcsICc3LjAnLCAnLXRuJywgJzgnLCAnLW1hJywgJzIwMCcsICctaW1hZScsICc8aW5maWxlLm1hZT4nLCAnLW9tYWUnLCAnPG91dGZpbGUubWFlPic=

>  <r_lp_tautomer_probability>  (290) 
1

>  <r_epik_Ionization_Penalty>  (290) 
8.69048e-07

>  <r_epik_Ionization_Penalty_Charging>  (290) 
0

>  <r_epik_Ionization_Penalty_Neutral>  (290) 
8.69048e-07

>  <r_epik_State_Penalty>  (290) 
-0

>  <r_epik_Charging_Adjusted_Penalty>  (290) 
0

>  <i_epik_Tot_Q>  (290) 
0

>  <i_epik_Tot_abs_Q>  (290) 
0

>  <s_lp_Force_Field>  (290) 
OPLS3e

>  <r_lp_Energy>  (290) 
471.472

>  <b_lp_Chiralities_Consistent>  (290) 
0

>  <s_lp_Variant>  (290) 
82:0-2

>  <s_i_glide_gridfile>  (290) 
pfpi4k_grid

>  <i_i_glide_lignum>  (290) 
29

>  <i_i_glide_rotatable_bonds>  (290) 
4

>  <r_i_docking_score>  (290) 
-2.38196

>  <r_i_glide_ligand_efficiency>  (290) 
-0.0553944

>  <r_i_glide_ligand_efficiency_sa>  (290) 
-0.194069

>  <r_i_glide_ligand_efficiency_ln>  (290) 
-0.500286

>  <r_i_glide_gscore>  (290) 
-2.38196

>  <r_i_glide_lipo>  (290) 
-0.320739

>  <r_i_glide_hbond>  (290) 
0

>  <r_i_glide_metal>  (290) 
-0

>  <r_i_glide_rewards>  (290) 
-0.5

>  <r_i_glide_evdw>  (290) 
-26.3329

>  <r_i_glide_ecoul>  (290) 
-1.63049

>  <r_i_glide_erotb>  (290) 
0

>  <r_i_glide_esite>  (290) 
-6.11696e-07

>  <r_i_glide_emodel>  (290) 
-37.2572

>  <r_i_glide_energy>  (290) 
-27.9634

>  <r_i_glide_einternal>  (290) 
0.700084

>  <r_i_glide_intrahb_reward>  (290) 
-0.5

>  <i_i_glide_confnum>  (290) 
1

>  <i_i_glide_posenum>  (290) 
15

>  <r_i_glide_eff_state_penalty>  (290) 
0

>  <ligand_id>  (290) 
82

>  <original_smiles>  (290) 
CC1CCC2C(C)(C)C(O)C3(O)OC45C=CC6(O)CCC(C)(C)C6C6CCC7C(C)(CC4)C(=CCC7(C)C6(C)C23C1O)C5

>  <smiles>  (290) 
[H]OC1([H])C2(O[H])OC34C([H])=C([H])C5(O[H])C([H])([H])C([H])([H])C(C([H])([H])[H])(C([H])([H])[H])C5([H])C5([H])C([H])([H])C([H])([H])C6([H])C(C([H])([H])[H])(C(=C([H])C([H])([H])C6(C([H])([H])[H])C5(C([H])([H])[H])C25C([H])(O[H])C([H])(C([H])([H])[H])C([H])([H])C([H])([H])C5([H])C1(C([H])([H])[H])C([H])([H])[H])C3([H])[H])C([H])([H])C4([H])[H]

$$$$
82:1:2
     RDKit          3D

101108  0  0  1  0  0  0  0  0999 V2000
   -0.5765   -7.4942    2.3430 C   0  0  0  0  0  0  0  0  0  0  0  0
    0.9157   -7.8099    2.1275 C   0  0  2  0  0  0  0  0  0  0  0  0
    1.1803   -9.3341    2.3332 C   0  0  0  0  0  0  0  0  0  0  0  0
    1.8773   -9.7640    3.6337 C   0  0  0  0  0  0  0  0  0  0  0  0
    2.2555   -8.5499    4.4795 C   0  0  1  0  0  0  0  0  0  0  0  0
    2.0913   -8.6254    6.0165 C   0  0  0  0  0  0  0  0  0  0  0  0
    0.6182   -8.9008    6.5088 C   0  0  0  0  0  0  0  0  0  0  0  0
    2.8598   -9.7778    6.7145 C   0  0  0  0  0  0  0  0  0  0  0  0
    2.4185   -7.1566    6.3926 C   0  0  1  0  0  0  0  0  0  0  0  0
    2.8728   -6.9752    7.7093 O   0  0  0  0  0  0  0  0  0  0  0  0
    3.2032   -6.4181    5.2299 C   0  0  1  0  0  0  0  0  0  0  0  0
    2.5396   -5.1588    5.1216 O   0  0  0  0  0  0  0  0  0  0  0  0
    4.5786   -6.3749    5.6485 O   0  0  0  0  0  0  0  0  0  0  0  0
    5.3652   -5.2805    6.2694 C   0  0  1  0  0  0  0  0  0  0  0  0
    5.3911   -4.7521    4.8598 C   0  0  0  0  0  0  0  0  0  0  0  0
    4.7337   -3.6708    4.4516 C   0  0  0  0  0  0  0  0  0  0  0  0
    4.3388   -3.4769    3.0219 C   0  0  1  0  0  0  0  0  0  0  0  0
    2.9423   -3.3849    3.0078 O   0  0  0  0  0  0  0  0  0  0  0  0
    4.8101   -2.1072    2.5300 C   0  0  0  0  0  0  0  0  0  0  0  0
    4.7158   -2.1716    1.0059 C   0  0  0  0  0  0  0  0  0  0  0  0
    4.7066   -3.6699    0.5965 C   0  0  0  0  0  0  0  0  0  0  0  0
    3.3662   -3.9722   -0.1146 C   0  0  0  0  0  0  0  0  0  0  0  0
    5.8027   -3.8506   -0.4742 C   0  0  0  0  0  0  0  0  0  0  0  0
    4.9382   -4.4661    1.9588 C   0  0  2  0  0  0  0  0  0  0  0  0
    5.0293   -6.1126    1.9140 C   0  0  1  0  0  0  0  0  0  0  0  0
    6.4972   -6.3976    1.4693 C   0  0  0  0  0  0  0  0  0  0  0  0
    7.5033   -6.3951    2.6149 C   0  0  0  0  0  0  0  0  0  0  0  0
    7.1973   -7.4470    3.6996 C   0  0  1  0  0  0  0  0  0  0  0  0
    7.6338   -7.1045    5.2010 C   0  0  1  0  0  0  0  0  0  0  0  0
    8.9114   -7.9260    5.5318 C   0  0  0  0  0  0  0  0  0  0  0  0
    7.9889   -5.6162    5.5780 C   0  0  0  0  0  0  0  0  0  0  0  0
    6.8825   -4.7417    6.2741 C   0  0  0  0  0  0  0  0  0  0  0  0
    6.5811   -7.5902    6.1702 C   0  0  0  0  0  0  0  0  0  0  0  0
    5.8364   -8.6647    5.9583 C   0  0  0  0  0  0  0  0  0  0  0  0
    5.6676   -9.2877    4.6169 C   0  0  0  0  0  0  0  0  0  0  0  0
    5.8784   -8.3066    3.4235 C   0  0  2  0  0  0  0  0  0  0  0  0
    6.3667   -9.4599    2.4304 C   0  0  0  0  0  0  0  0  0  0  0  0
    4.5201   -7.4169    2.8819 C   0  0  2  0  0  0  0  0  0  0  0  0
    4.0423   -8.3233    1.6847 C   0  0  0  0  0  0  0  0  0  0  0  0
    3.0739   -7.2937    3.8337 C   0  0  1  0  0  0  0  0  0  0  0  0
    1.8334   -6.7726    2.9106 C   0  0  1  0  0  0  0  0  0  0  0  0
    2.1195   -5.8023    1.9481 O   0  0  0  0  0  0  0  0  0  0  0  0
    5.9715   -6.5385    7.0708 C   0  0  0  0  0  0  0  0  0  0  0  0
   -0.8739   -7.6431    3.3791 H   0  0  0  0  0  0  0  0  0  0  0  0
   -1.2130   -8.1183    1.7158 H   0  0  0  0  0  0  0  0  0  0  0  0
   -0.7791   -6.4635    2.0691 H   0  0  0  0  0  0  0  0  0  0  0  0
    1.0434   -7.6640    1.0515 H   0  0  0  0  0  0  0  0  0  0  0  0
    0.2336   -9.8698    2.2672 H   0  0  0  0  0  0  0  0  0  0  0  0
    1.7357   -9.7290    1.4821 H   0  0  0  0  0  0  0  0  0  0  0  0
    1.1944  -10.4086    4.1954 H   0  0  0  0  0  0  0  0  0  0  0  0
    2.7419  -10.3908    3.4402 H   0  0  0  0  0  0  0  0  0  0  0  0
    1.2506   -8.1495    4.4821 H   0  0  0  0  0  0  0  0  0  0  0  0
    0.5736   -8.9045    7.5980 H   0  0  0  0  0  0  0  0  0  0  0  0
    0.2459   -9.8741    6.1846 H   0  0  0  0  0  0  0  0  0  0  0  0
   -0.1092   -8.1643    6.1706 H   0  0  0  0  0  0  0  0  0  0  0  0
    3.2833   -9.4974    7.6773 H   0  0  0  0  0  0  0  0  0  0  0  0
    3.6123  -10.2504    6.0991 H   0  0  0  0  0  0  0  0  0  0  0  0
    2.2106  -10.6203    6.9225 H   0  0  0  0  0  0  0  0  0  0  0  0
    1.4525   -6.6495    6.4319 H   0  0  0  0  0  0  0  0  0  0  0  0
    3.7171   -7.4065    7.7847 H   0  0  0  0  0  0  0  0  0  0  0  0
    2.8839   -4.7160    4.3426 H   0  0  0  0  0  0  0  0  0  0  0  0
    5.7782   -5.4160    4.1380 H   0  0  0  0  0  0  0  0  0  0  0  0
    4.2484   -3.0337    5.1741 H   0  0  0  0  0  0  0  0  0  0  0  0
    2.6825   -2.9611    2.1958 H   0  0  0  0  0  0  0  0  0  0  0  0
    4.2439   -1.2708    2.9482 H   0  0  0  0  0  0  0  0  0  0  0  0
    5.8512   -1.9529    2.8148 H   0  0  0  0  0  0  0  0  0  0  0  0
    3.8139   -1.6620    0.6585 H   0  0  0  0  0  0  0  0  0  0  0  0
    5.5508   -1.6208    0.5643 H   0  0  0  0  0  0  0  0  0  0  0  0
    3.2770   -5.0207   -0.3959 H   0  0  0  0  0  0  0  0  0  0  0  0
    3.2773   -3.3986   -1.0389 H   0  0  0  0  0  0  0  0  0  0  0  0
    2.4997   -3.7066    0.4871 H   0  0  0  0  0  0  0  0  0  0  0  0
    5.7667   -4.8503   -0.9059 H   0  0  0  0  0  0  0  0  0  0  0  0
    6.8010   -3.6651   -0.0756 H   0  0  0  0  0  0  0  0  0  0  0  0
    5.6636   -3.1548   -1.3032 H   0  0  0  0  0  0  0  0  0  0  0  0
    5.9793   -4.2203    2.1437 H   0  0  0  0  0  0  0  0  0  0  0  0
    4.4991   -6.2304    0.9727 H   0  0  0  0  0  0  0  0  0  0  0  0
    6.5794   -7.2909    0.8772 H   0  0  0  0  0  0  0  0  0  0  0  0
    6.8804   -5.6736    0.7680 H   0  0  0  0  0  0  0  0  0  0  0  0
    8.5010   -6.5685    2.2113 H   0  0  0  0  0  0  0  0  0  0  0  0
    7.5505   -5.3874    2.9987 H   0  0  0  0  0  0  0  0  0  0  0  0
    7.9891   -8.1435    3.4316 H   0  0  0  0  0  0  0  0  0  0  0  0
    9.7609   -7.6127    4.9166 H   0  0  0  0  0  0  0  0  0  0  0  0
    8.7555   -8.9969    5.3656 H   0  0  0  0  0  0  0  0  0  0  0  0
    9.2026   -7.8170    6.5797 H   0  0  0  0  0  0  0  0  0  0  0  0
    8.7992   -5.6360    6.3061 H   0  0  0  0  0  0  0  0  0  0  0  0
    8.4702   -5.0754    4.7720 H   0  0  0  0  0  0  0  0  0  0  0  0
    7.0122   -3.7081    5.9254 H   0  0  0  0  0  0  0  0  0  0  0  0
    7.1984   -4.5053    7.2938 H   0  0  0  0  0  0  0  0  0  0  0  0
    5.0697   -8.8653    6.6715 H   0  0  0  0  0  0  0  0  0  0  0  0
    6.3817  -10.1132    4.6633 H   0  0  0  0  0  0  0  0  0  0  0  0
    4.6993   -9.7510    4.4927 H   0  0  0  0  0  0  0  0  0  0  0  0
    5.6444  -10.2675    2.3238 H   0  0  0  0  0  0  0  0  0  0  0  0
    7.2584   -9.9793    2.7901 H   0  0  0  0  0  0  0  0  0  0  0  0
    6.6675   -9.1833    1.4301 H   0  0  0  0  0  0  0  0  0  0  0  0
    3.8005   -9.3372    1.9757 H   0  0  0  0  0  0  0  0  0  0  0  0
    4.7590   -8.4308    0.8736 H   0  0  0  0  0  0  0  0  0  0  0  0
    3.2028   -7.9382    1.1210 H   0  0  0  0  0  0  0  0  0  0  0  0
    1.1363   -6.2452    3.5595 H   0  0  0  0  0  0  0  0  0  0  0  0
    2.8305   -6.1340    1.4045 H   0  0  0  0  0  0  0  0  0  0  0  0
    6.7058   -6.3465    7.8617 H   0  0  0  0  0  0  0  0  0  0  0  0
    5.2290   -6.9964    7.7156 H   0  0  0  0  0  0  0  0  0  0  0  0
  1  2  1  0
  1 44  1  0
  1 45  1  0
  1 46  1  0
  2 41  1  0
  2  3  1  0
  2 47  1  6
  3  4  1  0
  3 48  1  0
  3 49  1  0
  4  5  1  0
  4 50  1  0
  4 51  1  0
  5 40  1  0
  5  6  1  0
  5 52  1  6
  6  7  1  0
  6  8  1  0
  6  9  1  0
  7 53  1  0
  7 54  1  0
  7 55  1  0
  8 56  1  0
  8 57  1  0
  8 58  1  0
  9 10  1  0
  9 11  1  0
  9 59  1  1
 10 60  1  0
 40 11  1  1
 11 12  1  6
 11 13  1  0
 12 61  1  0
 13 14  1  0
 14 32  1  6
 14 43  1  0
 14 15  1  0
 15 16  2  3
 15 62  1  0
 16 17  1  0
 16 63  1  0
 17 24  1  0
 17 18  1  1
 17 19  1  0
 18 64  1  0
 19 20  1  0
 19 65  1  0
 19 66  1  0
 20 21  1  0
 20 67  1  0
 20 68  1  0
 21 22  1  0
 21 23  1  0
 21 24  1  0
 22 69  1  0
 22 70  1  0
 22 71  1  0
 23 72  1  0
 23 73  1  0
 23 74  1  0
 24 25  1  0
 24 75  1  1
 25 38  1  0
 25 26  1  0
 25 76  1  6
 26 27  1  0
 26 77  1  0
 26 78  1  0
 27 28  1  0
 27 79  1  0
 27 80  1  0
 28 36  1  0
 28 29  1  0
 28 81  1  6
 29 30  1  1
 29 31  1  0
 29 33  1  0
 30 82  1  0
 30 83  1  0
 30 84  1  0
 31 32  1  0
 31 85  1  0
 31 86  1  0
 32 87  1  0
 32 88  1  0
 33 34  2  0
 33 43  1  0
 34 35  1  0
 34 89  1  0
 35 36  1  0
 35 90  1  0
 35 91  1  0
 36 37  1  6
 36 38  1  0
 37 92  1  0
 37 93  1  0
 37 94  1  0
 38 39  1  6
 38 40  1  0
 39 95  1  0
 39 96  1  0
 39 97  1  0
 40 41  1  0
 41 42  1  0
 41 98  1  1
 42 99  1  0
 43100  1  0
 43101  1  0
M  END
>  <i_m_ct_stereo_status>  (291) 
1

>  <s_m_source_file>  (291) 
/var/tmp/pbs.5076255.sched01/tmprva83imr/861x3d95ot.sdf

>  <i_m_source_file_index>  (291) 
29

>  <i_lp_mmshare_version>  (291) 
48012

>  <i_f3d_flags>  (291) 
2

>  <s_epik_input>  (291) 
W09IXVtDQEhdMVtDQEhdKFtDSDNdKVtDSDJdW0NIMl1bQ0hdKEMoW0NIM10pKFtDSDNdKVtDQEhdMltPSF0pW0NAXTEoW0NAXTIoW09IXSlPW0NAXTM0NSlbQ0BAXTYoW0NIM10pW0NIXShbQ0BIXTdbQ0BdKFtPSF0pKC9bQ0hdPVtDSF1cMylbQ0gyXVtDSDJdQzcoW0NIM10pW0NIM10pW0NIMl1bQ0gyXVtDQEhdOFtDQEBdKFtDSDNdKShbQ0gyXVtDSDJdNClDKFtDSDJdNSk9W0NIXVtDSDJdW0NAQF02OFtDSDNd

>  <s_epik_cmdline>  (291) 
J2VwaWtfcHl0aG9uJywgJy1waHQnLCAnMi4wJywgJy1waCcsICc3LjAnLCAnLXRuJywgJzgnLCAnLW1hJywgJzIwMCcsICctaW1hZScsICc8aW5maWxlLm1hZT4nLCAnLW9tYWUnLCAnPG91dGZpbGUubWFlPic=

>  <r_lp_tautomer_probability>  (291) 
1

>  <r_epik_Ionization_Penalty>  (291) 
8.69048e-07

>  <r_epik_Ionization_Penalty_Charging>  (291) 
0

>  <r_epik_Ionization_Penalty_Neutral>  (291) 
8.69048e-07

>  <r_epik_State_Penalty>  (291) 
-0

>  <r_epik_Charging_Adjusted_Penalty>  (291) 
0

>  <i_epik_Tot_Q>  (291) 
0

>  <i_epik_Tot_abs_Q>  (291) 
0

>  <s_lp_Force_Field>  (291) 
OPLS3e

>  <r_lp_Energy>  (291) 
471.472

>  <b_lp_Chiralities_Consistent>  (291) 
0

>  <s_lp_Variant>  (291) 
82:0-2

>  <s_i_glide_gridfile>  (291) 
pfpi4k_grid

>  <i_i_glide_lignum>  (291) 
29

>  <i_i_glide_rotatable_bonds>  (291) 
4

>  <r_i_docking_score>  (291) 
-2.20632

>  <r_i_glide_ligand_efficiency>  (291) 
-0.0513097

>  <r_i_glide_ligand_efficiency_sa>  (291) 
-0.179758

>  <r_i_glide_ligand_efficiency_ln>  (291) 
-0.463395

>  <r_i_glide_gscore>  (291) 
-2.20632

>  <r_i_glide_lipo>  (291) 
-0.461454

>  <r_i_glide_hbond>  (291) 
0

>  <r_i_glide_metal>  (291) 
-0

>  <r_i_glide_rewards>  (291) 
0

>  <r_i_glide_evdw>  (291) 
-31.8883

>  <r_i_glide_ecoul>  (291) 
-1.00299

>  <r_i_glide_erotb>  (291) 
0

>  <r_i_glide_esite>  (291) 
0

>  <r_i_glide_emodel>  (291) 
-37.197

>  <r_i_glide_energy>  (291) 
-32.8913

>  <r_i_glide_einternal>  (291) 
0.268063

>  <r_i_glide_intrahb_reward>  (291) 
-0

>  <i_i_glide_confnum>  (291) 
1

>  <i_i_glide_posenum>  (291) 
12

>  <r_i_glide_eff_state_penalty>  (291) 
0

>  <ligand_id>  (291) 
82

>  <original_smiles>  (291) 
CC1CCC2C(C)(C)C(O)C3(O)OC45C=CC6(O)CCC(C)(C)C6C6CCC7C(C)(CC4)C(=CCC7(C)C6(C)C23C1O)C5

>  <smiles>  (291) 
[H]OC1([H])C2(O[H])OC34C([H])=C([H])C5(O[H])C([H])([H])C([H])([H])C(C([H])([H])[H])(C([H])([H])[H])C5([H])C5([H])C([H])([H])C([H])([H])C6([H])C(C([H])([H])[H])(C(=C([H])C([H])([H])C6(C([H])([H])[H])C5(C([H])([H])[H])C25C([H])(O[H])C([H])(C([H])([H])[H])C([H])([H])C([H])([H])C5([H])C1(C([H])([H])[H])C([H])([H])[H])C3([H])[H])C([H])([H])C4([H])[H]

$$$$
82:2:0
     RDKit          3D

101108  0  0  1  0  0  0  0  0999 V2000
    5.5106   -2.9712    1.9001 C   0  0  0  0  0  0  0  0  0  0  0  0
    5.3664   -4.5078    1.8891 C   0  0  2  0  0  0  0  0  0  0  0  0
    4.4546   -4.9075    0.7384 C   0  0  0  0  0  0  0  0  0  0  0  0
    4.2370   -6.4045    0.7228 C   0  0  0  0  0  0  0  0  0  0  0  0
    4.2895   -7.1139    2.0945 C   0  0  1  0  0  0  0  0  0  0  0  0
    5.6476   -7.9480    2.4256 C   0  0  0  0  0  0  0  0  0  0  0  0
    5.5750   -9.3220    1.7091 C   0  0  0  0  0  0  0  0  0  0  0  0
    7.0061   -7.3718    1.9349 C   0  0  0  0  0  0  0  0  0  0  0  0
    5.6703   -8.1557    4.0078 C   0  0  1  0  0  0  0  0  0  0  0  0
    6.7117   -7.5282    4.7216 O   0  0  0  0  0  0  0  0  0  0  0  0
    4.2651   -7.6577    4.3493 C   0  0  1  0  0  0  0  0  0  0  0  0
    3.5906   -8.7867    3.8956 O   0  0  0  0  0  0  0  0  0  0  0  0
    3.8666   -7.4039    5.6737 O   0  0  0  0  0  0  0  0  0  0  0  0
    3.3716   -8.2147    6.7986 C   0  0  2  0  0  0  0  0  0  0  0  0
    3.1692   -9.6731    6.4087 C   0  0  0  0  0  0  0  0  0  0  0  0
    2.1107  -10.1442    5.6660 C   0  0  0  0  0  0  0  0  0  0  0  0
    0.8991   -9.4970    4.8624 C   0  0  2  0  0  0  0  0  0  0  0  0
   -0.1834   -9.4605    5.7604 O   0  0  0  0  0  0  0  0  0  0  0  0
    0.4790  -10.5283    3.7911 C   0  0  0  0  0  0  0  0  0  0  0  0
   -0.2749   -9.8050    2.6691 C   0  0  0  0  0  0  0  0  0  0  0  0
   -0.3406   -8.2946    2.9828 C   0  0  0  0  0  0  0  0  0  0  0  0
   -0.2039   -7.4948    1.6724 C   0  0  0  0  0  0  0  0  0  0  0  0
   -1.7511   -7.9689    3.5394 C   0  0  0  0  0  0  0  0  0  0  0  0
    0.9061   -8.1495    3.9345 C   0  0  1  0  0  0  0  0  0  0  0  0
    1.3049   -6.7539    4.5846 C   0  0  2  0  0  0  0  0  0  0  0  0
    0.0860   -6.0587    5.2315 C   0  0  0  0  0  0  0  0  0  0  0  0
    0.3997   -5.1984    6.4611 C   0  0  0  0  0  0  0  0  0  0  0  0
    1.9018   -4.9151    6.7160 C   0  0  1  0  0  0  0  0  0  0  0  0
    2.6653   -5.5924    7.9794 C   0  0  1  0  0  0  0  0  0  0  0  0
    2.7792   -4.5803    9.1552 C   0  0  0  0  0  0  0  0  0  0  0  0
    1.9551   -6.7958    8.5785 C   0  0  0  0  0  0  0  0  0  0  0  0
    2.0398   -7.9934    7.6494 C   0  0  0  0  0  0  0  0  0  0  0  0
    4.1103   -6.0348    7.6521 C   0  0  0  0  0  0  0  0  0  0  0  0
    4.8084   -5.2526    6.8204 C   0  0  0  0  0  0  0  0  0  0  0  0
    4.0971   -4.1686    6.0322 C   0  0  0  0  0  0  0  0  0  0  0  0
    2.6988   -4.6038    5.3750 C   0  0  2  0  0  0  0  0  0  0  0  0
    2.1704   -3.2012    4.9029 C   0  0  0  0  0  0  0  0  0  0  0  0
    2.4990   -5.7403    4.0903 C   0  0  2  0  0  0  0  0  0  0  0  0
    1.8607   -5.0590    2.8501 C   0  0  0  0  0  0  0  0  0  0  0  0
    3.9376   -6.3587    3.4617 C   0  0  2  0  0  0  0  0  0  0  0  0
    4.9492   -5.0989    3.2883 C   0  0  1  0  0  0  0  0  0  0  0  0
    6.1305   -5.0548    4.0472 O   0  0  0  0  0  0  0  0  0  0  0  0
    4.4388   -7.5768    7.7357 C   0  0  0  0  0  0  0  0  0  0  0  0
    4.5535   -2.4749    2.0713 H   0  0  0  0  0  0  0  0  0  0  0  0
    5.8953   -2.6152    0.9445 H   0  0  0  0  0  0  0  0  0  0  0  0
    6.2098   -2.6417    2.6710 H   0  0  0  0  0  0  0  0  0  0  0  0
    6.3527   -4.8752    1.6197 H   0  0  0  0  0  0  0  0  0  0  0  0
    3.5013   -4.3930    0.7906 H   0  0  0  0  0  0  0  0  0  0  0  0
    4.8890   -4.6014   -0.2143 H   0  0  0  0  0  0  0  0  0  0  0  0
    3.2813   -6.5999    0.2313 H   0  0  0  0  0  0  0  0  0  0  0  0
    4.9718   -6.8561    0.0621 H   0  0  0  0  0  0  0  0  0  0  0  0
    3.4982   -7.8296    1.8805 H   0  0  0  0  0  0  0  0  0  0  0  0
    6.4096   -9.9660    1.9918 H   0  0  0  0  0  0  0  0  0  0  0  0
    5.6070   -9.1981    0.6286 H   0  0  0  0  0  0  0  0  0  0  0  0
    4.6650   -9.8775    1.9314 H   0  0  0  0  0  0  0  0  0  0  0  0
    7.7997   -8.1156    2.0346 H   0  0  0  0  0  0  0  0  0  0  0  0
    7.3681   -6.5167    2.4969 H   0  0  0  0  0  0  0  0  0  0  0  0
    6.9784   -7.0872    0.8867 H   0  0  0  0  0  0  0  0  0  0  0  0
    5.7760   -9.2123    4.2791 H   0  0  0  0  0  0  0  0  0  0  0  0
    6.5891   -7.7421    5.6348 H   0  0  0  0  0  0  0  0  0  0  0  0
    3.8116   -9.5160    4.4548 H   0  0  0  0  0  0  0  0  0  0  0  0
    3.8529  -10.3836    6.8470 H   0  0  0  0  0  0  0  0  0  0  0  0
    2.1062  -11.2214    5.5844 H   0  0  0  0  0  0  0  0  0  0  0  0
   -0.8485  -10.0966    5.4729 H   0  0  0  0  0  0  0  0  0  0  0  0
    1.3536  -11.0075    3.3518 H   0  0  0  0  0  0  0  0  0  0  0  0
   -0.1198  -11.3352    4.2092 H   0  0  0  0  0  0  0  0  0  0  0  0
    0.2968   -9.9793    1.7580 H   0  0  0  0  0  0  0  0  0  0  0  0
   -1.2612  -10.2394    2.4991 H   0  0  0  0  0  0  0  0  0  0  0  0
   -0.3389   -6.4290    1.8342 H   0  0  0  0  0  0  0  0  0  0  0  0
   -0.9695   -7.8160    0.9647 H   0  0  0  0  0  0  0  0  0  0  0  0
    0.7570   -7.6559    1.1820 H   0  0  0  0  0  0  0  0  0  0  0  0
   -1.9187   -6.9005    3.6463 H   0  0  0  0  0  0  0  0  0  0  0  0
   -1.9678   -8.4372    4.4937 H   0  0  0  0  0  0  0  0  0  0  0  0
   -2.5227   -8.3262    2.8574 H   0  0  0  0  0  0  0  0  0  0  0  0
    1.6125   -8.2649    3.1322 H   0  0  0  0  0  0  0  0  0  0  0  0
    1.7298   -7.1351    5.4522 H   0  0  0  0  0  0  0  0  0  0  0  0
   -0.4524   -5.4480    4.5111 H   0  0  0  0  0  0  0  0  0  0  0  0
   -0.6221   -6.8158    5.5730 H   0  0  0  0  0  0  0  0  0  0  0  0
   -0.1186   -4.2438    6.3309 H   0  0  0  0  0  0  0  0  0  0  0  0
   -0.0832   -5.6325    7.3289 H   0  0  0  0  0  0  0  0  0  0  0  0
    1.7759   -3.9290    7.1521 H   0  0  0  0  0  0  0  0  0  0  0  0
    1.7978   -4.2839    9.5268 H   0  0  0  0  0  0  0  0  0  0  0  0
    3.3175   -3.6740    8.8791 H   0  0  0  0  0  0  0  0  0  0  0  0
    3.3297   -5.0122    9.9941 H   0  0  0  0  0  0  0  0  0  0  0  0
    2.4425   -7.0620    9.5207 H   0  0  0  0  0  0  0  0  0  0  0  0
    0.9305   -6.5827    8.8755 H   0  0  0  0  0  0  0  0  0  0  0  0
    1.1113   -8.0196    7.1039 H   0  0  0  0  0  0  0  0  0  0  0  0
    1.9321   -8.8494    8.3176 H   0  0  0  0  0  0  0  0  0  0  0  0
    5.7402   -5.6124    6.4131 H   0  0  0  0  0  0  0  0  0  0  0  0
    3.8956   -3.4089    6.7836 H   0  0  0  0  0  0  0  0  0  0  0  0
    4.7898   -3.6073    5.4210 H   0  0  0  0  0  0  0  0  0  0  0  0
    2.7631   -2.7804    4.0936 H   0  0  0  0  0  0  0  0  0  0  0  0
    2.2209   -2.4420    5.6836 H   0  0  0  0  0  0  0  0  0  0  0  0
    1.1296   -3.2133    4.5846 H   0  0  0  0  0  0  0  0  0  0  0  0
    2.3974   -4.1749    2.5215 H   0  0  0  0  0  0  0  0  0  0  0  0
    0.8363   -4.7299    3.0036 H   0  0  0  0  0  0  0  0  0  0  0  0
    1.8446   -5.7425    2.0074 H   0  0  0  0  0  0  0  0  0  0  0  0
    4.3593   -4.2536    3.5820 H   0  0  0  0  0  0  0  0  0  0  0  0
    6.6177   -5.8583    3.8936 H   0  0  0  0  0  0  0  0  0  0  0  0
    4.3810   -7.9531    8.7570 H   0  0  0  0  0  0  0  0  0  0  0  0
    5.4505   -7.7703    7.3770 H   0  0  0  0  0  0  0  0  0  0  0  0
  1  2  1  0
  1 44  1  0
  1 45  1  0
  1 46  1  0
  2 41  1  0
  2  3  1  0
  2 47  1  6
  3  4  1  0
  3 48  1  0
  3 49  1  0
  4  5  1  0
  4 50  1  0
  4 51  1  0
  5 40  1  0
  5  6  1  0
  5 52  1  6
  6  7  1  0
  6  8  1  0
  6  9  1  0
  7 53  1  0
  7 54  1  0
  7 55  1  0
  8 56  1  0
  8 57  1  0
  8 58  1  0
  9 10  1  0
  9 11  1  0
  9 59  1  6
 10 60  1  0
 40 11  1  1
 11 12  1  6
 11 13  1  0
 12 61  1  0
 13 14  1  0
 14 32  1  1
 14 43  1  0
 14 15  1  0
 15 16  2  3
 15 62  1  0
 16 17  1  0
 16 63  1  0
 17 24  1  0
 17 18  1  1
 17 19  1  0
 18 64  1  0
 19 20  1  0
 19 65  1  0
 19 66  1  0
 20 21  1  0
 20 67  1  0
 20 68  1  0
 21 22  1  0
 21 23  1  0
 21 24  1  0
 22 69  1  0
 22 70  1  0
 22 71  1  0
 23 72  1  0
 23 73  1  0
 23 74  1  0
 24 25  1  0
 24 75  1  6
 25 38  1  0
 25 26  1  0
 25 76  1  1
 26 27  1  0
 26 77  1  0
 26 78  1  0
 27 28  1  0
 27 79  1  0
 27 80  1  0
 28 36  1  0
 28 29  1  0
 28 81  1  1
 29 30  1  1
 29 31  1  0
 29 33  1  0
 30 82  1  0
 30 83  1  0
 30 84  1  0
 31 32  1  0
 31 85  1  0
 31 86  1  0
 32 87  1  0
 32 88  1  0
 33 34  2  0
 33 43  1  0
 34 35  1  0
 34 89  1  0
 35 36  1  0
 35 90  1  0
 35 91  1  0
 36 37  1  6
 36 38  1  0
 37 92  1  0
 37 93  1  0
 37 94  1  0
 38 39  1  6
 38 40  1  0
 39 95  1  0
 39 96  1  0
 39 97  1  0
 40 41  1  0
 41 42  1  0
 41 98  1  1
 42 99  1  0
 43100  1  0
 43101  1  0
M  END
>  <i_m_ct_stereo_status>  (292) 
1

>  <s_m_source_file>  (292) 
/var/tmp/pbs.5076255.sched01/tmprva83imr/861x3d95ot.sdf

>  <i_m_source_file_index>  (292) 
30

>  <i_lp_mmshare_version>  (292) 
48012

>  <i_f3d_flags>  (292) 
0

>  <s_epik_input>  (292) 
W09IXVtDQEhdMVtDQEhdKFtDSDNdKVtDSDJdW0NIMl1bQ0hdKEMoW0NIM10pKFtDSDNdKVtDQEhdMltPSF0pW0NAXTEoW0NAXTIoW09IXSlPW0NAXTM0NSlbQ0BAXTYoW0NIM10pW0NIXShbQ0BIXTdbQ0BdKFtPSF0pKC9bQ0hdPVtDSF1cMylbQ0gyXVtDSDJdQzcoW0NIM10pW0NIM10pW0NIMl1bQ0gyXVtDQEhdOFtDQEBdKFtDSDNdKShbQ0gyXVtDSDJdNClDKFtDSDJdNSk9W0NIXVtDSDJdW0NAQF02OFtDSDNd

>  <s_epik_cmdline>  (292) 
J2VwaWtfcHl0aG9uJywgJy1waHQnLCAnMi4wJywgJy1waCcsICc3LjAnLCAnLXRuJywgJzgnLCAnLW1hJywgJzIwMCcsICctaW1hZScsICc8aW5maWxlLm1hZT4nLCAnLW9tYWUnLCAnPG91dGZpbGUubWFlPic=

>  <r_lp_tautomer_probability>  (292) 
1

>  <r_epik_Ionization_Penalty>  (292) 
8.69048e-07

>  <r_epik_Ionization_Penalty_Charging>  (292) 
0

>  <r_epik_Ionization_Penalty_Neutral>  (292) 
8.69048e-07

>  <r_epik_State_Penalty>  (292) 
-0

>  <r_epik_Charging_Adjusted_Penalty>  (292) 
0

>  <i_epik_Tot_Q>  (292) 
0

>  <i_epik_Tot_abs_Q>  (292) 
0

>  <s_lp_Force_Field>  (292) 
OPLS3e

>  <r_lp_Energy>  (292) 
367.091

>  <b_lp_Chiralities_Consistent>  (292) 
1

>  <s_lp_Variant>  (292) 
82:0-3

>  <s_i_glide_gridfile>  (292) 
pfpi4k_grid

>  <i_i_glide_lignum>  (292) 
30

>  <i_i_glide_rotatable_bonds>  (292) 
4

>  <r_i_docking_score>  (292) 
-3.27912

>  <r_i_glide_ligand_efficiency>  (292) 
-0.0762586

>  <r_i_glide_ligand_efficiency_sa>  (292) 
-0.267164

>  <r_i_glide_ligand_efficiency_ln>  (292) 
-0.688717

>  <r_i_glide_gscore>  (292) 
-3.27912

>  <r_i_glide_lipo>  (292) 
-0.356254

>  <r_i_glide_hbond>  (292) 
-0.16

>  <r_i_glide_metal>  (292) 
-0

>  <r_i_glide_rewards>  (292) 
-0.5

>  <r_i_glide_evdw>  (292) 
-31.6715

>  <r_i_glide_ecoul>  (292) 
-4.52859

>  <r_i_glide_erotb>  (292) 
0

>  <r_i_glide_esite>  (292) 
0

>  <r_i_glide_emodel>  (292) 
-48.6351

>  <r_i_glide_energy>  (292) 
-36.2001

>  <r_i_glide_einternal>  (292) 
0.964436

>  <r_i_glide_intrahb_reward>  (292) 
-0.5

>  <i_i_glide_confnum>  (292) 
1

>  <i_i_glide_posenum>  (292) 
7

>  <r_i_glide_eff_state_penalty>  (292) 
0

>  <ligand_id>  (292) 
82

>  <original_smiles>  (292) 
CC1CCC2C(C)(C)C(O)C3(O)OC45C=CC6(O)CCC(C)(C)C6C6CCC7C(C)(CC4)C(=CCC7(C)C6(C)C23C1O)C5

>  <smiles>  (292) 
[H]OC1([H])C2(O[H])OC34C([H])=C([H])C5(O[H])C([H])([H])C([H])([H])C(C([H])([H])[H])(C([H])([H])[H])C5([H])C5([H])C([H])([H])C([H])([H])C6([H])C(C([H])([H])[H])(C(=C([H])C([H])([H])C6(C([H])([H])[H])C5(C([H])([H])[H])C25C([H])(O[H])C([H])(C([H])([H])[H])C([H])([H])C([H])([H])C5([H])C1(C([H])([H])[H])C([H])([H])[H])C3([H])[H])C([H])([H])C4([H])[H]

$$$$
82:2:1
     RDKit          3D

101108  0  0  1  0  0  0  0  0999 V2000
    5.1670   -2.5924    2.1303 C   0  0  0  0  0  0  0  0  0  0  0  0
    5.1164   -4.1340    2.1050 C   0  0  2  0  0  0  0  0  0  0  0  0
    4.2697   -4.5862    0.9232 C   0  0  0  0  0  0  0  0  0  0  0  0
    4.1570   -6.0966    0.8947 C   0  0  0  0  0  0  0  0  0  0  0  0
    4.2191   -6.8123    2.2639 C   0  0  1  0  0  0  0  0  0  0  0  0
    5.6248   -7.5486    2.6329 C   0  0  0  0  0  0  0  0  0  0  0  0
    5.6673   -8.9216    1.9124 C   0  0  0  0  0  0  0  0  0  0  0  0
    6.9515   -6.8747    2.1818 C   0  0  0  0  0  0  0  0  0  0  0  0
    5.6262   -7.7509    4.2183 C   0  0  1  0  0  0  0  0  0  0  0  0
    6.6105   -7.0357    4.9291 O   0  0  0  0  0  0  0  0  0  0  0  0
    4.1747   -7.3610    4.5196 C   0  0  1  0  0  0  0  0  0  0  0  0
    3.6011   -8.5353    4.0413 O   0  0  0  0  0  0  0  0  0  0  0  0
    3.7016   -7.1464    5.8291 O   0  0  0  0  0  0  0  0  0  0  0  0
    3.2473   -8.0009    6.9363 C   0  0  2  0  0  0  0  0  0  0  0  0
    3.1548   -9.4670    6.5328 C   0  0  0  0  0  0  0  0  0  0  0  0
    2.1552  -10.0029    5.7561 C   0  0  0  0  0  0  0  0  0  0  0  0
    0.9277   -9.4348    4.9195 C   0  0  2  0  0  0  0  0  0  0  0  0
   -0.1804   -9.4545    5.7890 O   0  0  0  0  0  0  0  0  0  0  0  0
    0.6051  -10.4910    3.8382 C   0  0  0  0  0  0  0  0  0  0  0  0
   -0.1566   -9.8052    2.6925 C   0  0  0  0  0  0  0  0  0  0  0  0
   -0.3351   -8.3083    3.0092 C   0  0  0  0  0  0  0  0  0  0  0  0
   -0.2212   -7.4990    1.7002 C   0  0  0  0  0  0  0  0  0  0  0  0
   -1.7832   -8.0890    3.5275 C   0  0  0  0  0  0  0  0  0  0  0  0
    0.8716   -8.0875    3.9968 C   0  0  1  0  0  0  0  0  0  0  0  0
    1.1503   -6.6763    4.6700 C   0  0  2  0  0  0  0  0  0  0  0  0
   -0.1309   -6.0712    5.2833 C   0  0  0  0  0  0  0  0  0  0  0  0
    0.0824   -5.1995    6.5277 C   0  0  0  0  0  0  0  0  0  0  0  0
    1.5518   -4.8119    6.8291 C   0  0  1  0  0  0  0  0  0  0  0  0
    2.3245   -5.4436    8.1104 C   0  0  1  0  0  0  0  0  0  0  0  0
    2.3332   -4.4338    9.2938 C   0  0  0  0  0  0  0  0  0  0  0  0
    1.6836   -6.6976    8.6834 C   0  0  0  0  0  0  0  0  0  0  0  0
    1.8803   -7.8806    7.7523 C   0  0  0  0  0  0  0  0  0  0  0  0
    3.8039   -5.7839    7.8230 C   0  0  0  0  0  0  0  0  0  0  0  0
    4.4705   -4.9484    7.0160 C   0  0  0  0  0  0  0  0  0  0  0  0
    3.7058   -3.9097    6.2158 C   0  0  0  0  0  0  0  0  0  0  0  0
    2.3629   -4.4381    5.5132 C   0  0  2  0  0  0  0  0  0  0  0  0
    1.7517   -3.0723    5.0317 C   0  0  0  0  0  0  0  0  0  0  0  0
    2.2835   -5.5794    4.2177 C   0  0  2  0  0  0  0  0  0  0  0  0
    1.6444   -4.9356    2.9609 C   0  0  0  0  0  0  0  0  0  0  0  0
    3.7763   -6.0895    3.6247 C   0  0  2  0  0  0  0  0  0  0  0  0
    4.6802   -4.7517    3.4845 C   0  0  1  0  0  0  0  0  0  0  0  0
    5.8162   -4.6130    4.2911 O   0  0  0  0  0  0  0  0  0  0  0  0
    4.2403   -7.2973    7.9059 C   0  0  0  0  0  0  0  0  0  0  0  0
    4.1802   -2.1566    2.2909 H   0  0  0  0  0  0  0  0  0  0  0  0
    5.5467   -2.2009    1.1871 H   0  0  0  0  0  0  0  0  0  0  0  0
    5.8235   -2.2257    2.9205 H   0  0  0  0  0  0  0  0  0  0  0  0
    6.1328   -4.4342    1.8703 H   0  0  0  0  0  0  0  0  0  0  0  0
    3.2830   -4.1375    0.9528 H   0  0  0  0  0  0  0  0  0  0  0  0
    4.7106   -4.2406   -0.0133 H   0  0  0  0  0  0  0  0  0  0  0  0
    3.2316   -6.3543    0.3737 H   0  0  0  0  0  0  0  0  0  0  0  0
    4.9394   -6.4916    0.2511 H   0  0  0  0  0  0  0  0  0  0  0  0
    3.4850   -7.5799    2.0241 H   0  0  0  0  0  0  0  0  0  0  0  0
    6.5366   -9.5080    2.2141 H   0  0  0  0  0  0  0  0  0  0  0  0
    5.7207   -8.7883    0.8343 H   0  0  0  0  0  0  0  0  0  0  0  0
    4.7916   -9.5396    2.1049 H   0  0  0  0  0  0  0  0  0  0  0  0
    7.7925   -7.5614    2.3007 H   0  0  0  0  0  0  0  0  0  0  0  0
    7.2312   -5.9945    2.7538 H   0  0  0  0  0  0  0  0  0  0  0  0
    6.9310   -6.5905    1.1339 H   0  0  0  0  0  0  0  0  0  0  0  0
    5.8027   -8.7920    4.5049 H   0  0  0  0  0  0  0  0  0  0  0  0
    7.4509   -7.4558    4.7726 H   0  0  0  0  0  0  0  0  0  0  0  0
    3.8427   -9.2477    4.6140 H   0  0  0  0  0  0  0  0  0  0  0  0
    3.8745  -10.1290    6.9880 H   0  0  0  0  0  0  0  0  0  0  0  0
    2.2247  -11.0777    5.6700 H   0  0  0  0  0  0  0  0  0  0  0  0
   -0.8192  -10.0919    5.4691 H   0  0  0  0  0  0  0  0  0  0  0  0
    1.5236  -10.9082    3.4246 H   0  0  0  0  0  0  0  0  0  0  0  0
    0.0554  -11.3406    4.2406 H   0  0  0  0  0  0  0  0  0  0  0  0
    0.4515   -9.9385    1.7971 H   0  0  0  0  0  0  0  0  0  0  0  0
   -1.1196  -10.2656    2.4839 H   0  0  0  0  0  0  0  0  0  0  0  0
   -0.4338   -6.4470    1.8655 H   0  0  0  0  0  0  0  0  0  0  0  0
   -0.9486   -7.8570    0.9714 H   0  0  0  0  0  0  0  0  0  0  0  0
    0.7606   -7.5935    1.2347 H   0  0  0  0  0  0  0  0  0  0  0  0
   -2.0313   -7.0366    3.6342 H   0  0  0  0  0  0  0  0  0  0  0  0
   -1.9978   -8.5786    4.4725 H   0  0  0  0  0  0  0  0  0  0  0  0
   -2.5093   -8.4955    2.8230 H   0  0  0  0  0  0  0  0  0  0  0  0
    1.6089   -8.1482    3.2172 H   0  0  0  0  0  0  0  0  0  0  0  0
    1.5664   -7.0334    5.5515 H   0  0  0  0  0  0  0  0  0  0  0  0
   -0.6736   -5.4910    4.5437 H   0  0  0  0  0  0  0  0  0  0  0  0
   -0.8000   -6.8744    5.5966 H   0  0  0  0  0  0  0  0  0  0  0  0
   -0.4978   -4.2837    6.3857 H   0  0  0  0  0  0  0  0  0  0  0  0
   -0.3952   -5.6701    7.3796 H   0  0  0  0  0  0  0  0  0  0  0  0
    1.3448   -3.8387    7.2654 H   0  0  0  0  0  0  0  0  0  0  0  0
    1.3230   -4.2089    9.6377 H   0  0  0  0  0  0  0  0  0  0  0  0
    2.8146   -3.4902    9.0375 H   0  0  0  0  0  0  0  0  0  0  0  0
    2.8881   -4.8322   10.1464 H   0  0  0  0  0  0  0  0  0  0  0  0
    2.1613   -6.9351    9.6382 H   0  0  0  0  0  0  0  0  0  0  0  0
    0.6375   -6.5584    8.9502 H   0  0  0  0  0  0  0  0  0  0  0  0
    0.9711   -7.9640    7.1814 H   0  0  0  0  0  0  0  0  0  0  0  0
    1.8122   -8.7469    8.4126 H   0  0  0  0  0  0  0  0  0  0  0  0
    5.4343   -5.2488    6.6358 H   0  0  0  0  0  0  0  0  0  0  0  0
    3.4308   -3.1710    6.9654 H   0  0  0  0  0  0  0  0  0  0  0  0
    4.3703   -3.2905    5.6289 H   0  0  0  0  0  0  0  0  0  0  0  0
    2.3363   -2.6046    4.2427 H   0  0  0  0  0  0  0  0  0  0  0  0
    1.7269   -2.3162    5.8166 H   0  0  0  0  0  0  0  0  0  0  0  0
    0.7245   -3.1541    4.6825 H   0  0  0  0  0  0  0  0  0  0  0  0
    2.1261   -4.0119    2.6526 H   0  0  0  0  0  0  0  0  0  0  0  0
    0.6005   -4.6737    3.0918 H   0  0  0  0  0  0  0  0  0  0  0  0
    1.6950   -5.6139    2.1142 H   0  0  0  0  0  0  0  0  0  0  0  0
    4.0186   -3.9547    3.7607 H   0  0  0  0  0  0  0  0  0  0  0  0
    6.3490   -5.3932    4.1733 H   0  0  0  0  0  0  0  0  0  0  0  0
    4.1825   -7.6844    8.9235 H   0  0  0  0  0  0  0  0  0  0  0  0
    5.2717   -7.4163    7.5691 H   0  0  0  0  0  0  0  0  0  0  0  0
  1  2  1  0
  1 44  1  0
  1 45  1  0
  1 46  1  0
  2 41  1  0
  2  3  1  0
  2 47  1  6
  3  4  1  0
  3 48  1  0
  3 49  1  0
  4  5  1  0
  4 50  1  0
  4 51  1  0
  5 40  1  0
  5  6  1  0
  5 52  1  6
  6  7  1  0
  6  8  1  0
  6  9  1  0
  7 53  1  0
  7 54  1  0
  7 55  1  0
  8 56  1  0
  8 57  1  0
  8 58  1  0
  9 10  1  0
  9 11  1  0
  9 59  1  6
 10 60  1  0
 40 11  1  1
 11 12  1  6
 11 13  1  0
 12 61  1  0
 13 14  1  0
 14 32  1  1
 14 43  1  0
 14 15  1  0
 15 16  2  3
 15 62  1  0
 16 17  1  0
 16 63  1  0
 17 24  1  0
 17 18  1  1
 17 19  1  0
 18 64  1  0
 19 20  1  0
 19 65  1  0
 19 66  1  0
 20 21  1  0
 20 67  1  0
 20 68  1  0
 21 22  1  0
 21 23  1  0
 21 24  1  0
 22 69  1  0
 22 70  1  0
 22 71  1  0
 23 72  1  0
 23 73  1  0
 23 74  1  0
 24 25  1  0
 24 75  1  6
 25 38  1  0
 25 26  1  0
 25 76  1  1
 26 27  1  0
 26 77  1  0
 26 78  1  0
 27 28  1  0
 27 79  1  0
 27 80  1  0
 28 36  1  0
 28 29  1  0
 28 81  1  1
 29 30  1  1
 29 31  1  0
 29 33  1  0
 30 82  1  0
 30 83  1  0
 30 84  1  0
 31 32  1  0
 31 85  1  0
 31 86  1  0
 32 87  1  0
 32 88  1  0
 33 34  2  0
 33 43  1  0
 34 35  1  0
 34 89  1  0
 35 36  1  0
 35 90  1  0
 35 91  1  0
 36 37  1  6
 36 38  1  0
 37 92  1  0
 37 93  1  0
 37 94  1  0
 38 39  1  6
 38 40  1  0
 39 95  1  0
 39 96  1  0
 39 97  1  0
 40 41  1  0
 41 42  1  0
 41 98  1  1
 42 99  1  0
 43100  1  0
 43101  1  0
M  END
>  <i_m_ct_stereo_status>  (293) 
1

>  <s_m_source_file>  (293) 
/var/tmp/pbs.5076255.sched01/tmprva83imr/861x3d95ot.sdf

>  <i_m_source_file_index>  (293) 
30

>  <i_lp_mmshare_version>  (293) 
48012

>  <i_f3d_flags>  (293) 
0

>  <s_epik_input>  (293) 
W09IXVtDQEhdMVtDQEhdKFtDSDNdKVtDSDJdW0NIMl1bQ0hdKEMoW0NIM10pKFtDSDNdKVtDQEhdMltPSF0pW0NAXTEoW0NAXTIoW09IXSlPW0NAXTM0NSlbQ0BAXTYoW0NIM10pW0NIXShbQ0BIXTdbQ0BdKFtPSF0pKC9bQ0hdPVtDSF1cMylbQ0gyXVtDSDJdQzcoW0NIM10pW0NIM10pW0NIMl1bQ0gyXVtDQEhdOFtDQEBdKFtDSDNdKShbQ0gyXVtDSDJdNClDKFtDSDJdNSk9W0NIXVtDSDJdW0NAQF02OFtDSDNd

>  <s_epik_cmdline>  (293) 
J2VwaWtfcHl0aG9uJywgJy1waHQnLCAnMi4wJywgJy1waCcsICc3LjAnLCAnLXRuJywgJzgnLCAnLW1hJywgJzIwMCcsICctaW1hZScsICc8aW5maWxlLm1hZT4nLCAnLW9tYWUnLCAnPG91dGZpbGUubWFlPic=

>  <r_lp_tautomer_probability>  (293) 
1

>  <r_epik_Ionization_Penalty>  (293) 
8.69048e-07

>  <r_epik_Ionization_Penalty_Charging>  (293) 
0

>  <r_epik_Ionization_Penalty_Neutral>  (293) 
8.69048e-07

>  <r_epik_State_Penalty>  (293) 
-0

>  <r_epik_Charging_Adjusted_Penalty>  (293) 
0

>  <i_epik_Tot_Q>  (293) 
0

>  <i_epik_Tot_abs_Q>  (293) 
0

>  <s_lp_Force_Field>  (293) 
OPLS3e

>  <r_lp_Energy>  (293) 
367.091

>  <b_lp_Chiralities_Consistent>  (293) 
1

>  <s_lp_Variant>  (293) 
82:0-3

>  <s_i_glide_gridfile>  (293) 
pfpi4k_grid

>  <i_i_glide_lignum>  (293) 
30

>  <i_i_glide_rotatable_bonds>  (293) 
4

>  <r_i_docking_score>  (293) 
-3.18168

>  <r_i_glide_ligand_efficiency>  (293) 
-0.0739925

>  <r_i_glide_ligand_efficiency_sa>  (293) 
-0.259225

>  <r_i_glide_ligand_efficiency_ln>  (293) 
-0.668251

>  <r_i_glide_gscore>  (293) 
-3.18168

>  <r_i_glide_lipo>  (293) 
-0.273448

>  <r_i_glide_hbond>  (293) 
-0.16

>  <r_i_glide_metal>  (293) 
-0

>  <r_i_glide_rewards>  (293) 
-0.5

>  <r_i_glide_evdw>  (293) 
-32.1282

>  <r_i_glide_ecoul>  (293) 
-4.27879

>  <r_i_glide_erotb>  (293) 
0

>  <r_i_glide_esite>  (293) 
0

>  <r_i_glide_emodel>  (293) 
-48.5735

>  <r_i_glide_energy>  (293) 
-36.407

>  <r_i_glide_einternal>  (293) 
0.950046

>  <r_i_glide_intrahb_reward>  (293) 
-0.5

>  <i_i_glide_confnum>  (293) 
1

>  <i_i_glide_posenum>  (293) 
22

>  <r_i_glide_eff_state_penalty>  (293) 
0

>  <ligand_id>  (293) 
82

>  <original_smiles>  (293) 
CC1CCC2C(C)(C)C(O)C3(O)OC45C=CC6(O)CCC(C)(C)C6C6CCC7C(C)(CC4)C(=CCC7(C)C6(C)C23C1O)C5

>  <smiles>  (293) 
[H]OC1([H])C2(O[H])OC34C([H])=C([H])C5(O[H])C([H])([H])C([H])([H])C(C([H])([H])[H])(C([H])([H])[H])C5([H])C5([H])C([H])([H])C([H])([H])C6([H])C(C([H])([H])[H])(C(=C([H])C([H])([H])C6(C([H])([H])[H])C5(C([H])([H])[H])C25C([H])(O[H])C([H])(C([H])([H])[H])C([H])([H])C([H])([H])C5([H])C1(C([H])([H])[H])C([H])([H])[H])C3([H])[H])C([H])([H])C4([H])[H]

$$$$
82:2:2
     RDKit          3D

101108  0  0  1  0  0  0  0  0999 V2000
    1.3927  -11.8235    3.9560 C   0  0  0  0  0  0  0  0  0  0  0  0
    1.1794  -10.3505    4.3564 C   0  0  2  0  0  0  0  0  0  0  0  0
    0.3523   -9.6606    3.2831 C   0  0  0  0  0  0  0  0  0  0  0  0
    0.1551   -8.1975    3.6207 C   0  0  0  0  0  0  0  0  0  0  0  0
    1.3026   -7.5294    4.4180 C   0  0  1  0  0  0  0  0  0  0  0  0
    1.0323   -7.2847    6.0058 C   0  0  0  0  0  0  0  0  0  0  0  0
    0.1618   -6.0075    6.1658 C   0  0  0  0  0  0  0  0  0  0  0  0
    0.2286   -8.3641    6.7817 C   0  0  0  0  0  0  0  0  0  0  0  0
    2.4632   -7.0689    6.6863 C   0  0  1  0  0  0  0  0  0  0  0  0
    2.8844   -8.0402    7.6174 O   0  0  0  0  0  0  0  0  0  0  0  0
    3.3212   -6.9727    5.4231 C   0  0  1  0  0  0  0  0  0  0  0  0
    2.9333   -5.6820    5.0805 O   0  0  0  0  0  0  0  0  0  0  0  0
    4.7231   -7.0091    5.4512 O   0  0  0  0  0  0  0  0  0  0  0  0
    5.7971   -6.0466    5.7453 C   0  0  2  0  0  0  0  0  0  0  0  0
    5.2614   -4.6305    5.9382 C   0  0  0  0  0  0  0  0  0  0  0  0
    4.8415   -3.8009    4.9219 C   0  0  0  0  0  0  0  0  0  0  0  0
    4.5853   -3.9477    3.3568 C   0  0  2  0  0  0  0  0  0  0  0  0
    5.7695   -3.5416    2.7177 O   0  0  0  0  0  0  0  0  0  0  0  0
    3.5801   -2.8472    2.9552 C   0  0  0  0  0  0  0  0  0  0  0  0
    2.8858   -3.2448    1.6414 C   0  0  0  0  0  0  0  0  0  0  0  0
    3.4467   -4.6064    1.1754 C   0  0  0  0  0  0  0  0  0  0  0  0
    2.3103   -5.4217    0.5239 C   0  0  0  0  0  0  0  0  0  0  0  0
    4.4878   -4.3542    0.0496 C   0  0  0  0  0  0  0  0  0  0  0  0
    3.9445   -5.2107    2.5470 C   0  0  1  0  0  0  0  0  0  0  0  0
    4.6506   -6.6397    2.6288 C   0  0  2  0  0  0  0  0  0  0  0  0
    5.7685   -6.7897    1.5721 C   0  0  0  0  0  0  0  0  0  0  0  0
    6.9556   -7.6666    1.9957 C   0  0  0  0  0  0  0  0  0  0  0  0
    6.7494   -8.5122    3.2792 C   0  0  1  0  0  0  0  0  0  0  0  0
    7.5599   -8.1556    4.6406 C   0  0  1  0  0  0  0  0  0  0  0  0
    8.7837   -9.1010    4.8072 C   0  0  0  0  0  0  0  0  0  0  0  0
    8.1534   -6.7561    4.6774 C   0  0  0  0  0  0  0  0  0  0  0  0
    7.0614   -5.7170    4.8362 C   0  0  0  0  0  0  0  0  0  0  0  0
    6.7084   -8.3146    5.9209 C   0  0  0  0  0  0  0  0  0  0  0  0
    5.8295   -9.3288    5.9410 C   0  0  0  0  0  0  0  0  0  0  0  0
    5.5084  -10.0693    4.6570 C   0  0  0  0  0  0  0  0  0  0  0  0
    5.2883   -9.1398    3.3661 C   0  0  2  0  0  0  0  0  0  0  0  0
    5.2589  -10.2360    2.2461 C   0  0  0  0  0  0  0  0  0  0  0  0
    3.9693   -8.0533    3.1210 C   0  0  2  0  0  0  0  0  0  0  0  0
    3.1374   -8.4624    1.8724 C   0  0  0  0  0  0  0  0  0  0  0  0
    2.8104   -8.0595    4.3503 C   0  0  2  0  0  0  0  0  0  0  0  0
    2.5221   -9.6159    4.7233 C   0  0  1  0  0  0  0  0  0  0  0  0
    2.8459  -10.0752    6.0217 O   0  0  0  0  0  0  0  0  0  0  0  0
    6.4199   -7.0270    6.7823 C   0  0  0  0  0  0  0  0  0  0  0  0
    1.9605  -11.9104    3.0277 H   0  0  0  0  0  0  0  0  0  0  0  0
    0.4366  -12.3199    3.7960 H   0  0  0  0  0  0  0  0  0  0  0  0
    1.9221  -12.3786    4.7290 H   0  0  0  0  0  0  0  0  0  0  0  0
    0.5372  -10.4069    5.2298 H   0  0  0  0  0  0  0  0  0  0  0  0
    0.7964   -9.7639    2.2981 H   0  0  0  0  0  0  0  0  0  0  0  0
   -0.6229  -10.1430    3.1993 H   0  0  0  0  0  0  0  0  0  0  0  0
   -0.0180   -7.6617    2.6856 H   0  0  0  0  0  0  0  0  0  0  0  0
   -0.7804   -8.0838    4.1636 H   0  0  0  0  0  0  0  0  0  0  0  0
    1.2511   -6.5699    3.9077 H   0  0  0  0  0  0  0  0  0  0  0  0
    0.0447   -5.7340    7.2153 H   0  0  0  0  0  0  0  0  0  0  0  0
   -0.8342   -6.1605    5.7534 H   0  0  0  0  0  0  0  0  0  0  0  0
    0.5788   -5.1376    5.6616 H   0  0  0  0  0  0  0  0  0  0  0  0
   -0.0787   -7.9899    7.7589 H   0  0  0  0  0  0  0  0  0  0  0  0
    0.7757   -9.2727    7.0063 H   0  0  0  0  0  0  0  0  0  0  0  0
   -0.6652   -8.6658    6.2472 H   0  0  0  0  0  0  0  0  0  0  0  0
    2.5039   -6.1351    7.2575 H   0  0  0  0  0  0  0  0  0  0  0  0
    2.9213   -8.8734    7.1439 H   0  0  0  0  0  0  0  0  0  0  0  0
    3.2708   -5.0954    5.7449 H   0  0  0  0  0  0  0  0  0  0  0  0
    5.3278   -4.2369    6.9429 H   0  0  0  0  0  0  0  0  0  0  0  0
    4.5779   -2.8117    5.2686 H   0  0  0  0  0  0  0  0  0  0  0  0
    5.5589   -3.3479    1.8184 H   0  0  0  0  0  0  0  0  0  0  0  0
    2.8057   -2.7543    3.7194 H   0  0  0  0  0  0  0  0  0  0  0  0
    4.0428   -1.8608    2.8788 H   0  0  0  0  0  0  0  0  0  0  0  0
    1.8161   -3.3284    1.8483 H   0  0  0  0  0  0  0  0  0  0  0  0
    2.9809   -2.4685    0.8818 H   0  0  0  0  0  0  0  0  0  0  0  0
    2.6996   -6.3381    0.0894 H   0  0  0  0  0  0  0  0  0  0  0  0
    1.8518   -4.8645   -0.2937 H   0  0  0  0  0  0  0  0  0  0  0  0
    1.5189   -5.6815    1.2270 H   0  0  0  0  0  0  0  0  0  0  0  0
    4.7963   -5.2792   -0.4362 H   0  0  0  0  0  0  0  0  0  0  0  0
    5.3866   -3.8301    0.3601 H   0  0  0  0  0  0  0  0  0  0  0  0
    4.0471   -3.7445   -0.7398 H   0  0  0  0  0  0  0  0  0  0  0  0
    2.9489   -5.4043    2.9085 H   0  0  0  0  0  0  0  0  0  0  0  0
    5.2639   -6.4323    3.4411 H   0  0  0  0  0  0  0  0  0  0  0  0
    5.3766   -7.1545    0.6262 H   0  0  0  0  0  0  0  0  0  0  0  0
    6.1990   -5.8122    1.3565 H   0  0  0  0  0  0  0  0  0  0  0  0
    7.1610   -8.3459    1.1627 H   0  0  0  0  0  0  0  0  0  0  0  0
    7.8593   -7.0648    2.0442 H   0  0  0  0  0  0  0  0  0  0  0  0
    7.3596   -9.3594    2.9738 H   0  0  0  0  0  0  0  0  0  0  0  0
    9.4976   -8.9834    3.9920 H   0  0  0  0  0  0  0  0  0  0  0  0
    8.4984  -10.1512    4.8457 H   0  0  0  0  0  0  0  0  0  0  0  0
    9.3156   -8.8981    5.7384 H   0  0  0  0  0  0  0  0  0  0  0  0
    8.8277   -6.6753    5.5331 H   0  0  0  0  0  0  0  0  0  0  0  0
    8.7977   -6.5399    3.8284 H   0  0  0  0  0  0  0  0  0  0  0  0
    6.8505   -5.3434    3.8477 H   0  0  0  0  0  0  0  0  0  0  0  0
    7.5825   -4.8751    5.2935 H   0  0  0  0  0  0  0  0  0  0  0  0
    5.0906   -9.3648    6.7242 H   0  0  0  0  0  0  0  0  0  0  0  0
    6.3966  -10.6764    4.4917 H   0  0  0  0  0  0  0  0  0  0  0  0
    4.8020  -10.8704    4.8332 H   0  0  0  0  0  0  0  0  0  0  0  0
    4.3774  -10.8699    2.3161 H   0  0  0  0  0  0  0  0  0  0  0  0
    6.0893  -10.9399    2.3005 H   0  0  0  0  0  0  0  0  0  0  0  0
    5.2972   -9.8302    1.2361 H   0  0  0  0  0  0  0  0  0  0  0  0
    2.8030   -9.4935    1.8975 H   0  0  0  0  0  0  0  0  0  0  0  0
    3.6683   -8.3598    0.9290 H   0  0  0  0  0  0  0  0  0  0  0  0
    2.2461   -7.8491    1.7857 H   0  0  0  0  0  0  0  0  0  0  0  0
    3.1322  -10.1676    4.0391 H   0  0  0  0  0  0  0  0  0  0  0  0
    2.4494  -10.9294    6.1635 H   0  0  0  0  0  0  0  0  0  0  0  0
    7.3257   -6.6338    7.2450 H   0  0  0  0  0  0  0  0  0  0  0  0
    5.7168   -7.2493    7.5869 H   0  0  0  0  0  0  0  0  0  0  0  0
  1  2  1  0
  1 44  1  0
  1 45  1  0
  1 46  1  0
  2 41  1  0
  2  3  1  0
  2 47  1  1
  3  4  1  0
  3 48  1  0
  3 49  1  0
  4  5  1  0
  4 50  1  0
  4 51  1  0
  5 40  1  0
  5  6  1  0
  5 52  1  6
  6  7  1  0
  6  8  1  0
  6  9  1  0
  7 53  1  0
  7 54  1  0
  7 55  1  0
  8 56  1  0
  8 57  1  0
  8 58  1  0
  9 10  1  0
  9 11  1  0
  9 59  1  1
 10 60  1  0
 40 11  1  1
 11 12  1  6
 11 13  1  0
 12 61  1  0
 13 14  1  0
 14 32  1  6
 14 43  1  0
 14 15  1  0
 15 16  2  3
 15 62  1  0
 16 17  1  0
 16 63  1  0
 17 24  1  0
 17 18  1  6
 17 19  1  0
 18 64  1  0
 19 20  1  0
 19 65  1  0
 19 66  1  0
 20 21  1  0
 20 67  1  0
 20 68  1  0
 21 22  1  0
 21 23  1  0
 21 24  1  0
 22 69  1  0
 22 70  1  0
 22 71  1  0
 23 72  1  0
 23 73  1  0
 23 74  1  0
 24 25  1  0
 24 75  1  1
 25 38  1  0
 25 26  1  0
 25 76  1  1
 26 27  1  0
 26 77  1  0
 26 78  1  0
 27 28  1  0
 27 79  1  0
 27 80  1  0
 28 36  1  0
 28 29  1  0
 28 81  1  6
 29 30  1  1
 29 31  1  0
 29 33  1  0
 30 82  1  0
 30 83  1  0
 30 84  1  0
 31 32  1  0
 31 85  1  0
 31 86  1  0
 32 87  1  0
 32 88  1  0
 33 34  2  0
 33 43  1  0
 34 35  1  0
 34 89  1  0
 35 36  1  0
 35 90  1  0
 35 91  1  0
 36 37  1  6
 36 38  1  0
 37 92  1  0
 37 93  1  0
 37 94  1  0
 38 39  1  6
 38 40  1  0
 39 95  1  0
 39 96  1  0
 39 97  1  0
 40 41  1  0
 41 42  1  0
 41 98  1  6
 42 99  1  0
 43100  1  0
 43101  1  0
M  END
>  <i_m_ct_stereo_status>  (294) 
1

>  <s_m_source_file>  (294) 
/var/tmp/pbs.5076255.sched01/tmprva83imr/861x3d95ot.sdf

>  <i_m_source_file_index>  (294) 
30

>  <i_lp_mmshare_version>  (294) 
48012

>  <i_f3d_flags>  (294) 
0

>  <s_epik_input>  (294) 
W09IXVtDQEhdMVtDQEhdKFtDSDNdKVtDSDJdW0NIMl1bQ0hdKEMoW0NIM10pKFtDSDNdKVtDQEhdMltPSF0pW0NAXTEoW0NAXTIoW09IXSlPW0NAXTM0NSlbQ0BAXTYoW0NIM10pW0NIXShbQ0BIXTdbQ0BdKFtPSF0pKC9bQ0hdPVtDSF1cMylbQ0gyXVtDSDJdQzcoW0NIM10pW0NIM10pW0NIMl1bQ0gyXVtDQEhdOFtDQEBdKFtDSDNdKShbQ0gyXVtDSDJdNClDKFtDSDJdNSk9W0NIXVtDSDJdW0NAQF02OFtDSDNd

>  <s_epik_cmdline>  (294) 
J2VwaWtfcHl0aG9uJywgJy1waHQnLCAnMi4wJywgJy1waCcsICc3LjAnLCAnLXRuJywgJzgnLCAnLW1hJywgJzIwMCcsICctaW1hZScsICc8aW5maWxlLm1hZT4nLCAnLW9tYWUnLCAnPG91dGZpbGUubWFlPic=

>  <r_lp_tautomer_probability>  (294) 
1

>  <r_epik_Ionization_Penalty>  (294) 
8.69048e-07

>  <r_epik_Ionization_Penalty_Charging>  (294) 
0

>  <r_epik_Ionization_Penalty_Neutral>  (294) 
8.69048e-07

>  <r_epik_State_Penalty>  (294) 
-0

>  <r_epik_Charging_Adjusted_Penalty>  (294) 
0

>  <i_epik_Tot_Q>  (294) 
0

>  <i_epik_Tot_abs_Q>  (294) 
0

>  <s_lp_Force_Field>  (294) 
OPLS3e

>  <r_lp_Energy>  (294) 
367.091

>  <b_lp_Chiralities_Consistent>  (294) 
1

>  <s_lp_Variant>  (294) 
82:0-3

>  <s_i_glide_gridfile>  (294) 
pfpi4k_grid

>  <i_i_glide_lignum>  (294) 
30

>  <i_i_glide_rotatable_bonds>  (294) 
4

>  <r_i_docking_score>  (294) 
-2.64706

>  <r_i_glide_ligand_efficiency>  (294) 
-0.0615595

>  <r_i_glide_ligand_efficiency_sa>  (294) 
-0.215668

>  <r_i_glide_ligand_efficiency_ln>  (294) 
-0.555965

>  <r_i_glide_gscore>  (294) 
-2.64706

>  <r_i_glide_lipo>  (294) 
-0.24943

>  <r_i_glide_hbond>  (294) 
0

>  <r_i_glide_metal>  (294) 
-0

>  <r_i_glide_rewards>  (294) 
-0.5

>  <r_i_glide_evdw>  (294) 
-30.7623

>  <r_i_glide_ecoul>  (294) 
-2.39677

>  <r_i_glide_erotb>  (294) 
0

>  <r_i_glide_esite>  (294) 
0

>  <r_i_glide_emodel>  (294) 
-43.9458

>  <r_i_glide_energy>  (294) 
-33.1591

>  <r_i_glide_einternal>  (294) 
0.970022

>  <r_i_glide_intrahb_reward>  (294) 
-0.5

>  <i_i_glide_confnum>  (294) 
2

>  <i_i_glide_posenum>  (294) 
3

>  <r_i_glide_eff_state_penalty>  (294) 
0

>  <ligand_id>  (294) 
82

>  <original_smiles>  (294) 
CC1CCC2C(C)(C)C(O)C3(O)OC45C=CC6(O)CCC(C)(C)C6C6CCC7C(C)(CC4)C(=CCC7(C)C6(C)C23C1O)C5

>  <smiles>  (294) 
[H]OC1([H])C2(O[H])OC34C([H])=C([H])C5(O[H])C([H])([H])C([H])([H])C(C([H])([H])[H])(C([H])([H])[H])C5([H])C5([H])C([H])([H])C([H])([H])C6([H])C(C([H])([H])[H])(C(=C([H])C([H])([H])C6(C([H])([H])[H])C5(C([H])([H])[H])C25C([H])(O[H])C([H])(C([H])([H])[H])C([H])([H])C([H])([H])C5([H])C1(C([H])([H])[H])C([H])([H])[H])C3([H])[H])C([H])([H])C4([H])[H]

$$$$
82:3:0
     RDKit          3D

101108  0  0  1  0  0  0  0  0999 V2000
    0.6660   -6.3821    6.4357 C   0  0  0  0  0  0  0  0  0  0  0  0
    0.2130   -7.2743    5.2613 C   0  0  2  0  0  0  0  0  0  0  0  0
   -0.0661   -8.6911    5.7009 C   0  0  0  0  0  0  0  0  0  0  0  0
    1.2467   -9.3733    5.9711 C   0  0  0  0  0  0  0  0  0  0  0  0
    2.2957   -9.2156    4.8444 C   0  0  1  0  0  0  0  0  0  0  0  0
    2.0949  -10.2323    3.6085 C   0  0  0  0  0  0  0  0  0  0  0  0
    2.6562  -11.6330    4.0024 C   0  0  0  0  0  0  0  0  0  0  0  0
    0.6381  -10.6197    3.2003 C   0  0  0  0  0  0  0  0  0  0  0  0
    2.9348   -9.6418    2.3910 C   0  0  1  0  0  0  0  0  0  0  0  0
    2.1682   -9.0554    1.3714 O   0  0  0  0  0  0  0  0  0  0  0  0
    3.8461   -8.6107    3.0709 C   0  0  1  0  0  0  0  0  0  0  0  0
    4.6525   -9.5132    3.7698 O   0  0  0  0  0  0  0  0  0  0  0  0
    4.8321   -7.8698    2.0700 O   0  0  0  0  0  0  0  0  0  0  0  0
    6.2645   -7.0644    2.0029 C   0  0  2  0  0  0  0  0  0  0  0  0
    6.0297   -5.7678    1.1265 C   0  0  0  0  0  0  0  0  0  0  0  0
    4.7943   -5.2592    0.8681 C   0  0  0  0  0  0  0  0  0  0  0  0
    4.0342   -4.0039    1.5063 C   0  0  2  0  0  0  0  0  0  0  0  0
    2.7240   -4.1083    0.9715 O   0  0  0  0  0  0  0  0  0  0  0  0
    4.4954   -2.6500    0.9551 C   0  0  0  0  0  0  0  0  0  0  0  0
    3.7287   -1.5920    1.7884 C   0  0  0  0  0  0  0  0  0  0  0  0
    3.2909   -2.2197    3.1540 C   0  0  0  0  0  0  0  0  0  0  0  0
    3.8020   -1.3208    4.3021 C   0  0  0  0  0  0  0  0  0  0  0  0
    1.7483   -2.2613    3.2747 C   0  0  0  0  0  0  0  0  0  0  0  0
    3.9448   -3.6434    3.1432 C   0  0  1  0  0  0  0  0  0  0  0  0
    3.6422   -4.6516    4.5754 C   0  0  2  0  0  0  0  0  0  0  0  0
    4.9055   -4.3570    5.2970 C   0  0  0  0  0  0  0  0  0  0  0  0
    5.9183   -5.2436    4.5138 C   0  0  0  0  0  0  0  0  0  0  0  0
    5.8046   -6.9561    4.6920 C   0  0  1  0  0  0  0  0  0  0  0  0
    6.9489   -8.1544    4.4221 C   0  0  1  0  0  0  0  0  0  0  0  0
    7.2338   -9.2508    5.5064 C   0  0  0  0  0  0  0  0  0  0  0  0
    7.2272   -9.0133    3.0359 C   0  0  0  0  0  0  0  0  0  0  0  0
    6.9748   -8.3452    1.6252 C   0  0  0  0  0  0  0  0  0  0  0  0
    7.9115   -7.1237    4.4578 C   0  0  0  0  0  0  0  0  0  0  0  0
    7.9518   -6.5204    5.7166 C   0  0  0  0  0  0  0  0  0  0  0  0
    6.5160   -6.4901    6.5711 C   0  0  0  0  0  0  0  0  0  0  0  0
    4.9921   -6.9497    5.8370 C   0  0  2  0  0  0  0  0  0  0  0  0
    4.5656   -8.1339    6.7232 C   0  0  0  0  0  0  0  0  0  0  0  0
    3.5768   -6.3802    4.8420 C   0  0  1  0  0  0  0  0  0  0  0  0
    3.3193   -6.0961    3.2839 C   0  0  0  0  0  0  0  0  0  0  0  0
    2.7597   -7.7750    4.2371 C   0  0  2  0  0  0  0  0  0  0  0  0
    1.1780   -7.2382    4.0442 C   0  0  1  0  0  0  0  0  0  0  0  0
    0.4567   -7.5096    2.8657 O   0  0  0  0  0  0  0  0  0  0  0  0
    7.6709   -6.5511    2.9677 C   0  0  0  0  0  0  0  0  0  0  0  0
    1.6307   -6.6925    6.8363 H   0  0  0  0  0  0  0  0  0  0  0  0
   -0.0550   -6.4202    7.2516 H   0  0  0  0  0  0  0  0  0  0  0  0
    0.7584   -5.3395    6.1279 H   0  0  0  0  0  0  0  0  0  0  0  0
   -0.7443   -6.8623    4.9372 H   0  0  0  0  0  0  0  0  0  0  0  0
   -0.6425   -8.7276    6.6174 H   0  0  0  0  0  0  0  0  0  0  0  0
   -0.6558   -9.2114    4.9509 H   0  0  0  0  0  0  0  0  0  0  0  0
    1.6240   -8.9973    6.9199 H   0  0  0  0  0  0  0  0  0  0  0  0
    1.0559  -10.4301    6.1614 H   0  0  0  0  0  0  0  0  0  0  0  0
    3.0983   -9.6571    5.4088 H   0  0  0  0  0  0  0  0  0  0  0  0
    2.6407  -12.3089    3.1468 H   0  0  0  0  0  0  0  0  0  0  0  0
    2.0651  -12.0961    4.7946 H   0  0  0  0  0  0  0  0  0  0  0  0
    3.6799  -11.6304    4.3721 H   0  0  0  0  0  0  0  0  0  0  0  0
    0.6325  -11.3453    2.3893 H   0  0  0  0  0  0  0  0  0  0  0  0
   -0.0069   -9.8204    2.8612 H   0  0  0  0  0  0  0  0  0  0  0  0
    0.1208  -11.1142    4.0224 H   0  0  0  0  0  0  0  0  0  0  0  0
    3.5333  -10.4144    1.9024 H   0  0  0  0  0  0  0  0  0  0  0  0
    1.6104   -9.7152    0.9796 H   0  0  0  0  0  0  0  0  0  0  0  0
    4.9204  -10.1883    3.1617 H   0  0  0  0  0  0  0  0  0  0  0  0
    6.7479   -4.9932    1.3411 H   0  0  0  0  0  0  0  0  0  0  0  0
    4.0676   -6.0401    0.6896 H   0  0  0  0  0  0  0  0  0  0  0  0
    2.7911   -4.0649    0.0279 H   0  0  0  0  0  0  0  0  0  0  0  0
    5.5687   -2.5375    1.1217 H   0  0  0  0  0  0  0  0  0  0  0  0
    4.3301   -2.5306   -0.1179 H   0  0  0  0  0  0  0  0  0  0  0  0
    4.3569   -0.7097    1.9238 H   0  0  0  0  0  0  0  0  0  0  0  0
    2.8570   -1.2438    1.2304 H   0  0  0  0  0  0  0  0  0  0  0  0
    3.5157   -1.7173    5.2772 H   0  0  0  0  0  0  0  0  0  0  0  0
    3.3804   -0.3164    4.2321 H   0  0  0  0  0  0  0  0  0  0  0  0
    4.8874   -1.2110    4.2862 H   0  0  0  0  0  0  0  0  0  0  0  0
    1.4299   -2.6838    4.2270 H   0  0  0  0  0  0  0  0  0  0  0  0
    1.2742   -2.8469    2.4911 H   0  0  0  0  0  0  0  0  0  0  0  0
    1.3220   -1.2583    3.2128 H   0  0  0  0  0  0  0  0  0  0  0  0
    4.9668   -3.2896    3.2355 H   0  0  0  0  0  0  0  0  0  0  0  0
    2.8230   -4.2024    5.1369 H   0  0  0  0  0  0  0  0  0  0  0  0
    5.2142   -3.3145    5.2720 H   0  0  0  0  0  0  0  0  0  0  0  0
    4.7740   -4.5518    6.3579 H   0  0  0  0  0  0  0  0  0  0  0  0
    5.9352   -4.9777    3.4815 H   0  0  0  0  0  0  0  0  0  0  0  0
    6.8298   -4.7322    4.8070 H   0  0  0  0  0  0  0  0  0  0  0  0
    5.2526   -7.2700    3.9901 H   0  0  0  0  0  0  0  0  0  0  0  0
    6.5661  -10.1016    5.3929 H   0  0  0  0  0  0  0  0  0  0  0  0
    7.1661   -8.9463    6.5429 H   0  0  0  0  0  0  0  0  0  0  0  0
    8.2434   -9.6456    5.3884 H   0  0  0  0  0  0  0  0  0  0  0  0
    8.2902   -9.2608    3.0537 H   0  0  0  0  0  0  0  0  0  0  0  0
    6.8000  -10.0135    3.0385 H   0  0  0  0  0  0  0  0  0  0  0  0
    6.3924   -8.9921    0.9673 H   0  0  0  0  0  0  0  0  0  0  0  0
    7.9057   -8.1778    1.0783 H   0  0  0  0  0  0  0  0  0  0  0  0
    8.4962   -5.5954    5.8196 H   0  0  0  0  0  0  0  0  0  0  0  0
    6.7405   -7.1099    7.4335 H   0  0  0  0  0  0  0  0  0  0  0  0
    6.4615   -5.5228    7.0643 H   0  0  0  0  0  0  0  0  0  0  0  0
    3.5030   -8.0706    6.9068 H   0  0  0  0  0  0  0  0  0  0  0  0
    4.9717   -8.0858    7.7309 H   0  0  0  0  0  0  0  0  0  0  0  0
    4.8247   -9.1105    6.3348 H   0  0  0  0  0  0  0  0  0  0  0  0
    2.9153   -6.6724    2.4402 H   0  0  0  0  0  0  0  0  0  0  0  0
    4.2628   -5.9345    2.9055 H   0  0  0  0  0  0  0  0  0  0  0  0
    2.5178   -5.4112    2.9716 H   0  0  0  0  0  0  0  0  0  0  0  0
    1.0961   -6.1584    4.0065 H   0  0  0  0  0  0  0  0  0  0  0  0
    0.4362   -8.4494    2.7472 H   0  0  0  0  0  0  0  0  0  0  0  0
    8.5961   -6.8134    2.4484 H   0  0  0  0  0  0  0  0  0  0  0  0
    7.8549   -5.4779    2.9857 H   0  0  0  0  0  0  0  0  0  0  0  0
  1  2  1  0
  1 44  1  0
  1 45  1  0
  1 46  1  0
  2 41  1  0
  2  3  1  0
  2 47  1  6
  3  4  1  0
  3 48  1  0
  3 49  1  0
  4  5  1  0
  4 50  1  0
  4 51  1  0
  5 40  1  0
  5  6  1  0
  5 52  1  1
  6  7  1  0
  6  8  1  0
  6  9  1  0
  7 53  1  0
  7 54  1  0
  7 55  1  0
  8 56  1  0
  8 57  1  0
  8 58  1  0
  9 10  1  0
  9 11  1  0
  9 59  1  6
 10 60  1  0
 40 11  1  6
 11 12  1  1
 11 13  1  0
 12 61  1  0
 13 14  1  0
 14 32  1  6
 14 43  1  0
 14 15  1  0
 15 16  2  3
 15 62  1  0
 16 17  1  0
 16 63  1  0
 17 24  1  0
 17 18  1  6
 17 19  1  0
 18 64  1  0
 19 20  1  0
 19 65  1  0
 19 66  1  0
 20 21  1  0
 20 67  1  0
 20 68  1  0
 21 22  1  0
 21 23  1  0
 21 24  1  0
 22 69  1  0
 22 70  1  0
 22 71  1  0
 23 72  1  0
 23 73  1  0
 23 74  1  0
 24 25  1  0
 24 75  1  1
 25 38  1  0
 25 26  1  0
 25 76  1  1
 26 27  1  0
 26 77  1  0
 26 78  1  0
 27 28  1  0
 27 79  1  0
 27 80  1  0
 28 36  1  0
 28 29  1  0
 28 81  1  6
 29 30  1  1
 29 31  1  0
 29 33  1  0
 30 82  1  0
 30 83  1  0
 30 84  1  0
 31 32  1  0
 31 85  1  0
 31 86  1  0
 32 87  1  0
 32 88  1  0
 33 34  2  0
 33 43  1  0
 34 35  1  0
 34 89  1  0
 35 36  1  0
 35 90  1  0
 35 91  1  0
 36 37  1  1
 36 38  1  0
 37 92  1  0
 37 93  1  0
 37 94  1  0
 38 39  1  6
 38 40  1  0
 39 95  1  0
 39 96  1  0
 39 97  1  0
 40 41  1  0
 41 42  1  0
 41 98  1  6
 42 99  1  0
 43100  1  0
 43101  1  0
M  END
>  <i_m_ct_stereo_status>  (295) 
1

>  <s_m_source_file>  (295) 
/var/tmp/pbs.5076255.sched01/tmprva83imr/861x3d95ot.sdf

>  <i_m_source_file_index>  (295) 
31

>  <i_lp_mmshare_version>  (295) 
48012

>  <i_f3d_flags>  (295) 
0

>  <s_epik_input>  (295) 
W09IXVtDQEhdMVtDQEhdKFtDSDNdKVtDSDJdW0NIMl1bQ0hdKEMoW0NIM10pKFtDSDNdKVtDQEhdMltPSF0pW0NAXTEoW0NAXTIoW09IXSlPW0NAXTM0NSlbQ0BAXTYoW0NIM10pW0NIXShbQ0BIXTdbQ0BdKFtPSF0pKC9bQ0hdPVtDSF1cMylbQ0gyXVtDSDJdQzcoW0NIM10pW0NIM10pW0NIMl1bQ0gyXVtDQEhdOFtDQEBdKFtDSDNdKShbQ0gyXVtDSDJdNClDKFtDSDJdNSk9W0NIXVtDSDJdW0NAQF02OFtDSDNd

>  <s_epik_cmdline>  (295) 
J2VwaWtfcHl0aG9uJywgJy1waHQnLCAnMi4wJywgJy1waCcsICc3LjAnLCAnLXRuJywgJzgnLCAnLW1hJywgJzIwMCcsICctaW1hZScsICc8aW5maWxlLm1hZT4nLCAnLW9tYWUnLCAnPG91dGZpbGUubWFlPic=

>  <r_lp_tautomer_probability>  (295) 
1

>  <r_epik_Ionization_Penalty>  (295) 
8.69048e-07

>  <r_epik_Ionization_Penalty_Charging>  (295) 
0

>  <r_epik_Ionization_Penalty_Neutral>  (295) 
8.69048e-07

>  <r_epik_State_Penalty>  (295) 
-0

>  <r_epik_Charging_Adjusted_Penalty>  (295) 
0

>  <i_epik_Tot_Q>  (295) 
0

>  <i_epik_Tot_abs_Q>  (295) 
0

>  <s_lp_Force_Field>  (295) 
OPLS3e

>  <r_lp_Energy>  (295) 
979.892

>  <b_lp_Chiralities_Consistent>  (295) 
1

>  <s_lp_Variant>  (295) 
82:0-4

>  <s_i_glide_gridfile>  (295) 
pfpi4k_grid

>  <i_i_glide_lignum>  (295) 
31

>  <i_i_glide_rotatable_bonds>  (295) 
4

>  <r_i_docking_score>  (295) 
-2.82882

>  <r_i_glide_ligand_efficiency>  (295) 
-0.0657865

>  <r_i_glide_ligand_efficiency_sa>  (295) 
-0.230476

>  <r_i_glide_ligand_efficiency_ln>  (295) 
-0.59414

>  <r_i_glide_gscore>  (295) 
-2.82882

>  <r_i_glide_lipo>  (295) 
-0.53563

>  <r_i_glide_hbond>  (295) 
0

>  <r_i_glide_metal>  (295) 
-0

>  <r_i_glide_rewards>  (295) 
0

>  <r_i_glide_evdw>  (295) 
-32.8598

>  <r_i_glide_ecoul>  (295) 
-4.30063

>  <r_i_glide_erotb>  (295) 
0

>  <r_i_glide_esite>  (295) 
-0.00510461

>  <r_i_glide_emodel>  (295) 
-43.9284

>  <r_i_glide_energy>  (295) 
-37.1604

>  <r_i_glide_einternal>  (295) 
0.660214

>  <r_i_glide_intrahb_reward>  (295) 
-0

>  <i_i_glide_confnum>  (295) 
1

>  <i_i_glide_posenum>  (295) 
9

>  <r_i_glide_eff_state_penalty>  (295) 
0

>  <ligand_id>  (295) 
82

>  <original_smiles>  (295) 
CC1CCC2C(C)(C)C(O)C3(O)OC45C=CC6(O)CCC(C)(C)C6C6CCC7C(C)(CC4)C(=CCC7(C)C6(C)C23C1O)C5

>  <smiles>  (295) 
[H]OC1([H])C2(O[H])OC34C([H])=C([H])C5(O[H])C([H])([H])C([H])([H])C(C([H])([H])[H])(C([H])([H])[H])C5([H])C5([H])C([H])([H])C([H])([H])C6([H])C(C([H])([H])[H])(C(=C([H])C([H])([H])C6(C([H])([H])[H])C5(C([H])([H])[H])C25C([H])(O[H])C([H])(C([H])([H])[H])C([H])([H])C([H])([H])C5([H])C1(C([H])([H])[H])C([H])([H])[H])C3([H])[H])C([H])([H])C4([H])[H]

$$$$
82:3:1
     RDKit          3D

101108  0  0  1  0  0  0  0  0999 V2000
    7.5927   -7.8443    2.7075 C   0  0  0  0  0  0  0  0  0  0  0  0
    6.9605   -7.2726    1.4288 C   0  0  2  0  0  0  0  0  0  0  0  0
    7.7249   -6.0820    0.9037 C   0  0  0  0  0  0  0  0  0  0  0  0
    7.3987   -4.9157    1.7909 C   0  0  0  0  0  0  0  0  0  0  0  0
    5.8880   -4.6976    2.0944 C   0  0  1  0  0  0  0  0  0  0  0  0
    5.0865   -3.8971    0.9415 C   0  0  0  0  0  0  0  0  0  0  0  0
    5.3787   -2.3671    1.0723 C   0  0  0  0  0  0  0  0  0  0  0  0
    5.5014   -4.1304   -0.5411 C   0  0  0  0  0  0  0  0  0  0  0  0
    3.5343   -4.1758    1.1754 C   0  0  1  0  0  0  0  0  0  0  0  0
    2.9303   -5.0537    0.2484 O   0  0  0  0  0  0  0  0  0  0  0  0
    3.5040   -4.7309    2.6117 C   0  0  1  0  0  0  0  0  0  0  0  0
    3.8554   -3.5497    3.2743 O   0  0  0  0  0  0  0  0  0  0  0  0
    2.0441   -5.0742    3.1305 O   0  0  0  0  0  0  0  0  0  0  0  0
    1.1525   -5.2554    4.5005 C   0  0  2  0  0  0  0  0  0  0  0  0
    0.3083   -6.5833    4.3345 C   0  0  0  0  0  0  0  0  0  0  0  0
    0.6141   -7.5515    3.4309 C   0  0  0  0  0  0  0  0  0  0  0  0
    1.3397   -8.9616    3.6268 C   0  0  2  0  0  0  0  0  0  0  0  0
    1.5562   -9.4032    2.3018 O   0  0  0  0  0  0  0  0  0  0  0  0
    0.4273  -10.0561    4.1754 C   0  0  0  0  0  0  0  0  0  0  0  0
    1.3416  -11.2878    4.3916 C   0  0  0  0  0  0  0  0  0  0  0  0
    2.8263  -10.8079    4.5280 C   0  0  0  0  0  0  0  0  0  0  0  0
    3.4286  -11.3663    5.8334 C   0  0  0  0  0  0  0  0  0  0  0  0
    3.6926  -11.3697    3.3782 C   0  0  0  0  0  0  0  0  0  0  0  0
    2.7231   -9.2459    4.5291 C   0  0  1  0  0  0  0  0  0  0  0  0
    4.2569   -8.3634    4.6691 C   0  0  2  0  0  0  0  0  0  0  0  0
    4.2014   -8.1017    6.1304 C   0  0  0  0  0  0  0  0  0  0  0  0
    3.1688   -6.9332    6.1933 C   0  0  0  0  0  0  0  0  0  0  0  0
    3.6562   -5.3949    5.5739 C   0  0  1  0  0  0  0  0  0  0  0  0
    3.0585   -3.8566    5.8889 C   0  0  1  0  0  0  0  0  0  0  0  0
    4.0252   -2.6823    6.2697 C   0  0  0  0  0  0  0  0  0  0  0  0
    1.8739   -3.0291    5.0816 C   0  0  0  0  0  0  0  0  0  0  0  0
    0.6892   -3.8180    4.3980 C   0  0  0  0  0  0  0  0  0  0  0  0
    2.4499   -4.4245    7.0273 C   0  0  0  0  0  0  0  0  0  0  0  0
    3.4094   -4.8972    7.9250 C   0  0  0  0  0  0  0  0  0  0  0  0
    4.8397   -5.4454    7.2630 C   0  0  0  0  0  0  0  0  0  0  0  0
    5.0356   -5.6596    5.5372 C   0  0  2  0  0  0  0  0  0  0  0  0
    6.1934   -4.6954    5.2394 C   0  0  0  0  0  0  0  0  0  0  0  0
    4.7940   -6.7879    4.1323 C   0  0  1  0  0  0  0  0  0  0  0  0
    3.5433   -7.2318    3.2320 C   0  0  0  0  0  0  0  0  0  0  0  0
    4.9034   -5.8598    2.6807 C   0  0  2  0  0  0  0  0  0  0  0  0
    5.4333   -6.9797    1.5578 C   0  0  1  0  0  0  0  0  0  0  0  0
    4.7732   -7.0615    0.3236 O   0  0  0  0  0  0  0  0  0  0  0  0
    1.2022   -5.1231    6.2755 C   0  0  0  0  0  0  0  0  0  0  0  0
    7.5125   -7.1589    3.5506 H   0  0  0  0  0  0  0  0  0  0  0  0
    8.6496   -8.0518    2.5395 H   0  0  0  0  0  0  0  0  0  0  0  0
    7.1149   -8.7855    2.9845 H   0  0  0  0  0  0  0  0  0  0  0  0
    7.1063   -8.0797    0.7153 H   0  0  0  0  0  0  0  0  0  0  0  0
    8.7988   -6.2704    0.8865 H   0  0  0  0  0  0  0  0  0  0  0  0
    7.4460   -5.8586   -0.1139 H   0  0  0  0  0  0  0  0  0  0  0  0
    7.9547   -5.0667    2.7139 H   0  0  0  0  0  0  0  0  0  0  0  0
    7.8275   -4.0071    1.3642 H   0  0  0  0  0  0  0  0  0  0  0  0
    6.0461   -3.9525    2.8533 H   0  0  0  0  0  0  0  0  0  0  0  0
    4.7750   -1.7854    0.3728 H   0  0  0  0  0  0  0  0  0  0  0  0
    6.4241   -2.1414    0.8606 H   0  0  0  0  0  0  0  0  0  0  0  0
    5.1882   -1.9524    2.0610 H   0  0  0  0  0  0  0  0  0  0  0  0
    4.9020   -3.5088   -1.2097 H   0  0  0  0  0  0  0  0  0  0  0  0
    5.4045   -5.1407   -0.9177 H   0  0  0  0  0  0  0  0  0  0  0  0
    6.5386   -3.8374   -0.7074 H   0  0  0  0  0  0  0  0  0  0  0  0
    2.9497   -3.2547    1.1140 H   0  0  0  0  0  0  0  0  0  0  0  0
    3.0631   -4.7391   -0.6343 H   0  0  0  0  0  0  0  0  0  0  0  0
    3.2409   -2.8798    3.0145 H   0  0  0  0  0  0  0  0  0  0  0  0
    0.0165   -7.0054    5.2832 H   0  0  0  0  0  0  0  0  0  0  0  0
    0.9487   -7.1428    2.4876 H   0  0  0  0  0  0  0  0  0  0  0  0
    1.7040  -10.3363    2.3310 H   0  0  0  0  0  0  0  0  0  0  0  0
    0.0180   -9.7391    5.1371 H   0  0  0  0  0  0  0  0  0  0  0  0
   -0.4294  -10.2727    3.5340 H   0  0  0  0  0  0  0  0  0  0  0  0
    1.0030  -11.8396    5.2733 H   0  0  0  0  0  0  0  0  0  0  0  0
    1.2348  -11.9832    3.5561 H   0  0  0  0  0  0  0  0  0  0  0  0
    4.4685  -11.0676    5.9692 H   0  0  0  0  0  0  0  0  0  0  0  0
    3.4003  -12.4582    5.8470 H   0  0  0  0  0  0  0  0  0  0  0  0
    2.8720  -11.0315    6.7085 H   0  0  0  0  0  0  0  0  0  0  0  0
    4.7335  -11.0625    3.4771 H   0  0  0  0  0  0  0  0  0  0  0  0
    3.3628  -11.0602    2.3894 H   0  0  0  0  0  0  0  0  0  0  0  0
    3.6824  -12.4619    3.3845 H   0  0  0  0  0  0  0  0  0  0  0  0
    2.2411   -9.1720    5.4987 H   0  0  0  0  0  0  0  0  0  0  0  0
    5.0686   -9.0674    4.4818 H   0  0  0  0  0  0  0  0  0  0  0  0
    3.8620   -8.9419    6.7314 H   0  0  0  0  0  0  0  0  0  0  0  0
    5.2061   -7.9190    6.5019 H   0  0  0  0  0  0  0  0  0  0  0  0
    2.2408   -7.2263    5.7562 H   0  0  0  0  0  0  0  0  0  0  0  0
    2.8527   -7.0285    7.2301 H   0  0  0  0  0  0  0  0  0  0  0  0
    3.3815   -5.3585    4.6669 H   0  0  0  0  0  0  0  0  0  0  0  0
    4.3944   -2.1704    5.3844 H   0  0  0  0  0  0  0  0  0  0  0  0
    4.8949   -2.9353    6.8622 H   0  0  0  0  0  0  0  0  0  0  0  0
    3.4915   -1.9293    6.8502 H   0  0  0  0  0  0  0  0  0  0  0  0
    1.4001   -2.3774    5.8200 H   0  0  0  0  0  0  0  0  0  0  0  0
    2.2514   -2.2823    4.3866 H   0  0  0  0  0  0  0  0  0  0  0  0
    0.5267   -3.4848    3.3723 H   0  0  0  0  0  0  0  0  0  0  0  0
   -0.2649   -3.6371    4.8959 H   0  0  0  0  0  0  0  0  0  0  0  0
    3.0853   -5.5290    8.7360 H   0  0  0  0  0  0  0  0  0  0  0  0
    5.5682   -4.7434    7.6581 H   0  0  0  0  0  0  0  0  0  0  0  0
    5.1301   -6.3309    7.8235 H   0  0  0  0  0  0  0  0  0  0  0  0
    6.8580   -5.1647    4.5272 H   0  0  0  0  0  0  0  0  0  0  0  0
    6.8504   -4.5254    6.0896 H   0  0  0  0  0  0  0  0  0  0  0  0
    5.8868   -3.7226    4.8805 H   0  0  0  0  0  0  0  0  0  0  0  0
    3.1109   -6.9093    2.2756 H   0  0  0  0  0  0  0  0  0  0  0  0
    2.7279   -7.0290    3.8249 H   0  0  0  0  0  0  0  0  0  0  0  0
    3.5643   -8.1904    2.6945 H   0  0  0  0  0  0  0  0  0  0  0  0
    5.2685   -8.0078    1.8570 H   0  0  0  0  0  0  0  0  0  0  0  0
    4.8643   -6.2349   -0.1219 H   0  0  0  0  0  0  0  0  0  0  0  0
    0.3433   -4.5500    6.6319 H   0  0  0  0  0  0  0  0  0  0  0  0
    0.9542   -6.0377    6.8139 H   0  0  0  0  0  0  0  0  0  0  0  0
  1  2  1  0
  1 44  1  0
  1 45  1  0
  1 46  1  0
  2 41  1  0
  2  3  1  0
  2 47  1  6
  3  4  1  0
  3 48  1  0
  3 49  1  0
  4  5  1  0
  4 50  1  0
  4 51  1  0
  5 40  1  0
  5  6  1  0
  5 52  1  1
  6  7  1  0
  6  8  1  0
  6  9  1  0
  7 53  1  0
  7 54  1  0
  7 55  1  0
  8 56  1  0
  8 57  1  0
  8 58  1  0
  9 10  1  0
  9 11  1  0
  9 59  1  1
 10 60  1  0
 40 11  1  6
 11 12  1  1
 11 13  1  0
 12 61  1  0
 13 14  1  0
 14 32  1  6
 14 43  1  0
 14 15  1  0
 15 16  2  3
 15 62  1  0
 16 17  1  0
 16 63  1  0
 17 24  1  0
 17 18  1  6
 17 19  1  0
 18 64  1  0
 19 20  1  0
 19 65  1  0
 19 66  1  0
 20 21  1  0
 20 67  1  0
 20 68  1  0
 21 22  1  0
 21 23  1  0
 21 24  1  0
 22 69  1  0
 22 70  1  0
 22 71  1  0
 23 72  1  0
 23 73  1  0
 23 74  1  0
 24 25  1  0
 24 75  1  1
 25 38  1  0
 25 26  1  0
 25 76  1  1
 26 27  1  0
 26 77  1  0
 26 78  1  0
 27 28  1  0
 27 79  1  0
 27 80  1  0
 28 36  1  0
 28 29  1  0
 28 81  1  6
 29 30  1  1
 29 31  1  0
 29 33  1  0
 30 82  1  0
 30 83  1  0
 30 84  1  0
 31 32  1  0
 31 85  1  0
 31 86  1  0
 32 87  1  0
 32 88  1  0
 33 34  2  0
 33 43  1  0
 34 35  1  0
 34 89  1  0
 35 36  1  0
 35 90  1  0
 35 91  1  0
 36 37  1  6
 36 38  1  0
 37 92  1  0
 37 93  1  0
 37 94  1  0
 38 39  1  1
 38 40  1  0
 39 95  1  0
 39 96  1  0
 39 97  1  0
 40 41  1  0
 41 42  1  0
 41 98  1  1
 42 99  1  0
 43100  1  0
 43101  1  0
M  END
>  <i_m_ct_stereo_status>  (296) 
1

>  <s_m_source_file>  (296) 
/var/tmp/pbs.5076255.sched01/tmprva83imr/861x3d95ot.sdf

>  <i_m_source_file_index>  (296) 
31

>  <i_lp_mmshare_version>  (296) 
48012

>  <i_f3d_flags>  (296) 
0

>  <s_epik_input>  (296) 
W09IXVtDQEhdMVtDQEhdKFtDSDNdKVtDSDJdW0NIMl1bQ0hdKEMoW0NIM10pKFtDSDNdKVtDQEhdMltPSF0pW0NAXTEoW0NAXTIoW09IXSlPW0NAXTM0NSlbQ0BAXTYoW0NIM10pW0NIXShbQ0BIXTdbQ0BdKFtPSF0pKC9bQ0hdPVtDSF1cMylbQ0gyXVtDSDJdQzcoW0NIM10pW0NIM10pW0NIMl1bQ0gyXVtDQEhdOFtDQEBdKFtDSDNdKShbQ0gyXVtDSDJdNClDKFtDSDJdNSk9W0NIXVtDSDJdW0NAQF02OFtDSDNd

>  <s_epik_cmdline>  (296) 
J2VwaWtfcHl0aG9uJywgJy1waHQnLCAnMi4wJywgJy1waCcsICc3LjAnLCAnLXRuJywgJzgnLCAnLW1hJywgJzIwMCcsICctaW1hZScsICc8aW5maWxlLm1hZT4nLCAnLW9tYWUnLCAnPG91dGZpbGUubWFlPic=

>  <r_lp_tautomer_probability>  (296) 
1

>  <r_epik_Ionization_Penalty>  (296) 
8.69048e-07

>  <r_epik_Ionization_Penalty_Charging>  (296) 
0

>  <r_epik_Ionization_Penalty_Neutral>  (296) 
8.69048e-07

>  <r_epik_State_Penalty>  (296) 
-0

>  <r_epik_Charging_Adjusted_Penalty>  (296) 
0

>  <i_epik_Tot_Q>  (296) 
0

>  <i_epik_Tot_abs_Q>  (296) 
0

>  <s_lp_Force_Field>  (296) 
OPLS3e

>  <r_lp_Energy>  (296) 
979.892

>  <b_lp_Chiralities_Consistent>  (296) 
1

>  <s_lp_Variant>  (296) 
82:0-4

>  <s_i_glide_gridfile>  (296) 
pfpi4k_grid

>  <i_i_glide_lignum>  (296) 
31

>  <i_i_glide_rotatable_bonds>  (296) 
4

>  <r_i_docking_score>  (296) 
-2.42327

>  <r_i_glide_ligand_efficiency>  (296) 
-0.0563552

>  <r_i_glide_ligand_efficiency_sa>  (296) 
-0.197435

>  <r_i_glide_ligand_efficiency_ln>  (296) 
-0.508963

>  <r_i_glide_gscore>  (296) 
-2.42327

>  <r_i_glide_lipo>  (296) 
-0.529007

>  <r_i_glide_hbond>  (296) 
0

>  <r_i_glide_metal>  (296) 
-0

>  <r_i_glide_rewards>  (296) 
0

>  <r_i_glide_evdw>  (296) 
-27.8836

>  <r_i_glide_ecoul>  (296) 
-3.33392

>  <r_i_glide_erotb>  (296) 
0

>  <r_i_glide_esite>  (296) 
0

>  <r_i_glide_emodel>  (296) 
-36.9576

>  <r_i_glide_energy>  (296) 
-31.2175

>  <r_i_glide_einternal>  (296) 
0.740582

>  <r_i_glide_intrahb_reward>  (296) 
-0

>  <i_i_glide_confnum>  (296) 
1

>  <i_i_glide_posenum>  (296) 
33

>  <r_i_glide_eff_state_penalty>  (296) 
0

>  <ligand_id>  (296) 
82

>  <original_smiles>  (296) 
CC1CCC2C(C)(C)C(O)C3(O)OC45C=CC6(O)CCC(C)(C)C6C6CCC7C(C)(CC4)C(=CCC7(C)C6(C)C23C1O)C5

>  <smiles>  (296) 
[H]OC1([H])C2(O[H])OC34C([H])=C([H])C5(O[H])C([H])([H])C([H])([H])C(C([H])([H])[H])(C([H])([H])[H])C5([H])C5([H])C([H])([H])C([H])([H])C6([H])C(C([H])([H])[H])(C(=C([H])C([H])([H])C6(C([H])([H])[H])C5(C([H])([H])[H])C25C([H])(O[H])C([H])(C([H])([H])[H])C([H])([H])C([H])([H])C5([H])C1(C([H])([H])[H])C([H])([H])[H])C3([H])[H])C([H])([H])C4([H])[H]

$$$$
82:3:2
     RDKit          3D

101108  0  0  1  0  0  0  0  0999 V2000
    5.9046   -6.1612    1.1287 C   0  0  0  0  0  0  0  0  0  0  0  0
    5.0589   -4.9995    0.5569 C   0  0  2  0  0  0  0  0  0  0  0  0
    5.8777   -3.7511    0.3248 C   0  0  0  0  0  0  0  0  0  0  0  0
    6.1687   -3.1588    1.6802 C   0  0  0  0  0  0  0  0  0  0  0  0
    4.9441   -3.0087    2.6298 C   0  0  1  0  0  0  0  0  0  0  0  0
    4.0470   -1.6947    2.3392 C   0  0  0  0  0  0  0  0  0  0  0  0
    4.7286   -0.4419    2.9713 C   0  0  0  0  0  0  0  0  0  0  0  0
    3.9025   -1.2143    0.8628 C   0  0  0  0  0  0  0  0  0  0  0  0
    2.6322   -1.9331    3.0298 C   0  0  1  0  0  0  0  0  0  0  0  0
    1.5716   -2.1797    2.1453 O   0  0  0  0  0  0  0  0  0  0  0  0
    2.9061   -3.1170    3.9714 C   0  0  1  0  0  0  0  0  0  0  0  0
    3.7268   -2.4353    4.8738 O   0  0  0  0  0  0  0  0  0  0  0  0
    1.6417   -3.5655    4.8262 O   0  0  0  0  0  0  0  0  0  0  0  0
    1.2051   -4.3194    6.2242 C   0  0  2  0  0  0  0  0  0  0  0  0
    0.0571   -5.3524    5.8723 C   0  0  0  0  0  0  0  0  0  0  0  0
   -0.1795   -5.7859    4.6089 C   0  0  0  0  0  0  0  0  0  0  0  0
    0.1879   -7.1529    3.8789 C   0  0  2  0  0  0  0  0  0  0  0  0
   -0.1698   -6.9098    2.5239 O   0  0  0  0  0  0  0  0  0  0  0  0
   -0.7441   -8.3116    4.2274 C   0  0  0  0  0  0  0  0  0  0  0  0
   -0.1179   -9.5386    3.5165 C   0  0  0  0  0  0  0  0  0  0  0  0
    1.4056   -9.2943    3.2797 C   0  0  0  0  0  0  0  0  0  0  0  0
    2.1947  -10.4727    3.8899 C   0  0  0  0  0  0  0  0  0  0  0  0
    1.7467   -9.2739    1.7828 C   0  0  0  0  0  0  0  0  0  0  0  0
    1.6742   -7.9261    3.9685 C   0  0  1  0  0  0  0  0  0  0  0  0
    3.3394   -7.3319    3.8456 C   0  0  2  0  0  0  0  0  0  0  0  0
    3.8098   -7.8062    5.1730 C   0  0  0  0  0  0  0  0  0  0  0  0
    3.1671   -6.7413    6.1188 C   0  0  0  0  0  0  0  0  0  0  0  0
    3.7985   -5.1334    6.0661 C   0  0  1  0  0  0  0  0  0  0  0  0
    3.7274   -3.8970    7.2018 C   0  0  1  0  0  0  0  0  0  0  0  0
    5.0231   -3.1212    7.6253 C   0  0  0  0  0  0  0  0  0  0  0  0
    2.5882   -2.7001    7.3468 C   0  0  0  0  0  0  0  0  0  0  0  0
    1.0910   -2.9793    6.9171 C   0  0  0  0  0  0  0  0  0  0  0  0
    3.3862   -4.8970    8.1364 C   0  0  0  0  0  0  0  0  0  0  0  0
    4.4305   -5.8120    8.2988 C   0  0  0  0  0  0  0  0  0  0  0  0
    5.3992   -6.0768    6.9676 C   0  0  0  0  0  0  0  0  0  0  0  0
    4.9824   -5.4515    5.3876 C   0  0  2  0  0  0  0  0  0  0  0  0
    6.1910   -4.5653    5.0926 C   0  0  0  0  0  0  0  0  0  0  0  0
    4.0485   -5.7370    3.8514 C   0  0  1  0  0  0  0  0  0  0  0  0
    2.5128   -5.6043    3.4126 C   0  0  0  0  0  0  0  0  0  0  0  0
    3.9294   -4.2347    3.0000 C   0  0  2  0  0  0  0  0  0  0  0  0
    3.7805   -4.7065    1.3965 C   0  0  1  0  0  0  0  0  0  0  0  0
    2.7879   -4.1285    0.5844 O   0  0  0  0  0  0  0  0  0  0  0  0
    1.8360   -5.0582    7.7171 C   0  0  0  0  0  0  0  0  0  0  0  0
    6.2588   -5.9662    2.1416 H   0  0  0  0  0  0  0  0  0  0  0  0
    6.7807   -6.3390    0.5060 H   0  0  0  0  0  0  0  0  0  0  0  0
    5.3300   -7.0891    1.1592 H   0  0  0  0  0  0  0  0  0  0  0  0
    4.7448   -5.3331   -0.4336 H   0  0  0  0  0  0  0  0  0  0  0  0
    6.8169   -3.9885   -0.1731 H   0  0  0  0  0  0  0  0  0  0  0  0
    5.3569   -3.0495   -0.3217 H   0  0  0  0  0  0  0  0  0  0  0  0
    6.9296   -3.8120    2.0925 H   0  0  0  0  0  0  0  0  0  0  0  0
    6.6612   -2.1910    1.5621 H   0  0  0  0  0  0  0  0  0  0  0  0
    5.5150   -2.7414    3.5016 H   0  0  0  0  0  0  0  0  0  0  0  0
    4.0948    0.4428    2.8724 H   0  0  0  0  0  0  0  0  0  0  0  0
    5.6763   -0.2191    2.4806 H   0  0  0  0  0  0  0  0  0  0  0  0
    4.9588   -0.5414    4.0310 H   0  0  0  0  0  0  0  0  0  0  0  0
    3.2886   -0.3133    0.8061 H   0  0  0  0  0  0  0  0  0  0  0  0
    3.4417   -1.9153    0.1781 H   0  0  0  0  0  0  0  0  0  0  0  0
    4.8698   -0.9495    0.4360 H   0  0  0  0  0  0  0  0  0  0  0  0
    2.3096   -1.0582    3.6015 H   0  0  0  0  0  0  0  0  0  0  0  0
    1.5367   -1.4971    1.4885 H   0  0  0  0  0  0  0  0  0  0  0  0
    3.2441   -1.6810    5.1829 H   0  0  0  0  0  0  0  0  0  0  0  0
   -0.0190   -6.1537    6.5904 H   0  0  0  0  0  0  0  0  0  0  0  0
   -0.0458   -4.9897    3.8913 H   0  0  0  0  0  0  0  0  0  0  0  0
   -0.1170   -7.7452    2.0780 H   0  0  0  0  0  0  0  0  0  0  0  0
   -0.7380   -8.4696    5.3075 H   0  0  0  0  0  0  0  0  0  0  0  0
   -1.7866   -8.1411    3.9473 H   0  0  0  0  0  0  0  0  0  0  0  0
   -0.2509  -10.4241    4.1345 H   0  0  0  0  0  0  0  0  0  0  0  0
   -0.6490   -9.7498    2.5855 H   0  0  0  0  0  0  0  0  0  0  0  0
    3.2667  -10.3584    3.7241 H   0  0  0  0  0  0  0  0  0  0  0  0
    1.9030  -11.4201    3.4300 H   0  0  0  0  0  0  0  0  0  0  0  0
    2.0209  -10.5777    4.9621 H   0  0  0  0  0  0  0  0  0  0  0  0
    2.8044   -9.1327    1.5763 H   0  0  0  0  0  0  0  0  0  0  0  0
    1.2043   -8.4995    1.2477 H   0  0  0  0  0  0  0  0  0  0  0  0
    1.4578  -10.2347    1.3411 H   0  0  0  0  0  0  0  0  0  0  0  0
    1.5487   -8.2936    4.9815 H   0  0  0  0  0  0  0  0  0  0  0  0
    3.8574   -7.9143    3.0821 H   0  0  0  0  0  0  0  0  0  0  0  0
    3.4797   -8.8063    5.4448 H   0  0  0  0  0  0  0  0  0  0  0  0
    4.8940   -7.8962    5.1599 H   0  0  0  0  0  0  0  0  0  0  0  0
    2.1063   -6.7202    6.0031 H   0  0  0  0  0  0  0  0  0  0  0  0
    3.1789   -7.2999    7.0529 H   0  0  0  0  0  0  0  0  0  0  0  0
    3.2781   -4.6463    5.4420 H   0  0  0  0  0  0  0  0  0  0  0  0
    5.2125   -2.2756    6.9688 H   0  0  0  0  0  0  0  0  0  0  0  0
    5.9436   -3.6899    7.6648 H   0  0  0  0  0  0  0  0  0  0  0  0
    4.8997   -2.7048    8.6255 H   0  0  0  0  0  0  0  0  0  0  0  0
    2.5443   -2.4543    8.4116 H   0  0  0  0  0  0  0  0  0  0  0  0
    2.9046   -1.7401    6.9441 H   0  0  0  0  0  0  0  0  0  0  0  0
    0.6966   -2.1880    6.2778 H   0  0  0  0  0  0  0  0  0  0  0  0
    0.4161   -2.9959    7.7745 H   0  0  0  0  0  0  0  0  0  0  0  0
    4.2304   -6.7302    8.8259 H   0  0  0  0  0  0  0  0  0  0  0  0
    6.3628   -5.7028    7.3022 H   0  0  0  0  0  0  0  0  0  0  0  0
    5.6225   -7.1411    6.9426 H   0  0  0  0  0  0  0  0  0  0  0  0
    6.4373   -4.6950    4.0481 H   0  0  0  0  0  0  0  0  0  0  0  0
    7.0995   -4.8647    5.6084 H   0  0  0  0  0  0  0  0  0  0  0  0
    6.0369   -3.5160    5.3052 H   0  0  0  0  0  0  0  0  0  0  0  0
    1.9003   -4.8297    2.9343 H   0  0  0  0  0  0  0  0  0  0  0  0
    2.0006   -5.6505    4.3039 H   0  0  0  0  0  0  0  0  0  0  0  0
    2.1250   -6.1875    2.5651 H   0  0  0  0  0  0  0  0  0  0  0  0
    3.4727   -5.7394    1.2822 H   0  0  0  0  0  0  0  0  0  0  0  0
    2.8816   -4.4588   -0.2970 H   0  0  0  0  0  0  0  0  0  0  0  0
    1.2996   -4.6641    8.5838 H   0  0  0  0  0  0  0  0  0  0  0  0
    1.5547   -6.0997    7.8722 H   0  0  0  0  0  0  0  0  0  0  0  0
  1  2  1  0
  1 44  1  0
  1 45  1  0
  1 46  1  0
  2 41  1  0
  2  3  1  0
  2 47  1  6
  3  4  1  0
  3 48  1  0
  3 49  1  0
  4  5  1  0
  4 50  1  0
  4 51  1  0
  5 40  1  0
  5  6  1  0
  5 52  1  1
  6  7  1  0
  6  8  1  0
  6  9  1  0
  7 53  1  0
  7 54  1  0
  7 55  1  0
  8 56  1  0
  8 57  1  0
  8 58  1  0
  9 10  1  0
  9 11  1  0
  9 59  1  1
 10 60  1  0
 40 11  1  1
 11 12  1  1
 11 13  1  0
 12 61  1  0
 13 14  1  0
 14 32  1  1
 14 43  1  0
 14 15  1  0
 15 16  2  3
 15 62  1  0
 16 17  1  0
 16 63  1  0
 17 24  1  0
 17 18  1  6
 17 19  1  0
 18 64  1  0
 19 20  1  0
 19 65  1  0
 19 66  1  0
 20 21  1  0
 20 67  1  0
 20 68  1  0
 21 22  1  0
 21 23  1  0
 21 24  1  0
 22 69  1  0
 22 70  1  0
 22 71  1  0
 23 72  1  0
 23 73  1  0
 23 74  1  0
 24 25  1  0
 24 75  1  1
 25 38  1  0
 25 26  1  0
 25 76  1  6
 26 27  1  0
 26 77  1  0
 26 78  1  0
 27 28  1  0
 27 79  1  0
 27 80  1  0
 28 36  1  0
 28 29  1  0
 28 81  1  6
 29 30  1  1
 29 31  1  0
 29 33  1  0
 30 82  1  0
 30 83  1  0
 30 84  1  0
 31 32  1  0
 31 85  1  0
 31 86  1  0
 32 87  1  0
 32 88  1  0
 33 34  2  0
 33 43  1  0
 34 35  1  0
 34 89  1  0
 35 36  1  0
 35 90  1  0
 35 91  1  0
 36 37  1  6
 36 38  1  0
 37 92  1  0
 37 93  1  0
 37 94  1  0
 38 39  1  1
 38 40  1  0
 39 95  1  0
 39 96  1  0
 39 97  1  0
 40 41  1  0
 41 42  1  0
 41 98  1  1
 42 99  1  0
 43100  1  0
 43101  1  0
M  END
>  <i_m_ct_stereo_status>  (297) 
1

>  <s_m_source_file>  (297) 
/var/tmp/pbs.5076255.sched01/tmprva83imr/861x3d95ot.sdf

>  <i_m_source_file_index>  (297) 
31

>  <i_lp_mmshare_version>  (297) 
48012

>  <i_f3d_flags>  (297) 
0

>  <s_epik_input>  (297) 
W09IXVtDQEhdMVtDQEhdKFtDSDNdKVtDSDJdW0NIMl1bQ0hdKEMoW0NIM10pKFtDSDNdKVtDQEhdMltPSF0pW0NAXTEoW0NAXTIoW09IXSlPW0NAXTM0NSlbQ0BAXTYoW0NIM10pW0NIXShbQ0BIXTdbQ0BdKFtPSF0pKC9bQ0hdPVtDSF1cMylbQ0gyXVtDSDJdQzcoW0NIM10pW0NIM10pW0NIMl1bQ0gyXVtDQEhdOFtDQEBdKFtDSDNdKShbQ0gyXVtDSDJdNClDKFtDSDJdNSk9W0NIXVtDSDJdW0NAQF02OFtDSDNd

>  <s_epik_cmdline>  (297) 
J2VwaWtfcHl0aG9uJywgJy1waHQnLCAnMi4wJywgJy1waCcsICc3LjAnLCAnLXRuJywgJzgnLCAnLW1hJywgJzIwMCcsICctaW1hZScsICc8aW5maWxlLm1hZT4nLCAnLW9tYWUnLCAnPG91dGZpbGUubWFlPic=

>  <r_lp_tautomer_probability>  (297) 
1

>  <r_epik_Ionization_Penalty>  (297) 
8.69048e-07

>  <r_epik_Ionization_Penalty_Charging>  (297) 
0

>  <r_epik_Ionization_Penalty_Neutral>  (297) 
8.69048e-07

>  <r_epik_State_Penalty>  (297) 
-0

>  <r_epik_Charging_Adjusted_Penalty>  (297) 
0

>  <i_epik_Tot_Q>  (297) 
0

>  <i_epik_Tot_abs_Q>  (297) 
0

>  <s_lp_Force_Field>  (297) 
OPLS3e

>  <r_lp_Energy>  (297) 
979.892

>  <b_lp_Chiralities_Consistent>  (297) 
1

>  <s_lp_Variant>  (297) 
82:0-4

>  <s_i_glide_gridfile>  (297) 
pfpi4k_grid

>  <i_i_glide_lignum>  (297) 
31

>  <i_i_glide_rotatable_bonds>  (297) 
4

>  <r_i_docking_score>  (297) 
-2.2644

>  <r_i_glide_ligand_efficiency>  (297) 
-0.0526605

>  <r_i_glide_ligand_efficiency_sa>  (297) 
-0.184491

>  <r_i_glide_ligand_efficiency_ln>  (297) 
-0.475595

>  <r_i_glide_gscore>  (297) 
-2.2644

>  <r_i_glide_lipo>  (297) 
-0.526662

>  <r_i_glide_hbond>  (297) 
-0.109021

>  <r_i_glide_metal>  (297) 
-0

>  <r_i_glide_rewards>  (297) 
-0.000370289

>  <r_i_glide_evdw>  (297) 
-25.384

>  <r_i_glide_ecoul>  (297) 
-2.39433

>  <r_i_glide_erotb>  (297) 
0

>  <r_i_glide_esite>  (297) 
0

>  <r_i_glide_emodel>  (297) 
-32.8588

>  <r_i_glide_energy>  (297) 
-27.7783

>  <r_i_glide_einternal>  (297) 
1.16011

>  <r_i_glide_intrahb_reward>  (297) 
-0

>  <i_i_glide_confnum>  (297) 
1

>  <i_i_glide_posenum>  (297) 
21

>  <r_i_glide_eff_state_penalty>  (297) 
0

>  <ligand_id>  (297) 
82

>  <original_smiles>  (297) 
CC1CCC2C(C)(C)C(O)C3(O)OC45C=CC6(O)CCC(C)(C)C6C6CCC7C(C)(CC4)C(=CCC7(C)C6(C)C23C1O)C5

>  <smiles>  (297) 
[H]OC1([H])C2(O[H])OC34C([H])=C([H])C5(O[H])C([H])([H])C([H])([H])C(C([H])([H])[H])(C([H])([H])[H])C5([H])C5([H])C([H])([H])C([H])([H])C6([H])C(C([H])([H])[H])(C(=C([H])C([H])([H])C6(C([H])([H])[H])C5(C([H])([H])[H])C25C([H])(O[H])C([H])(C([H])([H])[H])C([H])([H])C([H])([H])C5([H])C1(C([H])([H])[H])C([H])([H])[H])C3([H])[H])C([H])([H])C4([H])[H]

$$$$
83:0:0
     RDKit          3D

 47 52  0  0  1  0  0  0  0  0999 V2000
    5.2776   -2.9575   -1.2676 N   0  0  0  0  0  0  0  0  0  0  0  0
    6.4314   -3.2669   -0.5465 C   0  0  0  0  0  0  0  0  0  0  0  0
    7.4693   -2.4035   -0.5917 N   0  0  0  0  0  0  0  0  0  0  0  0
    8.5945   -2.7309    0.0696 C   0  0  0  0  0  0  0  0  0  0  0  0
    8.8684   -3.8245    0.7948 N   0  0  0  0  0  0  0  0  0  0  0  0
    7.8069   -4.6716    0.8613 C   0  0  0  0  0  0  0  0  0  0  0  0
    7.8383   -6.1880    1.7788 S   0  0  0  0  0  0  0  0  0  0  0  0
    6.2199   -6.5052    1.2579 C   0  0  0  0  0  0  0  0  0  0  0  0
    5.6605   -5.5657    0.4770 C   0  0  0  0  0  0  0  0  0  0  0  0
    6.5452   -4.4605    0.2066 C   0  0  0  0  0  0  0  0  0  0  0  0
    4.2759   -5.9458    0.1400 C   0  0  0  0  0  0  0  0  0  0  0  0
    3.9798   -6.9413    1.1885 N   0  0  0  0  0  0  0  0  0  0  0  0
    3.0485   -6.6576    2.1285 C   0  0  0  0  0  0  0  0  0  0  0  0
    2.6296   -5.5045    2.2946 O   0  0  0  0  0  0  0  0  0  0  0  0
    2.4229   -7.7981    2.9570 C   0  0  1  0  0  0  0  0  0  0  0  0
    0.9267   -7.4556    3.2380 C   0  0  0  0  0  0  0  0  0  0  0  0
    0.2698   -8.5682    4.0850 C   0  0  2  0  0  0  0  0  0  0  0  0
    1.0130   -8.7005    5.4333 C   0  0  0  0  0  0  0  0  0  0  0  0
    2.4858   -9.0478    5.1610 C   0  0  1  0  0  0  0  0  0  0  0  0
    2.5757  -10.3805    4.3874 C   0  0  0  0  0  0  0  0  0  0  0  0
    1.8103  -10.2581    3.0532 C   0  0  1  0  0  0  0  0  0  0  0  0
    0.3355   -9.8971    3.3079 C   0  0  0  0  0  0  0  0  0  0  0  0
    2.4641   -9.1622    2.1984 C   0  0  0  0  0  0  0  0  0  0  0  0
    3.1420   -7.9244    4.3338 C   0  0  0  0  0  0  0  0  0  0  0  0
    5.2650   -7.5893    1.5523 C   0  0  0  0  0  0  0  0  0  0  0  0
    4.4744   -3.5766   -1.2424 H   0  0  0  0  0  0  0  0  0  0  0  0
    9.3838   -2.0013    0.0092 H   0  0  0  0  0  0  0  0  0  0  0  0
    3.5922   -5.0939    0.0633 H   0  0  0  0  0  0  0  0  0  0  0  0
    4.2570   -6.4651   -0.8136 H   0  0  0  0  0  0  0  0  0  0  0  0
    0.8370   -6.5084    3.7769 H   0  0  0  0  0  0  0  0  0  0  0  0
    0.3745   -7.3279    2.3024 H   0  0  0  0  0  0  0  0  0  0  0  0
   -0.7742   -8.3097    4.2769 H   0  0  0  0  0  0  0  0  0  0  0  0
    0.9516   -7.7672    5.9949 H   0  0  0  0  0  0  0  0  0  0  0  0
    0.5539   -9.4749    6.0463 H   0  0  0  0  0  0  0  0  0  0  0  0
    3.0176   -9.1442    6.1063 H   0  0  0  0  0  0  0  0  0  0  0  0
    3.6182  -10.6286    4.1918 H   0  0  0  0  0  0  0  0  0  0  0  0
    2.1717  -11.1928    4.9891 H   0  0  0  0  0  0  0  0  0  0  0  0
    1.8664  -11.2060    2.5199 H   0  0  0  0  0  0  0  0  0  0  0  0
   -0.1574  -10.6847    3.8717 H   0  0  0  0  0  0  0  0  0  0  0  0
   -0.1953   -9.8026    2.3615 H   0  0  0  0  0  0  0  0  0  0  0  0
    1.9480   -9.0930    1.2385 H   0  0  0  0  0  0  0  0  0  0  0  0
    3.4780   -9.4944    1.9736 H   0  0  0  0  0  0  0  0  0  0  0  0
    4.2027   -8.1698    4.2352 H   0  0  0  0  0  0  0  0  0  0  0  0
    3.0841   -6.9740    4.8748 H   0  0  0  0  0  0  0  0  0  0  0  0
    5.4467   -8.4461    0.9022 H   0  0  0  0  0  0  0  0  0  0  0  0
    5.3617   -7.8952    2.5865 H   0  0  0  0  0  0  0  0  0  0  0  0
    5.1884   -2.0991   -1.7845 H   0  0  0  0  0  0  0  0  0  0  0  0
  1  2  1  0
  1 26  1  0
  1 47  1  0
  2 10  2  0
  2  3  1  0
  3  4  2  0
  4  5  1  0
  4 27  1  0
  5  6  2  0
  6 10  1  0
  6  7  1  0
  7  8  1  0
  8 25  1  0
  8  9  2  0
  9 10  1  0
  9 11  1  0
 11 12  1  0
 11 28  1  0
 11 29  1  0
 12 13  1  0
 12 25  1  0
 13 14  2  0
 15 13  1  6
 15 23  1  0
 15 24  1  0
 15 16  1  0
 16 17  1  0
 16 30  1  0
 16 31  1  0
 17 22  1  0
 17 18  1  0
 17 32  1  1
 18 19  1  0
 18 33  1  0
 18 34  1  0
 19 20  1  0
 19 24  1  0
 19 35  1  1
 20 21  1  0
 20 36  1  0
 20 37  1  0
 21 22  1  0
 21 23  1  0
 21 38  1  6
 22 39  1  0
 22 40  1  0
 23 41  1  0
 23 42  1  0
 24 43  1  0
 24 44  1  0
 25 45  1  0
 25 46  1  0
M  END
>  <i_m_ct_stereo_status>  (298) 
1

>  <s_m_source_file>  (298) 
/var/tmp/pbs.5076255.sched01/tmprva83imr/861x3d95ot.sdf

>  <i_m_source_file_index>  (298) 
32

>  <i_lp_mmshare_version>  (298) 
48012

>  <i_f3d_flags>  (298) 
0

>  <s_epik_input>  (298) 
W25IXTFbY0hdbi9jKD1OXFtIXSljKGMxMiljM2MoczIpW0NIMl1OKFtDSDJdMylDKD1PKUM0NVtDSDJdW0NASF02W0NIMl1bQ0BASF0oW0NIMl01KVtDSDJdW0NASF0oW0NIMl02KVtDSDJdNA==

>  <s_epik_cmdline>  (298) 
J2VwaWtfcHl0aG9uJywgJy1waHQnLCAnMi4wJywgJy1waCcsICc3LjAnLCAnLXRuJywgJzgnLCAnLW1hJywgJzIwMCcsICctaW1hZScsICc8aW5maWxlLm1hZT4nLCAnLW9tYWUnLCAnPG91dGZpbGUubWFlPic=

>  <r_epik_Ionization_Penalty>  (298) 
0.000495908

>  <r_epik_Ionization_Penalty_Charging>  (298) 
0

>  <r_epik_Ionization_Penalty_Neutral>  (298) 
0.000495908

>  <r_epik_State_Penalty>  (298) 
0.130369

>  <r_epik_Charging_Adjusted_Penalty>  (298) 
0.130369

>  <i_epik_Tot_Q>  (298) 
0

>  <i_epik_Tot_abs_Q>  (298) 
0

>  <s_lp_Force_Field>  (298) 
OPLS3e

>  <r_lp_Energy>  (298) 
28.2992

>  <b_lp_Chiralities_Consistent>  (298) 
1

>  <s_lp_Variant>  (298) 
83:0-1

>  <s_i_glide_gridfile>  (298) 
pfpi4k_grid

>  <i_i_glide_lignum>  (298) 
32

>  <i_i_glide_rotatable_bonds>  (298) 
2

>  <r_i_docking_score>  (298) 
-3.73227

>  <r_i_glide_ligand_efficiency>  (298) 
-0.149291

>  <r_i_glide_ligand_efficiency_sa>  (298) 
-0.436529

>  <r_i_glide_ligand_efficiency_ln>  (298) 
-0.884661

>  <r_i_glide_gscore>  (298) 
-3.73227

>  <r_i_glide_lipo>  (298) 
-0.742583

>  <r_i_glide_hbond>  (298) 
-0.127528

>  <r_i_glide_metal>  (298) 
-0

>  <r_i_glide_rewards>  (298) 
-1.13112

>  <r_i_glide_evdw>  (298) 
-30.4711

>  <r_i_glide_ecoul>  (298) 
-3.40976

>  <r_i_glide_erotb>  (298) 
0.304166

>  <r_i_glide_esite>  (298) 
-0.000190824

>  <r_i_glide_emodel>  (298) 
-41.6291

>  <r_i_glide_energy>  (298) 
-33.8808

>  <r_i_glide_einternal>  (298) 
0.709704

>  <r_i_glide_intrahb_reward>  (298) 
-0

>  <i_i_glide_confnum>  (298) 
2

>  <i_i_glide_posenum>  (298) 
7

>  <r_i_glide_eff_state_penalty>  (298) 
0

>  <ligand_id>  (298) 
83

>  <original_smiles>  (298) 
N=c1nc[nH]c2sc3c(c12)CN(C(=O)C12CC4CC(CC(C4)C1)C2)C3

>  <smiles>  (298) 
[H]c1nc(N([H])[H])c2c3c(sc2n1)C([H])([H])N(C(=O)C12C([H])([H])C4([H])C([H])([H])C([H])(C([H])([H])C([H])(C4([H])[H])C1([H])[H])C2([H])[H])C3([H])[H]

$$$$
83:0:1
     RDKit          3D

 47 52  0  0  1  0  0  0  0  0999 V2000
    2.3412   -3.4549   -1.4299 N   0  0  0  0  0  0  0  0  0  0  0  0
    3.5993   -2.8862   -1.2788 C   0  0  0  0  0  0  0  0  0  0  0  0
    3.8179   -1.6769   -1.8270 N   0  0  0  0  0  0  0  0  0  0  0  0
    5.0058   -1.1041   -1.6586 C   0  0  0  0  0  0  0  0  0  0  0  0
    6.0873   -1.5641   -1.0148 N   0  0  0  0  0  0  0  0  0  0  0  0
    5.8700   -2.7964   -0.4747 C   0  0  0  0  0  0  0  0  0  0  0  0
    7.1048   -3.6700    0.4566 S   0  0  0  0  0  0  0  0  0  0  0  0
    5.9707   -4.9499    0.6959 C   0  0  0  0  0  0  0  0  0  0  0  0
    4.7531   -4.7819    0.1371 C   0  0  0  0  0  0  0  0  0  0  0  0
    4.6400   -3.5328   -0.5689 C   0  0  0  0  0  0  0  0  0  0  0  0
    3.8712   -5.9147    0.4911 C   0  0  0  0  0  0  0  0  0  0  0  0
    4.5842   -6.5041    1.6521 N   0  0  0  0  0  0  0  0  0  0  0  0
    4.0104   -6.4294    2.8753 C   0  0  0  0  0  0  0  0  0  0  0  0
    4.5214   -5.7640    3.7816 O   0  0  0  0  0  0  0  0  0  0  0  0
    2.7236   -7.2440    3.1687 C   0  0  1  0  0  0  0  0  0  0  0  0
    2.4958   -8.4144    2.1590 C   0  0  0  0  0  0  0  0  0  0  0  0
    1.2218   -9.1923    2.5273 C   0  0  2  0  0  0  0  0  0  0  0  0
    0.0063   -8.2413    2.4858 C   0  0  0  0  0  0  0  0  0  0  0  0
    0.2124   -7.1024    3.5093 C   0  0  1  0  0  0  0  0  0  0  0  0
    0.3532   -7.6945    4.9230 C   0  0  0  0  0  0  0  0  0  0  0  0
    1.5631   -8.6493    4.9504 C   0  0  1  0  0  0  0  0  0  0  0  0
    1.3714   -9.7931    3.9375 C   0  0  0  0  0  0  0  0  0  0  0  0
    2.8391   -7.8626    4.5956 C   0  0  0  0  0  0  0  0  0  0  0  0
    1.4833   -6.3042    3.1559 C   0  0  0  0  0  0  0  0  0  0  0  0
    6.0200   -6.1916    1.4838 C   0  0  0  0  0  0  0  0  0  0  0  0
    2.1473   -4.3902   -1.1028 H   0  0  0  0  0  0  0  0  0  0  0  0
    5.1212   -0.1436   -2.1432 H   0  0  0  0  0  0  0  0  0  0  0  0
    2.8513   -5.5787    0.6828 H   0  0  0  0  0  0  0  0  0  0  0  0
    3.8398   -6.6405   -0.3188 H   0  0  0  0  0  0  0  0  0  0  0  0
    2.3640   -8.0668    1.1354 H   0  0  0  0  0  0  0  0  0  0  0  0
    3.3492   -9.0959    2.1499 H   0  0  0  0  0  0  0  0  0  0  0  0
    1.0767   -9.9971    1.8080 H   0  0  0  0  0  0  0  0  0  0  0  0
   -0.1129   -7.8341    1.4821 H   0  0  0  0  0  0  0  0  0  0  0  0
   -0.9069   -8.7898    2.7111 H   0  0  0  0  0  0  0  0  0  0  0  0
   -0.6486   -6.4356    3.4922 H   0  0  0  0  0  0  0  0  0  0  0  0
    0.4943   -6.8933    5.6485 H   0  0  0  0  0  0  0  0  0  0  0  0
   -0.5557   -8.2226    5.2022 H   0  0  0  0  0  0  0  0  0  0  0  0
    1.6680   -9.0693    5.9502 H   0  0  0  0  0  0  0  0  0  0  0  0
    0.4993  -10.3890    4.1993 H   0  0  0  0  0  0  0  0  0  0  0  0
    2.2341  -10.4583    3.9638 H   0  0  0  0  0  0  0  0  0  0  0  0
    3.7091   -8.5192    4.6614 H   0  0  0  0  0  0  0  0  0  0  0  0
    2.9874   -7.0864    5.3479 H   0  0  0  0  0  0  0  0  0  0  0  0
    1.6254   -5.4832    3.8617 H   0  0  0  0  0  0  0  0  0  0  0  0
    1.3293   -5.8433    2.1805 H   0  0  0  0  0  0  0  0  0  0  0  0
    6.4932   -6.9796    0.9037 H   0  0  0  0  0  0  0  0  0  0  0  0
    6.5862   -6.0660    2.4084 H   0  0  0  0  0  0  0  0  0  0  0  0
    1.6089   -2.9474   -1.9148 H   0  0  0  0  0  0  0  0  0  0  0  0
  1  2  1  0
  1 26  1  0
  1 47  1  0
  2 10  2  0
  2  3  1  0
  3  4  2  0
  4  5  1  0
  4 27  1  0
  5  6  2  0
  6 10  1  0
  6  7  1  0
  7  8  1  0
  8 25  1  0
  8  9  2  0
  9 10  1  0
  9 11  1  0
 11 12  1  0
 11 28  1  0
 11 29  1  0
 12 13  1  0
 12 25  1  0
 13 14  2  0
 15 13  1  6
 15 23  1  0
 15 24  1  0
 15 16  1  0
 16 17  1  0
 16 30  1  0
 16 31  1  0
 17 22  1  0
 17 18  1  0
 17 32  1  6
 18 19  1  0
 18 33  1  0
 18 34  1  0
 19 20  1  0
 19 24  1  0
 19 35  1  1
 20 21  1  0
 20 36  1  0
 20 37  1  0
 21 22  1  0
 21 23  1  0
 21 38  1  1
 22 39  1  0
 22 40  1  0
 23 41  1  0
 23 42  1  0
 24 43  1  0
 24 44  1  0
 25 45  1  0
 25 46  1  0
M  END
>  <i_m_ct_stereo_status>  (299) 
1

>  <s_m_source_file>  (299) 
/var/tmp/pbs.5076255.sched01/tmprva83imr/861x3d95ot.sdf

>  <i_m_source_file_index>  (299) 
32

>  <i_lp_mmshare_version>  (299) 
48012

>  <i_f3d_flags>  (299) 
0

>  <s_epik_input>  (299) 
W25IXTFbY0hdbi9jKD1OXFtIXSljKGMxMiljM2MoczIpW0NIMl1OKFtDSDJdMylDKD1PKUM0NVtDSDJdW0NASF02W0NIMl1bQ0BASF0oW0NIMl01KVtDSDJdW0NASF0oW0NIMl02KVtDSDJdNA==

>  <s_epik_cmdline>  (299) 
J2VwaWtfcHl0aG9uJywgJy1waHQnLCAnMi4wJywgJy1waCcsICc3LjAnLCAnLXRuJywgJzgnLCAnLW1hJywgJzIwMCcsICctaW1hZScsICc8aW5maWxlLm1hZT4nLCAnLW9tYWUnLCAnPG91dGZpbGUubWFlPic=

>  <r_epik_Ionization_Penalty>  (299) 
0.000495908

>  <r_epik_Ionization_Penalty_Charging>  (299) 
0

>  <r_epik_Ionization_Penalty_Neutral>  (299) 
0.000495908

>  <r_epik_State_Penalty>  (299) 
0.130369

>  <r_epik_Charging_Adjusted_Penalty>  (299) 
0.130369

>  <i_epik_Tot_Q>  (299) 
0

>  <i_epik_Tot_abs_Q>  (299) 
0

>  <s_lp_Force_Field>  (299) 
OPLS3e

>  <r_lp_Energy>  (299) 
28.2992

>  <b_lp_Chiralities_Consistent>  (299) 
1

>  <s_lp_Variant>  (299) 
83:0-1

>  <s_i_glide_gridfile>  (299) 
pfpi4k_grid

>  <i_i_glide_lignum>  (299) 
32

>  <i_i_glide_rotatable_bonds>  (299) 
2

>  <r_i_docking_score>  (299) 
-3.26443

>  <r_i_glide_ligand_efficiency>  (299) 
-0.130577

>  <r_i_glide_ligand_efficiency_sa>  (299) 
-0.381809

>  <r_i_glide_ligand_efficiency_ln>  (299) 
-0.773767

>  <r_i_glide_gscore>  (299) 
-3.26443

>  <r_i_glide_lipo>  (299) 
-0.502336

>  <r_i_glide_hbond>  (299) 
-0.132178

>  <r_i_glide_metal>  (299) 
-0

>  <r_i_glide_rewards>  (299) 
-1.06759

>  <r_i_glide_evdw>  (299) 
-29.6895

>  <r_i_glide_ecoul>  (299) 
-2.21307

>  <r_i_glide_erotb>  (299) 
0.304166

>  <r_i_glide_esite>  (299) 
-0.0500576

>  <r_i_glide_emodel>  (299) 
-36.2163

>  <r_i_glide_energy>  (299) 
-31.9025

>  <r_i_glide_einternal>  (299) 
5.7567

>  <r_i_glide_intrahb_reward>  (299) 
-0

>  <i_i_glide_confnum>  (299) 
3

>  <i_i_glide_posenum>  (299) 
11

>  <r_i_glide_eff_state_penalty>  (299) 
0

>  <ligand_id>  (299) 
83

>  <original_smiles>  (299) 
N=c1nc[nH]c2sc3c(c12)CN(C(=O)C12CC4CC(CC(C4)C1)C2)C3

>  <smiles>  (299) 
[H]c1nc(N([H])[H])c2c3c(sc2n1)C([H])([H])N(C(=O)C12C([H])([H])C4([H])C([H])([H])C([H])(C([H])([H])C([H])(C4([H])[H])C1([H])[H])C2([H])[H])C3([H])[H]

$$$$
83:0:2
     RDKit          3D

 47 52  0  0  1  0  0  0  0  0999 V2000
    1.1123    1.8504    2.3490 N   0  0  0  0  0  0  0  0  0  0  0  0
    0.2716    1.2093    3.2543 C   0  0  0  0  0  0  0  0  0  0  0  0
   -0.8761    1.8356    3.5985 N   0  0  0  0  0  0  0  0  0  0  0  0
   -1.7012    1.2573    4.4780 C   0  0  0  0  0  0  0  0  0  0  0  0
   -1.5756    0.0602    5.0844 N   0  0  0  0  0  0  0  0  0  0  0  0
   -0.4237   -0.5701    4.7481 C   0  0  0  0  0  0  0  0  0  0  0  0
    0.0031   -2.1827    5.3553 S   0  0  0  0  0  0  0  0  0  0  0  0
    1.4839   -2.0881    4.4498 C   0  0  0  0  0  0  0  0  0  0  0  0
    1.6525   -0.9641    3.7195 C   0  0  0  0  0  0  0  0  0  0  0  0
    0.5656   -0.0449    3.8486 C   0  0  0  0  0  0  0  0  0  0  0  0
    2.8697   -1.0598    2.8828 C   0  0  0  0  0  0  0  0  0  0  0  0
    3.1154   -2.5227    2.8942 N   0  0  0  0  0  0  0  0  0  0  0  0
    3.0354   -3.2748    1.7638 C   0  0  0  0  0  0  0  0  0  0  0  0
    2.2977   -4.2647    1.7209 O   0  0  0  0  0  0  0  0  0  0  0  0
    3.9242   -2.9786    0.5385 C   0  0  1  0  0  0  0  0  0  0  0  0
    5.1822   -3.8967    0.5779 C   0  0  0  0  0  0  0  0  0  0  0  0
    6.0645   -3.6341   -0.6646 C   0  0  2  0  0  0  0  0  0  0  0  0
    6.5286   -2.1686   -0.7052 C   0  0  0  0  0  0  0  0  0  0  0  0
    5.2791   -1.2737   -0.7732 C   0  0  1  0  0  0  0  0  0  0  0  0
    4.4483   -1.5555   -2.0381 C   0  0  0  0  0  0  0  0  0  0  0  0
    4.0059   -3.0311   -2.0067 C   0  0  1  0  0  0  0  0  0  0  0  0
    5.2516   -3.9363   -1.9433 C   0  0  0  0  0  0  0  0  0  0  0  0
    3.1334   -3.2954   -0.7647 C   0  0  0  0  0  0  0  0  0  0  0  0
    4.3967   -1.5040    0.4542 C   0  0  0  0  0  0  0  0  0  0  0  0
    2.5661   -3.0645    4.1709 C   0  0  0  0  0  0  0  0  0  0  0  0
    1.9488    1.4094    2.0060 H   0  0  0  0  0  0  0  0  0  0  0  0
   -2.5923    1.8274    4.7145 H   0  0  0  0  0  0  0  0  0  0  0  0
    2.6466   -0.6287    1.9339 H   0  0  0  0  0  0  0  0  0  0  0  0
    3.6940   -0.5305    3.3700 H   0  0  0  0  0  0  0  0  0  0  0  0
    5.7640   -3.7151    1.4818 H   0  0  0  0  0  0  0  0  0  0  0  0
    4.8957   -4.9489    0.6100 H   0  0  0  0  0  0  0  0  0  0  0  0
    6.9524   -4.2666   -0.6264 H   0  0  0  0  0  0  0  0  0  0  0  0
    7.1092   -1.9364    0.1894 H   0  0  0  0  0  0  0  0  0  0  0  0
    7.1696   -2.0010   -1.5691 H   0  0  0  0  0  0  0  0  0  0  0  0
    5.6085   -0.2478   -0.7658 H   0  0  0  0  0  0  0  0  0  0  0  0
    3.5649   -0.9161   -2.0390 H   0  0  0  0  0  0  0  0  0  0  0  0
    5.0141   -1.3264   -2.9358 H   0  0  0  0  0  0  0  0  0  0  0  0
    3.4260   -3.2597   -2.9033 H   0  0  0  0  0  0  0  0  0  0  0  0
    5.8619   -3.8018   -2.8348 H   0  0  0  0  0  0  0  0  0  0  0  0
    4.9486   -4.9796   -1.9256 H   0  0  0  0  0  0  0  0  0  0  0  0
    2.8060   -4.3339   -0.7844 H   0  0  0  0  0  0  0  0  0  0  0  0
    2.2287   -2.6879   -0.8110 H   0  0  0  0  0  0  0  0  0  0  0  0
    3.5657   -0.8327    0.3517 H   0  0  0  0  0  0  0  0  0  0  0  0
    4.9841   -1.2119    1.3221 H   0  0  0  0  0  0  0  0  0  0  0  0
    3.3241   -3.0035    4.9481 H   0  0  0  0  0  0  0  0  0  0  0  0
    2.2110   -4.1015    4.1421 H   0  0  0  0  0  0  0  0  0  0  0  0
    0.8524    2.7335    1.9031 H   0  0  0  0  0  0  0  0  0  0  0  0
  1  2  1  0
  1 26  1  0
  1 47  1  0
  2 10  2  0
  2  3  1  0
  3  4  2  0
  4  5  1  0
  4 27  1  0
  5  6  2  0
  6 10  1  0
  6  7  1  0
  7  8  1  0
  8 25  1  0
  8  9  2  0
  9 10  1  0
  9 11  1  0
 11 12  1  0
 11 28  1  0
 11 29  1  0
 12 13  1  0
 12 25  1  0
 13 14  2  0
 15 13  1  1
 15 23  1  0
 15 24  1  0
 15 16  1  0
 16 17  1  0
 16 30  1  0
 16 31  1  0
 17 22  1  0
 17 18  1  0
 17 32  1  1
 18 19  1  0
 18 33  1  0
 18 34  1  0
 19 20  1  0
 19 24  1  0
 19 35  1  6
 20 21  1  0
 20 36  1  0
 20 37  1  0
 21 22  1  0
 21 23  1  0
 21 38  1  6
 22 39  1  0
 22 40  1  0
 23 41  1  0
 23 42  1  0
 24 43  1  0
 24 44  1  0
 25 45  1  0
 25 46  1  0
M  END
>  <i_m_ct_stereo_status>  (300) 
1

>  <s_m_source_file>  (300) 
/var/tmp/pbs.5076255.sched01/tmprva83imr/861x3d95ot.sdf

>  <i_m_source_file_index>  (300) 
32

>  <i_lp_mmshare_version>  (300) 
48012

>  <i_f3d_flags>  (300) 
0

>  <s_epik_input>  (300) 
W25IXTFbY0hdbi9jKD1OXFtIXSljKGMxMiljM2MoczIpW0NIMl1OKFtDSDJdMylDKD1PKUM0NVtDSDJdW0NASF02W0NIMl1bQ0BASF0oW0NIMl01KVtDSDJdW0NASF0oW0NIMl02KVtDSDJdNA==

>  <s_epik_cmdline>  (300) 
J2VwaWtfcHl0aG9uJywgJy1waHQnLCAnMi4wJywgJy1waCcsICc3LjAnLCAnLXRuJywgJzgnLCAnLW1hJywgJzIwMCcsICctaW1hZScsICc8aW5maWxlLm1hZT4nLCAnLW9tYWUnLCAnPG91dGZpbGUubWFlPic=

>  <r_epik_Ionization_Penalty>  (300) 
0.000495908

>  <r_epik_Ionization_Penalty_Charging>  (300) 
0

>  <r_epik_Ionization_Penalty_Neutral>  (300) 
0.000495908

>  <r_epik_State_Penalty>  (300) 
0.130369

>  <r_epik_Charging_Adjusted_Penalty>  (300) 
0.130369

>  <i_epik_Tot_Q>  (300) 
0

>  <i_epik_Tot_abs_Q>  (300) 
0

>  <s_lp_Force_Field>  (300) 
OPLS3e

>  <r_lp_Energy>  (300) 
28.2992

>  <b_lp_Chiralities_Consistent>  (300) 
1

>  <s_lp_Variant>  (300) 
83:0-1

>  <s_i_glide_gridfile>  (300) 
pfpi4k_grid

>  <i_i_glide_lignum>  (300) 
32

>  <i_i_glide_rotatable_bonds>  (300) 
2

>  <r_i_docking_score>  (300) 
-2.93419

>  <r_i_glide_ligand_efficiency>  (300) 
-0.117367

>  <r_i_glide_ligand_efficiency_sa>  (300) 
-0.343184

>  <r_i_glide_ligand_efficiency_ln>  (300) 
-0.69549

>  <r_i_glide_gscore>  (300) 
-2.93419

>  <r_i_glide_lipo>  (300) 
-0.180214

>  <r_i_glide_hbond>  (300) 
-0.131377

>  <r_i_glide_metal>  (300) 
-0

>  <r_i_glide_rewards>  (300) 
-0.992249

>  <r_i_glide_evdw>  (300) 
-29.1734

>  <r_i_glide_ecoul>  (300) 
-2.54427

>  <r_i_glide_erotb>  (300) 
0.304166

>  <r_i_glide_esite>  (300) 
-0.0941993

>  <r_i_glide_emodel>  (300) 
-35.5574

>  <r_i_glide_energy>  (300) 
-31.7177

>  <r_i_glide_einternal>  (300) 
2.64027

>  <r_i_glide_intrahb_reward>  (300) 
-0

>  <i_i_glide_confnum>  (300) 
5

>  <i_i_glide_posenum>  (300) 
17

>  <r_i_glide_eff_state_penalty>  (300) 
0

>  <ligand_id>  (300) 
83

>  <original_smiles>  (300) 
N=c1nc[nH]c2sc3c(c12)CN(C(=O)C12CC4CC(CC(C4)C1)C2)C3

>  <smiles>  (300) 
[H]c1nc(N([H])[H])c2c3c(sc2n1)C([H])([H])N(C(=O)C12C([H])([H])C4([H])C([H])([H])C([H])(C([H])([H])C([H])(C4([H])[H])C1([H])[H])C2([H])[H])C3([H])[H]

$$$$
83:1:0
     RDKit          3D

 48 53  0  0  1  0  0  0  0  0999 V2000
    3.8838  -10.0360    2.2352 N   0  0  0  0  0  0  0  0  0  0  0  0
    2.8574  -10.1681    3.0077 C   0  0  0  0  0  0  0  0  0  0  0  0
    2.1477  -11.3244    2.9220 N   0  0  0  0  0  0  0  0  0  0  0  0
    1.0899  -11.4730    3.6662 C   0  0  0  0  0  0  0  0  0  0  0  0
    0.6134  -10.5120    4.5566 N   0  0  0  0  0  0  0  0  0  0  0  0
    1.3265   -9.3302    4.6922 C   0  0  0  0  0  0  0  0  0  0  0  0
    0.9395   -7.9953    5.7629 S   0  0  0  0  0  0  0  0  0  0  0  0
    2.3570   -7.1505    5.1565 C   0  0  0  0  0  0  0  0  0  0  0  0
    3.0344   -7.8404    4.2173 C   0  0  0  0  0  0  0  0  0  0  0  0
    2.4526   -9.1006    3.9579 C   0  0  0  0  0  0  0  0  0  0  0  0
    4.1530   -7.0507    3.6942 C   0  0  0  0  0  0  0  0  0  0  0  0
    3.9774   -5.7404    4.3617 N   0  0  0  0  0  0  0  0  0  0  0  0
    4.5823   -4.5877    4.0012 C   0  0  0  0  0  0  0  0  0  0  0  0
    4.8204   -3.7172    4.8388 O   0  0  0  0  0  0  0  0  0  0  0  0
    4.8535   -4.3119    2.4929 C   0  0  1  0  0  0  0  0  0  0  0  0
    6.0112   -5.2093    1.9401 C   0  0  0  0  0  0  0  0  0  0  0  0
    6.2257   -4.9117    0.4499 C   0  0  2  0  0  0  0  0  0  0  0  0
    6.6644   -3.4501    0.2630 C   0  0  0  0  0  0  0  0  0  0  0  0
    5.5492   -2.5246    0.7967 C   0  0  1  0  0  0  0  0  0  0  0  0
    4.2484   -2.7509   -0.0003 C   0  0  0  0  0  0  0  0  0  0  0  0
    3.8088   -4.2186    0.1713 C   0  0  1  0  0  0  0  0  0  0  0  0
    4.9159   -5.1697   -0.3296 C   0  0  0  0  0  0  0  0  0  0  0  0
    3.5383   -4.5032    1.6574 C   0  0  0  0  0  0  0  0  0  0  0  0
    5.2947   -2.8263    2.2901 C   0  0  0  0  0  0  0  0  0  0  0  0
    2.9393   -5.8158    5.4180 C   0  0  0  0  0  0  0  0  0  0  0  0
   -0.2448  -10.6667    5.0890 H   0  0  0  0  0  0  0  0  0  0  0  0
    4.4543   -9.2017    2.2601 H   0  0  0  0  0  0  0  0  0  0  0  0
    0.5068  -12.3961    3.6231 H   0  0  0  0  0  0  0  0  0  0  0  0
    5.1106   -7.4800    3.9926 H   0  0  0  0  0  0  0  0  0  0  0  0
    4.0808   -7.0382    2.6107 H   0  0  0  0  0  0  0  0  0  0  0  0
    6.9345   -5.0230    2.5001 H   0  0  0  0  0  0  0  0  0  0  0  0
    5.8183   -6.2772    2.0074 H   0  0  0  0  0  0  0  0  0  0  0  0
    7.0045   -5.5756    0.0824 H   0  0  0  0  0  0  0  0  0  0  0  0
    7.5929   -3.2741    0.8102 H   0  0  0  0  0  0  0  0  0  0  0  0
    6.8705   -3.2415   -0.7886 H   0  0  0  0  0  0  0  0  0  0  0  0
    5.8615   -1.4852    0.6900 H   0  0  0  0  0  0  0  0  0  0  0  0
    3.4621   -2.0884    0.3681 H   0  0  0  0  0  0  0  0  0  0  0  0
    4.3908   -2.5081   -1.0545 H   0  0  0  0  0  0  0  0  0  0  0  0
    2.9007   -4.3913   -0.4089 H   0  0  0  0  0  0  0  0  0  0  0  0
    5.0712   -5.0326   -1.4027 H   0  0  0  0  0  0  0  0  0  0  0  0
    4.6018   -6.2073   -0.2122 H   0  0  0  0  0  0  0  0  0  0  0  0
    3.1152   -5.5037    1.7191 H   0  0  0  0  0  0  0  0  0  0  0  0
    2.7526   -3.8348    2.0224 H   0  0  0  0  0  0  0  0  0  0  0  0
    4.5322   -2.1422    2.6747 H   0  0  0  0  0  0  0  0  0  0  0  0
    6.2072   -2.6167    2.8541 H   0  0  0  0  0  0  0  0  0  0  0  0
    2.2008   -5.0093    5.3168 H   0  0  0  0  0  0  0  0  0  0  0  0
    3.3872   -5.7677    6.4139 H   0  0  0  0  0  0  0  0  0  0  0  0
    4.1125  -10.7985    1.5780 H   0  0  0  0  0  0  0  0  0  0  0  0
  1  2  2  3
  1 27  1  0
  1 48  1  0
  2 10  1  0
  2  3  1  0
  3  4  2  0
  4  5  1  0
  4 28  1  0
  5 26  1  0
  5  6  1  0
  6 10  2  0
  6  7  1  0
  7  8  1  0
  8 25  1  0
  8  9  2  0
  9 10  1  0
  9 11  1  0
 11 12  1  0
 11 29  1  0
 11 30  1  0
 12 13  1  0
 12 25  1  0
 13 14  2  0
 15 13  1  1
 15 23  1  0
 15 24  1  0
 15 16  1  0
 16 17  1  0
 16 31  1  0
 16 32  1  0
 17 22  1  0
 17 18  1  0
 17 33  1  6
 18 19  1  0
 18 34  1  0
 18 35  1  0
 19 20  1  0
 19 24  1  0
 19 36  1  1
 20 21  1  0
 20 37  1  0
 20 38  1  0
 21 22  1  0
 21 23  1  0
 21 39  1  6
 22 40  1  0
 22 41  1  0
 23 42  1  0
 23 43  1  0
 24 44  1  0
 24 45  1  0
 25 46  1  0
 25 47  1  0
M  CHG  1   1   1
M  END
>  <i_m_ct_stereo_status>  (301) 
1

>  <s_m_source_file>  (301) 
/var/tmp/pbs.5076255.sched01/tmprva83imr/861x3d95ot.sdf

>  <i_m_source_file_index>  (301) 
33

>  <i_lp_mmshare_version>  (301) 
48012

>  <i_f3d_flags>  (301) 
0

>  <s_epik_input>  (301) 
W25IXTFbY0hdbi9jKD1OXFtIXSljKGMxMiljM2MoczIpW0NIMl1OKFtDSDJdMylDKD1PKUM0NVtDSDJdW0NASF02W0NIMl1bQ0BASF0oW0NIMl01KVtDSDJdW0NASF0oW0NIMl02KVtDSDJdNA==

>  <s_epik_cmdline>  (301) 
J2VwaWtfcHl0aG9uJywgJy1waHQnLCAnMi4wJywgJy1waCcsICc3LjAnLCAnLXRuJywgJzgnLCAnLW1hJywgJzIwMCcsICctaW1hZScsICc8aW5maWxlLm1hZT4nLCAnLW9tYWUnLCAnPG91dGZpbGUubWFlPic=

>  <r_epik_Ionization_Penalty>  (301) 
0.00654665

>  <r_epik_Ionization_Penalty_Charging>  (301) 
2.80215e-05

>  <r_epik_Ionization_Penalty_Neutral>  (301) 
0.00651863

>  <r_epik_State_Penalty>  (301) 
0.960987

>  <r_epik_Charging_Adjusted_Penalty>  (301) 
0.961015

>  <i_epik_Tot_Q>  (301) 
1

>  <i_epik_Tot_abs_Q>  (301) 
1

>  <s_epik_Chemistry_Notes>  (301) 
This compound has an imine and may undergo hydrolysis.

>  <s_lp_Force_Field>  (301) 
OPLS3e

>  <r_lp_Energy>  (301) 
37.059

>  <b_lp_Chiralities_Consistent>  (301) 
1

>  <s_lp_Variant>  (301) 
83:0-2

>  <s_i_glide_gridfile>  (301) 
pfpi4k_grid

>  <i_i_glide_lignum>  (301) 
33

>  <i_i_glide_rotatable_bonds>  (301) 
2

>  <r_i_docking_score>  (301) 
-3.79723

>  <r_i_glide_ligand_efficiency>  (301) 
-0.151889

>  <r_i_glide_ligand_efficiency_sa>  (301) 
-0.444127

>  <r_i_glide_ligand_efficiency_ln>  (301) 
-0.900057

>  <r_i_glide_gscore>  (301) 
-3.79723

>  <r_i_glide_lipo>  (301) 
-0.407724

>  <r_i_glide_hbond>  (301) 
-0.36

>  <r_i_glide_metal>  (301) 
-0

>  <r_i_glide_rewards>  (301) 
-1.24407

>  <r_i_glide_evdw>  (301) 
-21.7658

>  <r_i_glide_ecoul>  (301) 
-5.72232

>  <r_i_glide_erotb>  (301) 
0.302633

>  <r_i_glide_esite>  (301) 
-0.141433

>  <r_i_glide_emodel>  (301) 
-32.8986

>  <r_i_glide_energy>  (301) 
-27.4882

>  <r_i_glide_einternal>  (301) 
7.72056

>  <r_i_glide_intrahb_reward>  (301) 
-0

>  <i_i_glide_confnum>  (301) 
3

>  <i_i_glide_posenum>  (301) 
1

>  <r_i_glide_eff_state_penalty>  (301) 
0

>  <ligand_id>  (301) 
83

>  <original_smiles>  (301) 
N=c1nc[nH]c2sc3c(c12)CN(C(=O)C12CC4CC(CC(C4)C1)C2)C3

>  <smiles>  (301) 
[H]c1nc(=[N+]([H])[H])c2c3c(sc2n1[H])C([H])([H])N(C(=O)C12C([H])([H])C4([H])C([H])([H])C([H])(C([H])([H])C([H])(C4([H])[H])C1([H])[H])C2([H])[H])C3([H])[H]

$$$$
83:1:1
     RDKit          3D

 48 53  0  0  1  0  0  0  0  0999 V2000
    4.5248    0.0830    0.4793 N   0  0  0  0  0  0  0  0  0  0  0  0
    4.3520   -1.0659   -0.0726 C   0  0  0  0  0  0  0  0  0  0  0  0
    4.8741   -1.2684   -1.3256 N   0  0  0  0  0  0  0  0  0  0  0  0
    4.7084   -2.4314   -1.8890 C   0  0  0  0  0  0  0  0  0  0  0  0
    4.0310   -3.4960   -1.2874 N   0  0  0  0  0  0  0  0  0  0  0  0
    3.4978   -3.3338   -0.0206 C   0  0  0  0  0  0  0  0  0  0  0  0
    2.6402   -4.5330    0.9334 S   0  0  0  0  0  0  0  0  0  0  0  0
    2.4797   -3.3460    2.2183 C   0  0  0  0  0  0  0  0  0  0  0  0
    3.0416   -2.1546    1.9220 C   0  0  0  0  0  0  0  0  0  0  0  0
    3.6327   -2.1409    0.6441 C   0  0  0  0  0  0  0  0  0  0  0  0
    2.8211   -1.1902    3.0087 C   0  0  0  0  0  0  0  0  0  0  0  0
    1.9284   -1.9255    3.9371 N   0  0  0  0  0  0  0  0  0  0  0  0
    1.2070   -1.3705    4.9362 C   0  0  0  0  0  0  0  0  0  0  0  0
    0.9022   -2.0376    5.9305 O   0  0  0  0  0  0  0  0  0  0  0  0
    0.6506    0.0734    4.7687 C   0  0  1  0  0  0  0  0  0  0  0  0
    1.7859    1.1473    4.8458 C   0  0  0  0  0  0  0  0  0  0  0  0
    1.1857    2.5508    4.6549 C   0  0  2  0  0  0  0  0  0  0  0  0
    0.1961    2.8476    5.7970 C   0  0  0  0  0  0  0  0  0  0  0  0
   -0.9442    1.8093    5.7589 C   0  0  1  0  0  0  0  0  0  0  0  0
   -1.6962    1.9067    4.4169 C   0  0  0  0  0  0  0  0  0  0  0  0
   -0.7108    1.6189    3.2663 C   0  0  1  0  0  0  0  0  0  0  0  0
    0.4574    2.6304    3.2925 C   0  0  0  0  0  0  0  0  0  0  0  0
   -0.1512    0.1951    3.4254 C   0  0  0  0  0  0  0  0  0  0  0  0
   -0.3580    0.3902    5.9197 C   0  0  0  0  0  0  0  0  0  0  0  0
    1.8198   -3.3507    3.5458 C   0  0  0  0  0  0  0  0  0  0  0  0
    3.8960   -4.3885   -1.7499 H   0  0  0  0  0  0  0  0  0  0  0  0
    4.1253    0.2986    1.3856 H   0  0  0  0  0  0  0  0  0  0  0  0
    5.1032   -2.6393   -2.8862 H   0  0  0  0  0  0  0  0  0  0  0  0
    3.7568   -0.9576    3.5218 H   0  0  0  0  0  0  0  0  0  0  0  0
    2.4056   -0.2819    2.5747 H   0  0  0  0  0  0  0  0  0  0  0  0
    2.3022    1.0757    5.8088 H   0  0  0  0  0  0  0  0  0  0  0  0
    2.5480    1.0397    4.0766 H   0  0  0  0  0  0  0  0  0  0  0  0
    1.9947    3.2814    4.6711 H   0  0  0  0  0  0  0  0  0  0  0  0
    0.7191    2.7980    6.7538 H   0  0  0  0  0  0  0  0  0  0  0  0
   -0.1996    3.8618    5.7033 H   0  0  0  0  0  0  0  0  0  0  0  0
   -1.6359    2.0055    6.5753 H   0  0  0  0  0  0  0  0  0  0  0  0
   -2.5067    1.1766    4.3909 H   0  0  0  0  0  0  0  0  0  0  0  0
   -2.1572    2.8896    4.2958 H   0  0  0  0  0  0  0  0  0  0  0  0
   -1.2340    1.6991    2.3110 H   0  0  0  0  0  0  0  0  0  0  0  0
    0.0928    3.6448    3.1120 H   0  0  0  0  0  0  0  0  0  0  0  0
    1.1510    2.4200    2.4772 H   0  0  0  0  0  0  0  0  0  0  0  0
    0.4333   -0.0165    2.5314 H   0  0  0  0  0  0  0  0  0  0  0  0
   -0.9727   -0.5258    3.4135 H   0  0  0  0  0  0  0  0  0  0  0  0
   -1.1707   -0.3418    5.9274 H   0  0  0  0  0  0  0  0  0  0  0  0
    0.1387    0.3138    6.8907 H   0  0  0  0  0  0  0  0  0  0  0  0
    0.7701   -3.6721    3.4898 H   0  0  0  0  0  0  0  0  0  0  0  0
    2.3566   -3.9959    4.2488 H   0  0  0  0  0  0  0  0  0  0  0  0
    4.9961    0.8184   -0.0621 H   0  0  0  0  0  0  0  0  0  0  0  0
  1  2  2  3
  1 27  1  0
  1 48  1  0
  2 10  1  0
  2  3  1  0
  3  4  2  0
  4  5  1  0
  4 28  1  0
  5 26  1  0
  5  6  1  0
  6 10  2  0
  6  7  1  0
  7  8  1  0
  8 25  1  0
  8  9  2  0
  9 10  1  0
  9 11  1  0
 11 12  1  0
 11 29  1  0
 11 30  1  0
 12 13  1  0
 12 25  1  0
 13 14  2  0
 15 13  1  1
 15 23  1  0
 15 24  1  0
 15 16  1  0
 16 17  1  0
 16 31  1  0
 16 32  1  0
 17 22  1  0
 17 18  1  0
 17 33  1  6
 18 19  1  0
 18 34  1  0
 18 35  1  0
 19 20  1  0
 19 24  1  0
 19 36  1  1
 20 21  1  0
 20 37  1  0
 20 38  1  0
 21 22  1  0
 21 23  1  0
 21 39  1  6
 22 40  1  0
 22 41  1  0
 23 42  1  0
 23 43  1  0
 24 44  1  0
 24 45  1  0
 25 46  1  0
 25 47  1  0
M  CHG  1   1   1
M  END
>  <i_m_ct_stereo_status>  (302) 
1

>  <s_m_source_file>  (302) 
/var/tmp/pbs.5076255.sched01/tmprva83imr/861x3d95ot.sdf

>  <i_m_source_file_index>  (302) 
33

>  <i_lp_mmshare_version>  (302) 
48012

>  <i_f3d_flags>  (302) 
0

>  <s_epik_input>  (302) 
W25IXTFbY0hdbi9jKD1OXFtIXSljKGMxMiljM2MoczIpW0NIMl1OKFtDSDJdMylDKD1PKUM0NVtDSDJdW0NASF02W0NIMl1bQ0BASF0oW0NIMl01KVtDSDJdW0NASF0oW0NIMl02KVtDSDJdNA==

>  <s_epik_cmdline>  (302) 
J2VwaWtfcHl0aG9uJywgJy1waHQnLCAnMi4wJywgJy1waCcsICc3LjAnLCAnLXRuJywgJzgnLCAnLW1hJywgJzIwMCcsICctaW1hZScsICc8aW5maWxlLm1hZT4nLCAnLW9tYWUnLCAnPG91dGZpbGUubWFlPic=

>  <r_epik_Ionization_Penalty>  (302) 
0.00654665

>  <r_epik_Ionization_Penalty_Charging>  (302) 
2.80215e-05

>  <r_epik_Ionization_Penalty_Neutral>  (302) 
0.00651863

>  <r_epik_State_Penalty>  (302) 
0.960987

>  <r_epik_Charging_Adjusted_Penalty>  (302) 
0.961015

>  <i_epik_Tot_Q>  (302) 
1

>  <i_epik_Tot_abs_Q>  (302) 
1

>  <s_epik_Chemistry_Notes>  (302) 
This compound has an imine and may undergo hydrolysis.

>  <s_lp_Force_Field>  (302) 
OPLS3e

>  <r_lp_Energy>  (302) 
37.059

>  <b_lp_Chiralities_Consistent>  (302) 
1

>  <s_lp_Variant>  (302) 
83:0-2

>  <s_i_glide_gridfile>  (302) 
pfpi4k_grid

>  <i_i_glide_lignum>  (302) 
33

>  <i_i_glide_rotatable_bonds>  (302) 
2

>  <r_i_docking_score>  (302) 
-3.7673

>  <r_i_glide_ligand_efficiency>  (302) 
-0.150692

>  <r_i_glide_ligand_efficiency_sa>  (302) 
-0.440626

>  <r_i_glide_ligand_efficiency_ln>  (302) 
-0.892963

>  <r_i_glide_gscore>  (302) 
-3.7673

>  <r_i_glide_lipo>  (302) 
-0.0335282

>  <r_i_glide_hbond>  (302) 
-0.236227

>  <r_i_glide_metal>  (302) 
-0

>  <r_i_glide_rewards>  (302) 
-0.988745

>  <r_i_glide_evdw>  (302) 
-23.6595

>  <r_i_glide_ecoul>  (302) 
-10.7536

>  <r_i_glide_erotb>  (302) 
0.302633

>  <r_i_glide_esite>  (302) 
-0.0154181

>  <r_i_glide_emodel>  (302) 
-39.7482

>  <r_i_glide_energy>  (302) 
-34.4131

>  <r_i_glide_einternal>  (302) 
7.84953

>  <r_i_glide_intrahb_reward>  (302) 
-0

>  <i_i_glide_confnum>  (302) 
3

>  <i_i_glide_posenum>  (302) 
20

>  <r_i_glide_eff_state_penalty>  (302) 
0

>  <ligand_id>  (302) 
83

>  <original_smiles>  (302) 
N=c1nc[nH]c2sc3c(c12)CN(C(=O)C12CC4CC(CC(C4)C1)C2)C3

>  <smiles>  (302) 
[H]c1nc(=[N+]([H])[H])c2c3c(sc2n1[H])C([H])([H])N(C(=O)C12C([H])([H])C4([H])C([H])([H])C([H])(C([H])([H])C([H])(C4([H])[H])C1([H])[H])C2([H])[H])C3([H])[H]

$$$$
83:1:2
     RDKit          3D

 48 53  0  0  1  0  0  0  0  0999 V2000
    4.7535   -0.3487   -0.1295 N   0  0  0  0  0  0  0  0  0  0  0  0
    4.1665   -1.3443   -0.6899 C   0  0  0  0  0  0  0  0  0  0  0  0
    3.8372   -1.2378   -2.0159 N   0  0  0  0  0  0  0  0  0  0  0  0
    3.2094   -2.2394   -2.5809 C   0  0  0  0  0  0  0  0  0  0  0  0
    2.8681   -3.4092   -1.8997 N   0  0  0  0  0  0  0  0  0  0  0  0
    3.2068   -3.5628   -0.5710 C   0  0  0  0  0  0  0  0  0  0  0  0
    2.9012   -4.9587    0.4671 S   0  0  0  0  0  0  0  0  0  0  0  0
    3.7090   -4.1182    1.7757 C   0  0  0  0  0  0  0  0  0  0  0  0
    4.1407   -2.8932    1.4336 C   0  0  0  0  0  0  0  0  0  0  0  0
    3.8694   -2.5691    0.0886 C   0  0  0  0  0  0  0  0  0  0  0  0
    4.6981   -2.2051    2.5941 C   0  0  0  0  0  0  0  0  0  0  0  0
    4.4642   -3.1391    3.7135 N   0  0  0  0  0  0  0  0  0  0  0  0
    4.5786   -2.8405    5.0203 C   0  0  0  0  0  0  0  0  0  0  0  0
    4.8961   -3.7108    5.8301 O   0  0  0  0  0  0  0  0  0  0  0  0
    4.1346   -1.4261    5.5159 C   0  0  1  0  0  0  0  0  0  0  0  0
    4.1672   -1.3676    7.0734 C   0  0  0  0  0  0  0  0  0  0  0  0
    3.7165    0.0192    7.5869 C   0  0  2  0  0  0  0  0  0  0  0  0
    2.2662    0.2881    7.1396 C   0  0  0  0  0  0  0  0  0  0  0  0
    2.1944    0.2372    5.5983 C   0  0  1  0  0  0  0  0  0  0  0  0
    3.1198    1.3195    5.0071 C   0  0  0  0  0  0  0  0  0  0  0  0
    4.5718    1.0749    5.4911 C   0  0  1  0  0  0  0  0  0  0  0  0
    4.6533    1.1082    7.0208 C   0  0  0  0  0  0  0  0  0  0  0  0
    5.0773   -0.2846    4.9986 C   0  0  0  0  0  0  0  0  0  0  0  0
    2.6507   -1.1492    5.0984 C   0  0  0  0  0  0  0  0  0  0  0  0
    3.9585   -4.4384    3.2048 C   0  0  0  0  0  0  0  0  0  0  0  0
    2.4273   -4.2013   -2.3602 H   0  0  0  0  0  0  0  0  0  0  0  0
    5.0169   -0.3766    0.8517 H   0  0  0  0  0  0  0  0  0  0  0  0
    2.9101   -2.2058   -3.6315 H   0  0  0  0  0  0  0  0  0  0  0  0
    5.7683   -2.0183    2.4796 H   0  0  0  0  0  0  0  0  0  0  0  0
    4.1450   -1.2749    2.6594 H   0  0  0  0  0  0  0  0  0  0  0  0
    3.5262   -2.1357    7.5131 H   0  0  0  0  0  0  0  0  0  0  0  0
    5.1770   -1.5689    7.4365 H   0  0  0  0  0  0  0  0  0  0  0  0
    3.7713    0.0375    8.6773 H   0  0  0  0  0  0  0  0  0  0  0  0
    1.5973   -0.4576    7.5690 H   0  0  0  0  0  0  0  0  0  0  0  0
    1.9286    1.2582    7.5057 H   0  0  0  0  0  0  0  0  0  0  0  0
    1.1662    0.4247    5.2791 H   0  0  0  0  0  0  0  0  0  0  0  0
    3.0696    1.2950    3.9173 H   0  0  0  0  0  0  0  0  0  0  0  0
    2.7781    2.3172    5.2969 H   0  0  0  0  0  0  0  0  0  0  0  0
    5.2138    1.8466    5.0764 H   0  0  0  0  0  0  0  0  0  0  0  0
    4.3951    2.0978    7.4062 H   0  0  0  0  0  0  0  0  0  0  0  0
    5.6843    0.9056    7.3259 H   0  0  0  0  0  0  0  0  0  0  0  0
    6.0993   -0.4711    5.3373 H   0  0  0  0  0  0  0  0  0  0  0  0
    5.1307   -0.1500    3.9228 H   0  0  0  0  0  0  0  0  0  0  0  0
    2.4962   -1.1868    4.0218 H   0  0  0  0  0  0  0  0  0  0  0  0
    1.9819   -1.9166    5.4989 H   0  0  0  0  0  0  0  0  0  0  0  0
    3.0443   -4.7417    3.7291 H   0  0  0  0  0  0  0  0  0  0  0  0
    4.7131   -5.2211    3.2977 H   0  0  0  0  0  0  0  0  0  0  0  0
    4.9690    0.4879   -0.6776 H   0  0  0  0  0  0  0  0  0  0  0  0
  1  2  2  3
  1 27  1  0
  1 48  1  0
  2 10  1  0
  2  3  1  0
  3  4  2  0
  4  5  1  0
  4 28  1  0
  5 26  1  0
  5  6  1  0
  6 10  2  0
  6  7  1  0
  7  8  1  0
  8 25  1  0
  8  9  2  0
  9 10  1  0
  9 11  1  0
 11 12  1  0
 11 29  1  0
 11 30  1  0
 12 13  1  0
 12 25  1  0
 13 14  2  0
 15 13  1  1
 15 23  1  0
 15 24  1  0
 15 16  1  0
 16 17  1  0
 16 31  1  0
 16 32  1  0
 17 22  1  0
 17 18  1  0
 17 33  1  1
 18 19  1  0
 18 34  1  0
 18 35  1  0
 19 20  1  0
 19 24  1  0
 19 36  1  1
 20 21  1  0
 20 37  1  0
 20 38  1  0
 21 22  1  0
 21 23  1  0
 21 39  1  6
 22 40  1  0
 22 41  1  0
 23 42  1  0
 23 43  1  0
 24 44  1  0
 24 45  1  0
 25 46  1  0
 25 47  1  0
M  CHG  1   1   1
M  END
>  <i_m_ct_stereo_status>  (303) 
1

>  <s_m_source_file>  (303) 
/var/tmp/pbs.5076255.sched01/tmprva83imr/861x3d95ot.sdf

>  <i_m_source_file_index>  (303) 
33

>  <i_lp_mmshare_version>  (303) 
48012

>  <i_f3d_flags>  (303) 
0

>  <s_epik_input>  (303) 
W25IXTFbY0hdbi9jKD1OXFtIXSljKGMxMiljM2MoczIpW0NIMl1OKFtDSDJdMylDKD1PKUM0NVtDSDJdW0NASF02W0NIMl1bQ0BASF0oW0NIMl01KVtDSDJdW0NASF0oW0NIMl02KVtDSDJdNA==

>  <s_epik_cmdline>  (303) 
J2VwaWtfcHl0aG9uJywgJy1waHQnLCAnMi4wJywgJy1waCcsICc3LjAnLCAnLXRuJywgJzgnLCAnLW1hJywgJzIwMCcsICctaW1hZScsICc8aW5maWxlLm1hZT4nLCAnLW9tYWUnLCAnPG91dGZpbGUubWFlPic=

>  <r_epik_Ionization_Penalty>  (303) 
0.00654665

>  <r_epik_Ionization_Penalty_Charging>  (303) 
2.80215e-05

>  <r_epik_Ionization_Penalty_Neutral>  (303) 
0.00651863

>  <r_epik_State_Penalty>  (303) 
0.960987

>  <r_epik_Charging_Adjusted_Penalty>  (303) 
0.961015

>  <i_epik_Tot_Q>  (303) 
1

>  <i_epik_Tot_abs_Q>  (303) 
1

>  <s_epik_Chemistry_Notes>  (303) 
This compound has an imine and may undergo hydrolysis.

>  <s_lp_Force_Field>  (303) 
OPLS3e

>  <r_lp_Energy>  (303) 
37.059

>  <b_lp_Chiralities_Consistent>  (303) 
1

>  <s_lp_Variant>  (303) 
83:0-2

>  <s_i_glide_gridfile>  (303) 
pfpi4k_grid

>  <i_i_glide_lignum>  (303) 
33

>  <i_i_glide_rotatable_bonds>  (303) 
2

>  <r_i_docking_score>  (303) 
-3.3942

>  <r_i_glide_ligand_efficiency>  (303) 
-0.135768

>  <r_i_glide_ligand_efficiency_sa>  (303) 
-0.396988

>  <r_i_glide_ligand_efficiency_ln>  (303) 
-0.804528

>  <r_i_glide_gscore>  (303) 
-3.3942

>  <r_i_glide_lipo>  (303) 
-0.145776

>  <r_i_glide_hbond>  (303) 
-0.220111

>  <r_i_glide_metal>  (303) 
-0

>  <r_i_glide_rewards>  (303) 
-1.02753

>  <r_i_glide_evdw>  (303) 
-18.9467

>  <r_i_glide_ecoul>  (303) 
-8.78341

>  <r_i_glide_erotb>  (303) 
0.302633

>  <r_i_glide_esite>  (303) 
-0.0385717

>  <r_i_glide_emodel>  (303) 
-31.8438

>  <r_i_glide_energy>  (303) 
-27.7301

>  <r_i_glide_einternal>  (303) 
7.76139

>  <r_i_glide_intrahb_reward>  (303) 
-0

>  <i_i_glide_confnum>  (303) 
2

>  <i_i_glide_posenum>  (303) 
4

>  <r_i_glide_eff_state_penalty>  (303) 
0

>  <ligand_id>  (303) 
83

>  <original_smiles>  (303) 
N=c1nc[nH]c2sc3c(c12)CN(C(=O)C12CC4CC(CC(C4)C1)C2)C3

>  <smiles>  (303) 
[H]c1nc(=[N+]([H])[H])c2c3c(sc2n1[H])C([H])([H])N(C(=O)C12C([H])([H])C4([H])C([H])([H])C([H])(C([H])([H])C([H])(C4([H])[H])C1([H])[H])C2([H])[H])C3([H])[H]

$$$$
84:0:0
     RDKit          3D

 30 32  0  0  1  0  0  0  0  0999 V2000
   -0.5345   -0.3438    4.0503 O   0  0  0  0  0  0  0  0  0  0  0  0
    0.2106    0.0661    3.1540 C   0  0  0  0  0  0  0  0  0  0  0  0
   -0.0473    1.2225    2.5181 N   0  0  0  0  0  0  0  0  0  0  0  0
   -1.1457    2.1384    2.8142 C   0  0  0  0  0  0  0  0  0  0  0  0
   -1.2197    2.6037    4.2630 C   0  0  0  0  0  0  0  0  0  0  0  0
   -0.0684    2.6695    5.0767 C   0  0  0  0  0  0  0  0  0  0  0  0
   -0.2046    3.0541    6.4188 C   0  0  0  0  0  0  0  0  0  0  0  0
   -1.4868    3.3817    6.8922 C   0  0  0  0  0  0  0  0  0  0  0  0
   -2.5927    3.3441    6.1195 N   0  0  0  0  0  0  0  0  0  0  0  0
   -2.4572    2.9541    4.8332 C   0  0  0  0  0  0  0  0  0  0  0  0
    1.3738   -0.6998    2.6786 C   0  0  0  0  0  0  0  0  0  0  0  0
    1.4435   -2.0217    2.9465 C   0  0  0  0  0  0  0  0  0  0  0  0
    2.5006   -2.8210    2.5157 N   0  0  0  0  0  0  0  0  0  0  0  0
    3.4519   -2.2673    1.8303 C   0  0  0  0  0  0  0  0  0  0  0  0
    4.9556   -3.0172    1.1214 S   0  0  0  0  0  0  0  0  0  0  0  0
    5.4481   -1.4522    0.5057 C   0  0  0  0  0  0  0  0  0  0  0  0
    4.5770   -0.4840    0.7992 C   0  0  0  0  0  0  0  0  0  0  0  0
    3.4602   -0.8952    1.5286 N   0  0  0  0  0  0  0  0  0  0  0  0
    2.4763   -0.0378    1.9295 C   0  0  0  0  0  0  0  0  0  0  0  0
    2.5534    1.1681    1.6833 O   0  0  0  0  0  0  0  0  0  0  0  0
    0.5872    1.5078    1.7806 H   0  0  0  0  0  0  0  0  0  0  0  0
   -1.0011    3.0208    2.1944 H   0  0  0  0  0  0  0  0  0  0  0  0
   -2.0935    1.6969    2.4954 H   0  0  0  0  0  0  0  0  0  0  0  0
    0.9072    2.3997    4.6934 H   0  0  0  0  0  0  0  0  0  0  0  0
    0.6569    3.0892    7.0693 H   0  0  0  0  0  0  0  0  0  0  0  0
   -1.6269    3.6977    7.9149 H   0  0  0  0  0  0  0  0  0  0  0  0
   -3.3650    2.9256    4.2508 H   0  0  0  0  0  0  0  0  0  0  0  0
    0.6604   -2.5282    3.4974 H   0  0  0  0  0  0  0  0  0  0  0  0
    6.3639   -1.3426   -0.0521 H   0  0  0  0  0  0  0  0  0  0  0  0
    4.6525    0.5586    0.5159 H   0  0  0  0  0  0  0  0  0  0  0  0
  1  2  2  0
  2  3  1  0
  2 11  1  0
  3  4  1  0
  3 21  1  0
  4  5  1  0
  4 22  1  0
  4 23  1  0
  5 10  1  0
  5  6  2  0
  6  7  1  0
  6 24  1  0
  7  8  2  0
  7 25  1  0
  8  9  1  0
  8 26  1  0
  9 10  2  0
 10 27  1  0
 11 19  1  0
 11 12  2  0
 12 13  1  0
 12 28  1  0
 13 14  2  0
 14 18  1  0
 14 15  1  0
 15 16  1  0
 16 17  2  0
 16 29  1  0
 17 18  1  0
 17 30  1  0
 18 19  1  0
 19 20  2  0
M  END
>  <i_m_ct_stereo_status>  (304) 
1

>  <s_m_source_file>  (304) 
/var/tmp/pbs.5076255.sched01/tmprva83imr/861x3d95ot.sdf

>  <i_m_source_file_index>  (304) 
34

>  <i_lp_mmshare_version>  (304) 
48012

>  <i_f3d_flags>  (304) 
0

>  <s_epik_input>  (304) 
czFbY0hdW2NIXW4oYzEyKWMoPU8pYyhbY0hdbjIpQyg9TylbTkhdW0NIMl1jM1tjSF1bY0hdW2NIXW5bY0hdMw==

>  <s_epik_cmdline>  (304) 
J2VwaWtfcHl0aG9uJywgJy1waHQnLCAnMi4wJywgJy1waCcsICc3LjAnLCAnLXRuJywgJzgnLCAnLW1hJywgJzIwMCcsICctaW1hZScsICc8aW5maWxlLm1hZT4nLCAnLW9tYWUnLCAnPG91dGZpbGUubWFlPic=

>  <r_epik_Ionization_Penalty>  (304) 
0.00763836

>  <r_epik_Ionization_Penalty_Charging>  (304) 
0

>  <r_epik_Ionization_Penalty_Neutral>  (304) 
0.00763836

>  <r_epik_State_Penalty>  (304) 
0.0057156

>  <r_epik_Charging_Adjusted_Penalty>  (304) 
0.0057156

>  <i_epik_Tot_Q>  (304) 
0

>  <i_epik_Tot_abs_Q>  (304) 
0

>  <s_lp_Force_Field>  (304) 
OPLS3e

>  <r_lp_Energy>  (304) 
46.9407

>  <b_lp_Chiralities_Consistent>  (304) 
1

>  <s_lp_Variant>  (304) 
84:0-1

>  <s_i_glide_gridfile>  (304) 
pfpi4k_grid

>  <i_i_glide_lignum>  (304) 
34

>  <i_i_glide_rotatable_bonds>  (304) 
4

>  <r_i_docking_score>  (304) 
-3.59521

>  <r_i_glide_ligand_efficiency>  (304) 
-0.17976

>  <r_i_glide_ligand_efficiency_sa>  (304) 
-0.487945

>  <r_i_glide_ligand_efficiency_ln>  (304) 
-0.899761

>  <r_i_glide_gscore>  (304) 
-3.59521

>  <r_i_glide_lipo>  (304) 
-0.28443

>  <r_i_glide_hbond>  (304) 
0

>  <r_i_glide_metal>  (304) 
-0

>  <r_i_glide_rewards>  (304) 
-1.95698

>  <r_i_glide_evdw>  (304) 
-24.9169

>  <r_i_glide_ecoul>  (304) 
-2.95822

>  <r_i_glide_erotb>  (304) 
0.44302

>  <r_i_glide_esite>  (304) 
-0.107243

>  <r_i_glide_emodel>  (304) 
-40.0305

>  <r_i_glide_energy>  (304) 
-27.8751

>  <r_i_glide_einternal>  (304) 
1.02719

>  <r_i_glide_intrahb_reward>  (304) 
-0.5

>  <i_i_glide_confnum>  (304) 
3

>  <i_i_glide_posenum>  (304) 
36

>  <r_i_glide_eff_state_penalty>  (304) 
0

>  <ligand_id>  (304) 
84

>  <original_smiles>  (304) 
O=C(NCc1cccnc1)c1cnc2sccn2c1=O

>  <smiles>  (304) 
[H]c1nc([H])c(C([H])([H])N([H])C(=O)c2c([H])nc3sc([H])c([H])n3c2=O)c([H])c1[H]

$$$$
84:0:1
     RDKit          3D

 30 32  0  0  1  0  0  0  0  0999 V2000
   -0.1334   -0.7953    3.9182 O   0  0  0  0  0  0  0  0  0  0  0  0
    0.6289   -0.3303    3.0775 C   0  0  0  0  0  0  0  0  0  0  0  0
    0.3158    0.7919    2.4035 N   0  0  0  0  0  0  0  0  0  0  0  0
   -0.9386    1.5483    2.4574 C   0  0  0  0  0  0  0  0  0  0  0  0
   -1.2663    2.1708    3.8147 C   0  0  0  0  0  0  0  0  0  0  0  0
   -1.6908    1.3841    4.9113 C   0  0  0  0  0  0  0  0  0  0  0  0
   -1.8171    2.0071    6.1583 C   0  0  0  0  0  0  0  0  0  0  0  0
   -1.6739    3.4053    6.2360 C   0  0  0  0  0  0  0  0  0  0  0  0
   -1.3855    4.1824    5.1693 N   0  0  0  0  0  0  0  0  0  0  0  0
   -1.1495    3.5714    3.9891 C   0  0  0  0  0  0  0  0  0  0  0  0
    1.8722   -1.0213    2.6893 C   0  0  0  0  0  0  0  0  0  0  0  0
    2.0308   -2.3136    3.0327 C   0  0  0  0  0  0  0  0  0  0  0  0
    3.1736   -3.0506    2.7333 N   0  0  0  0  0  0  0  0  0  0  0  0
    4.1147   -2.4556    2.0751 C   0  0  0  0  0  0  0  0  0  0  0  0
    5.6931   -3.1393    1.5088 S   0  0  0  0  0  0  0  0  0  0  0  0
    6.1182   -1.5738    0.8302 C   0  0  0  0  0  0  0  0  0  0  0  0
    5.1677   -0.6563    1.0067 C   0  0  0  0  0  0  0  0  0  0  0  0
    4.0393   -1.1081    1.6914 N   0  0  0  0  0  0  0  0  0  0  0  0
    2.9715   -0.3098    1.9789 C   0  0  0  0  0  0  0  0  0  0  0  0
    2.9944    0.8841    1.6764 O   0  0  0  0  0  0  0  0  0  0  0  0
    0.9492    1.0919    1.6672 H   0  0  0  0  0  0  0  0  0  0  0  0
   -0.8565    2.3292    1.7003 H   0  0  0  0  0  0  0  0  0  0  0  0
   -1.7752    0.9224    2.1333 H   0  0  0  0  0  0  0  0  0  0  0  0
   -1.8941    0.3306    4.8208 H   0  0  0  0  0  0  0  0  0  0  0  0
   -2.0537    1.4171    7.0245 H   0  0  0  0  0  0  0  0  0  0  0  0
   -1.8416    3.9094    7.1786 H   0  0  0  0  0  0  0  0  0  0  0  0
   -0.8962    4.2291    3.1601 H   0  0  0  0  0  0  0  0  0  0  0  0
    1.2479   -2.8084    3.5850 H   0  0  0  0  0  0  0  0  0  0  0  0
    7.0640   -1.4100    0.3277 H   0  0  0  0  0  0  0  0  0  0  0  0
    5.1734    0.3790    0.6789 H   0  0  0  0  0  0  0  0  0  0  0  0
  1  2  2  0
  2  3  1  0
  2 11  1  0
  3  4  1  0
  3 21  1  0
  4  5  1  0
  4 22  1  0
  4 23  1  0
  5 10  1  0
  5  6  2  0
  6  7  1  0
  6 24  1  0
  7  8  2  0
  7 25  1  0
  8  9  1  0
  8 26  1  0
  9 10  2  0
 10 27  1  0
 11 19  1  0
 11 12  2  0
 12 13  1  0
 12 28  1  0
 13 14  2  0
 14 18  1  0
 14 15  1  0
 15 16  1  0
 16 17  2  0
 16 29  1  0
 17 18  1  0
 17 30  1  0
 18 19  1  0
 19 20  2  0
M  END
>  <i_m_ct_stereo_status>  (305) 
1

>  <s_m_source_file>  (305) 
/var/tmp/pbs.5076255.sched01/tmprva83imr/861x3d95ot.sdf

>  <i_m_source_file_index>  (305) 
34

>  <i_lp_mmshare_version>  (305) 
48012

>  <i_f3d_flags>  (305) 
0

>  <s_epik_input>  (305) 
czFbY0hdW2NIXW4oYzEyKWMoPU8pYyhbY0hdbjIpQyg9TylbTkhdW0NIMl1jM1tjSF1bY0hdW2NIXW5bY0hdMw==

>  <s_epik_cmdline>  (305) 
J2VwaWtfcHl0aG9uJywgJy1waHQnLCAnMi4wJywgJy1waCcsICc3LjAnLCAnLXRuJywgJzgnLCAnLW1hJywgJzIwMCcsICctaW1hZScsICc8aW5maWxlLm1hZT4nLCAnLW9tYWUnLCAnPG91dGZpbGUubWFlPic=

>  <r_epik_Ionization_Penalty>  (305) 
0.00763836

>  <r_epik_Ionization_Penalty_Charging>  (305) 
0

>  <r_epik_Ionization_Penalty_Neutral>  (305) 
0.00763836

>  <r_epik_State_Penalty>  (305) 
0.0057156

>  <r_epik_Charging_Adjusted_Penalty>  (305) 
0.0057156

>  <i_epik_Tot_Q>  (305) 
0

>  <i_epik_Tot_abs_Q>  (305) 
0

>  <s_lp_Force_Field>  (305) 
OPLS3e

>  <r_lp_Energy>  (305) 
46.9407

>  <b_lp_Chiralities_Consistent>  (305) 
1

>  <s_lp_Variant>  (305) 
84:0-1

>  <s_i_glide_gridfile>  (305) 
pfpi4k_grid

>  <i_i_glide_lignum>  (305) 
34

>  <i_i_glide_rotatable_bonds>  (305) 
4

>  <r_i_docking_score>  (305) 
-3.5392

>  <r_i_glide_ligand_efficiency>  (305) 
-0.17696

>  <r_i_glide_ligand_efficiency_sa>  (305) 
-0.480343

>  <r_i_glide_ligand_efficiency_ln>  (305) 
-0.885744

>  <r_i_glide_gscore>  (305) 
-3.5392

>  <r_i_glide_lipo>  (305) 
-0.399899

>  <r_i_glide_hbond>  (305) 
0

>  <r_i_glide_metal>  (305) 
-0

>  <r_i_glide_rewards>  (305) 
-1.96418

>  <r_i_glide_evdw>  (305) 
-25.061

>  <r_i_glide_ecoul>  (305) 
-1.92961

>  <r_i_glide_erotb>  (305) 
0.44302

>  <r_i_glide_esite>  (305) 
-0.0756477

>  <r_i_glide_emodel>  (305) 
-37.5328

>  <r_i_glide_energy>  (305) 
-26.9906

>  <r_i_glide_einternal>  (305) 
2.07165

>  <r_i_glide_intrahb_reward>  (305) 
-0.5

>  <i_i_glide_confnum>  (305) 
3

>  <i_i_glide_posenum>  (305) 
31

>  <r_i_glide_eff_state_penalty>  (305) 
0

>  <ligand_id>  (305) 
84

>  <original_smiles>  (305) 
O=C(NCc1cccnc1)c1cnc2sccn2c1=O

>  <smiles>  (305) 
[H]c1nc([H])c(C([H])([H])N([H])C(=O)c2c([H])nc3sc([H])c([H])n3c2=O)c([H])c1[H]

$$$$
84:0:2
     RDKit          3D

 30 32  0  0  1  0  0  0  0  0999 V2000
    4.2629    0.1237    2.8224 O   0  0  0  0  0  0  0  0  0  0  0  0
    3.1380    0.2895    2.3454 C   0  0  0  0  0  0  0  0  0  0  0  0
    2.7379   -0.4219    1.2792 N   0  0  0  0  0  0  0  0  0  0  0  0
    3.5426   -1.4166    0.5792 C   0  0  0  0  0  0  0  0  0  0  0  0
    3.5207   -2.7980    1.2181 C   0  0  0  0  0  0  0  0  0  0  0  0
    4.5368   -3.7311    0.9275 C   0  0  0  0  0  0  0  0  0  0  0  0
    4.4806   -5.0015    1.5316 C   0  0  0  0  0  0  0  0  0  0  0  0
    3.4058   -5.2916    2.3925 C   0  0  0  0  0  0  0  0  0  0  0  0
    2.4188   -4.4150    2.6652 N   0  0  0  0  0  0  0  0  0  0  0  0
    2.4879   -3.1949    2.0958 C   0  0  0  0  0  0  0  0  0  0  0  0
    2.1934    1.3028    2.8440 C   0  0  0  0  0  0  0  0  0  0  0  0
    2.6637    2.3796    3.5153 C   0  0  0  0  0  0  0  0  0  0  0  0
    1.8324    3.3789    4.0094 N   0  0  0  0  0  0  0  0  0  0  0  0
    0.5564    3.2723    3.8162 C   0  0  0  0  0  0  0  0  0  0  0  0
   -0.7848    4.3881    4.3299 S   0  0  0  0  0  0  0  0  0  0  0  0
   -1.9608    3.2968    3.6283 C   0  0  0  0  0  0  0  0  0  0  0  0
   -1.4045    2.2194    3.0708 C   0  0  0  0  0  0  0  0  0  0  0  0
   -0.0118    2.1702    3.1473 N   0  0  0  0  0  0  0  0  0  0  0  0
    0.7311    1.1419    2.6417 C   0  0  0  0  0  0  0  0  0  0  0  0
    0.1904    0.1717    2.1052 O   0  0  0  0  0  0  0  0  0  0  0  0
    1.7975   -0.2734    0.9229 H   0  0  0  0  0  0  0  0  0  0  0  0
    3.1508   -1.5011   -0.4362 H   0  0  0  0  0  0  0  0  0  0  0  0
    4.5750   -1.0696    0.4813 H   0  0  0  0  0  0  0  0  0  0  0  0
    5.3454   -3.4804    0.2571 H   0  0  0  0  0  0  0  0  0  0  0  0
    5.2435   -5.7397    1.3416 H   0  0  0  0  0  0  0  0  0  0  0  0
    3.3331   -6.2539    2.8775 H   0  0  0  0  0  0  0  0  0  0  0  0
    1.6710   -2.5306    2.3387 H   0  0  0  0  0  0  0  0  0  0  0  0
    3.7225    2.5256    3.6825 H   0  0  0  0  0  0  0  0  0  0  0  0
   -3.0141    3.5311    3.6609 H   0  0  0  0  0  0  0  0  0  0  0  0
   -1.9243    1.4154    2.5643 H   0  0  0  0  0  0  0  0  0  0  0  0
  1  2  2  0
  2  3  1  0
  2 11  1  0
  3  4  1  0
  3 21  1  0
  4  5  1  0
  4 22  1  0
  4 23  1  0
  5 10  1  0
  5  6  2  0
  6  7  1  0
  6 24  1  0
  7  8  2  0
  7 25  1  0
  8  9  1  0
  8 26  1  0
  9 10  2  0
 10 27  1  0
 11 19  1  0
 11 12  2  0
 12 13  1  0
 12 28  1  0
 13 14  2  0
 14 18  1  0
 14 15  1  0
 15 16  1  0
 16 17  2  0
 16 29  1  0
 17 18  1  0
 17 30  1  0
 18 19  1  0
 19 20  2  0
M  END
>  <i_m_ct_stereo_status>  (306) 
1

>  <s_m_source_file>  (306) 
/var/tmp/pbs.5076255.sched01/tmprva83imr/861x3d95ot.sdf

>  <i_m_source_file_index>  (306) 
34

>  <i_lp_mmshare_version>  (306) 
48012

>  <i_f3d_flags>  (306) 
0

>  <s_epik_input>  (306) 
czFbY0hdW2NIXW4oYzEyKWMoPU8pYyhbY0hdbjIpQyg9TylbTkhdW0NIMl1jM1tjSF1bY0hdW2NIXW5bY0hdMw==

>  <s_epik_cmdline>  (306) 
J2VwaWtfcHl0aG9uJywgJy1waHQnLCAnMi4wJywgJy1waCcsICc3LjAnLCAnLXRuJywgJzgnLCAnLW1hJywgJzIwMCcsICctaW1hZScsICc8aW5maWxlLm1hZT4nLCAnLW9tYWUnLCAnPG91dGZpbGUubWFlPic=

>  <r_epik_Ionization_Penalty>  (306) 
0.00763836

>  <r_epik_Ionization_Penalty_Charging>  (306) 
0

>  <r_epik_Ionization_Penalty_Neutral>  (306) 
0.00763836

>  <r_epik_State_Penalty>  (306) 
0.0057156

>  <r_epik_Charging_Adjusted_Penalty>  (306) 
0.0057156

>  <i_epik_Tot_Q>  (306) 
0

>  <i_epik_Tot_abs_Q>  (306) 
0

>  <s_lp_Force_Field>  (306) 
OPLS3e

>  <r_lp_Energy>  (306) 
46.9407

>  <b_lp_Chiralities_Consistent>  (306) 
1

>  <s_lp_Variant>  (306) 
84:0-1

>  <s_i_glide_gridfile>  (306) 
pfpi4k_grid

>  <i_i_glide_lignum>  (306) 
34

>  <i_i_glide_rotatable_bonds>  (306) 
4

>  <r_i_docking_score>  (306) 
-3.44299

>  <r_i_glide_ligand_efficiency>  (306) 
-0.17215

>  <r_i_glide_ligand_efficiency_sa>  (306) 
-0.467286

>  <r_i_glide_ligand_efficiency_ln>  (306) 
-0.861667

>  <r_i_glide_gscore>  (306) 
-3.44299

>  <r_i_glide_lipo>  (306) 
-0.0618123

>  <r_i_glide_hbond>  (306) 
-0.0897032

>  <r_i_glide_metal>  (306) 
-0

>  <r_i_glide_rewards>  (306) 
-2.03326

>  <r_i_glide_evdw>  (306) 
-23.3864

>  <r_i_glide_ecoul>  (306) 
-2.26787

>  <r_i_glide_erotb>  (306) 
0.44302

>  <r_i_glide_esite>  (306) 
-0.191732

>  <r_i_glide_emodel>  (306) 
-37.5748

>  <r_i_glide_energy>  (306) 
-25.6543

>  <r_i_glide_einternal>  (306) 
1.19177

>  <r_i_glide_intrahb_reward>  (306) 
-0.5

>  <i_i_glide_confnum>  (306) 
1

>  <i_i_glide_posenum>  (306) 
4

>  <r_i_glide_eff_state_penalty>  (306) 
0

>  <ligand_id>  (306) 
84

>  <original_smiles>  (306) 
O=C(NCc1cccnc1)c1cnc2sccn2c1=O

>  <smiles>  (306) 
[H]c1nc([H])c(C([H])([H])N([H])C(=O)c2c([H])nc3sc([H])c([H])n3c2=O)c([H])c1[H]

$$$$
85:0:0
     RDKit          3D

 20 21  0  0  1  0  0  0  0  0999 V2000
    3.9841   -1.0860   -1.6380 C   0  0  0  0  0  0  0  0  0  0  0  0
    3.8358   -2.5022   -2.1865 C   0  0  1  0  0  0  0  0  0  0  0  0
    4.4761   -3.5395   -1.2727 C   0  0  0  0  0  0  0  0  0  0  0  0
    5.8333   -3.2063   -0.8883 N   0  0  0  0  0  0  0  0  0  0  0  0
    6.3920   -3.1131    0.3236 C   0  0  0  0  0  0  0  0  0  0  0  0
    7.6711   -2.7791    0.2394 N   0  0  0  0  0  0  0  0  0  0  0  0
    7.8889   -2.6953   -1.1249 N   0  0  0  0  0  0  0  0  0  0  0  0
    6.8047   -2.9583   -1.8010 N   0  0  0  0  0  0  0  0  0  0  0  0
    2.5640   -2.8625   -2.9170 C   0  0  0  0  0  0  0  0  0  0  0  0
    3.8501   -2.7090   -3.6942 C   0  0  0  0  0  0  0  0  0  0  0  0
    4.0688   -1.3019   -4.7147 Cl  0  0  0  0  0  0  0  0  0  0  0  0
    4.6293   -4.1267   -4.3819 Cl  0  0  0  0  0  0  0  0  0  0  0  0
    3.6034   -1.0271   -0.6190 H   0  0  0  0  0  0  0  0  0  0  0  0
    3.4231   -0.3846   -2.2538 H   0  0  0  0  0  0  0  0  0  0  0  0
    5.0253   -0.7602   -1.6486 H   0  0  0  0  0  0  0  0  0  0  0  0
    3.8569   -3.6406   -0.3795 H   0  0  0  0  0  0  0  0  0  0  0  0
    4.4953   -4.5174   -1.7539 H   0  0  0  0  0  0  0  0  0  0  0  0
    5.8535   -3.2801    1.2460 H   0  0  0  0  0  0  0  0  0  0  0  0
    2.1640   -3.8623   -2.7821 H   0  0  0  0  0  0  0  0  0  0  0  0
    1.8152   -2.0824   -3.0229 H   0  0  0  0  0  0  0  0  0  0  0  0
  2  1  1  6
  1 13  1  0
  1 14  1  0
  1 15  1  0
  2 10  1  0
  2  3  1  0
  2  9  1  0
  3  4  1  0
  3 16  1  0
  3 17  1  0
  4  8  1  0
  4  5  1  0
  5  6  2  0
  5 18  1  0
  6  7  1  0
  7  8  2  0
  9 10  1  0
  9 19  1  0
  9 20  1  0
 10 11  1  0
 10 12  1  0
M  END
>  <i_m_ct_stereo_status>  (307) 
1

>  <s_m_source_file>  (307) 
/var/tmp/pbs.5076255.sched01/tmprva83imr/861x3d95ot.sdf

>  <i_m_source_file_index>  (307) 
35

>  <i_lp_mmshare_version>  (307) 
48012

>  <i_f3d_flags>  (307) 
0

>  <s_epik_input>  (307) 
Q2xDMShDbClbQ0gyXVtDQEBdMShbQ0gzXSlbQ0gyXW4yW2NIXW5ubjI=

>  <s_epik_cmdline>  (307) 
J2VwaWtfcHl0aG9uJywgJy1waHQnLCAnMi4wJywgJy1waCcsICc3LjAnLCAnLXRuJywgJzgnLCAnLW1hJywgJzIwMCcsICctaW1hZScsICc8aW5maWxlLm1hZT4nLCAnLW9tYWUnLCAnPG91dGZpbGUubWFlPic=

>  <r_lp_tautomer_probability>  (307) 
1

>  <r_epik_Ionization_Penalty>  (307) 
3.38335e-09

>  <r_epik_Ionization_Penalty_Charging>  (307) 
0

>  <r_epik_Ionization_Penalty_Neutral>  (307) 
3.38335e-09

>  <r_epik_State_Penalty>  (307) 
-0

>  <r_epik_Charging_Adjusted_Penalty>  (307) 
0

>  <i_epik_Tot_Q>  (307) 
0

>  <i_epik_Tot_abs_Q>  (307) 
0

>  <s_lp_Force_Field>  (307) 
OPLS3e

>  <r_lp_Energy>  (307) 
8.13119

>  <b_lp_Chiralities_Consistent>  (307) 
1

>  <s_lp_Variant>  (307) 
85:0-1

>  <s_i_glide_gridfile>  (307) 
pfpi4k_grid

>  <i_i_glide_lignum>  (307) 
35

>  <i_i_glide_rotatable_bonds>  (307) 
2

>  <r_i_docking_score>  (307) 
-3.29937

>  <r_i_glide_ligand_efficiency>  (307) 
-0.274947

>  <r_i_glide_ligand_efficiency_sa>  (307) 
-0.629472

>  <r_i_glide_ligand_efficiency_ln>  (307) 
-0.946759

>  <r_i_glide_gscore>  (307) 
-3.29937

>  <r_i_glide_lipo>  (307) 
-0.23047

>  <r_i_glide_hbond>  (307) 
0

>  <r_i_glide_metal>  (307) 
-0

>  <r_i_glide_rewards>  (307) 
-2.21098

>  <r_i_glide_evdw>  (307) 
-21.1653

>  <r_i_glide_ecoul>  (307) 
-3.3287

>  <r_i_glide_erotb>  (307) 
0.770685

>  <r_i_glide_esite>  (307) 
-0.0710307

>  <r_i_glide_emodel>  (307) 
-29.4756

>  <r_i_glide_energy>  (307) 
-24.494

>  <r_i_glide_einternal>  (307) 
0.189807

>  <r_i_glide_intrahb_reward>  (307) 
-0

>  <i_i_glide_confnum>  (307) 
6

>  <i_i_glide_posenum>  (307) 
6

>  <r_i_glide_eff_state_penalty>  (307) 
0

>  <ligand_id>  (307) 
85

>  <original_smiles>  (307) 
CC1(Cn2cnnn2)CC1(Cl)Cl

>  <smiles>  (307) 
[H]c1nnnn1C([H])([H])C1(C([H])([H])[H])C([H])([H])C1(Cl)Cl

$$$$
85:0:1
     RDKit          3D

 20 21  0  0  1  0  0  0  0  0999 V2000
    4.6743   -0.9443   -1.8149 C   0  0  0  0  0  0  0  0  0  0  0  0
    4.4225   -2.4152   -2.1605 C   0  0  1  0  0  0  0  0  0  0  0  0
    5.3661   -3.3901   -1.4398 C   0  0  0  0  0  0  0  0  0  0  0  0
    5.3970   -3.2605    0.0040 N   0  0  0  0  0  0  0  0  0  0  0  0
    4.8192   -3.9733    0.9522 C   0  0  0  0  0  0  0  0  0  0  0  0
    5.0462   -3.4657    2.1510 N   0  0  0  0  0  0  0  0  0  0  0  0
    5.8539   -2.3826    1.8972 N   0  0  0  0  0  0  0  0  0  0  0  0
    6.1211   -2.2889    0.6231 N   0  0  0  0  0  0  0  0  0  0  0  0
    2.9999   -2.8534   -2.4525 C   0  0  0  0  0  0  0  0  0  0  0  0
    3.9893   -2.7421   -3.5784 C   0  0  0  0  0  0  0  0  0  0  0  0
    3.8022   -1.4500   -4.7296 Cl  0  0  0  0  0  0  0  0  0  0  0  0
    4.6009   -4.1860   -4.3634 Cl  0  0  0  0  0  0  0  0  0  0  0  0
    4.5458   -0.7361   -0.7552 H   0  0  0  0  0  0  0  0  0  0  0  0
    3.9459   -0.3018   -2.3136 H   0  0  0  0  0  0  0  0  0  0  0  0
    5.6709   -0.6468   -2.1361 H   0  0  0  0  0  0  0  0  0  0  0  0
    5.0395   -4.4119   -1.6521 H   0  0  0  0  0  0  0  0  0  0  0  0
    6.3679   -3.2918   -1.8469 H   0  0  0  0  0  0  0  0  0  0  0  0
    4.2317   -4.8628    0.7794 H   0  0  0  0  0  0  0  0  0  0  0  0
    2.7018   -3.8520   -2.1365 H   0  0  0  0  0  0  0  0  0  0  0  0
    2.2192   -2.0944   -2.3806 H   0  0  0  0  0  0  0  0  0  0  0  0
  2  1  1  6
  1 13  1  0
  1 14  1  0
  1 15  1  0
  2 10  1  0
  2  3  1  0
  2  9  1  0
  3  4  1  0
  3 16  1  0
  3 17  1  0
  4  8  1  0
  4  5  1  0
  5  6  2  0
  5 18  1  0
  6  7  1  0
  7  8  2  0
  9 10  1  0
  9 19  1  0
  9 20  1  0
 10 11  1  0
 10 12  1  0
M  END
>  <i_m_ct_stereo_status>  (308) 
1

>  <s_m_source_file>  (308) 
/var/tmp/pbs.5076255.sched01/tmprva83imr/861x3d95ot.sdf

>  <i_m_source_file_index>  (308) 
35

>  <i_lp_mmshare_version>  (308) 
48012

>  <i_f3d_flags>  (308) 
0

>  <s_epik_input>  (308) 
Q2xDMShDbClbQ0gyXVtDQEBdMShbQ0gzXSlbQ0gyXW4yW2NIXW5ubjI=

>  <s_epik_cmdline>  (308) 
J2VwaWtfcHl0aG9uJywgJy1waHQnLCAnMi4wJywgJy1waCcsICc3LjAnLCAnLXRuJywgJzgnLCAnLW1hJywgJzIwMCcsICctaW1hZScsICc8aW5maWxlLm1hZT4nLCAnLW9tYWUnLCAnPG91dGZpbGUubWFlPic=

>  <r_lp_tautomer_probability>  (308) 
1

>  <r_epik_Ionization_Penalty>  (308) 
3.38335e-09

>  <r_epik_Ionization_Penalty_Charging>  (308) 
0

>  <r_epik_Ionization_Penalty_Neutral>  (308) 
3.38335e-09

>  <r_epik_State_Penalty>  (308) 
-0

>  <r_epik_Charging_Adjusted_Penalty>  (308) 
0

>  <i_epik_Tot_Q>  (308) 
0

>  <i_epik_Tot_abs_Q>  (308) 
0

>  <s_lp_Force_Field>  (308) 
OPLS3e

>  <r_lp_Energy>  (308) 
8.13119

>  <b_lp_Chiralities_Consistent>  (308) 
1

>  <s_lp_Variant>  (308) 
85:0-1

>  <s_i_glide_gridfile>  (308) 
pfpi4k_grid

>  <i_i_glide_lignum>  (308) 
35

>  <i_i_glide_rotatable_bonds>  (308) 
2

>  <r_i_docking_score>  (308) 
-2.9156

>  <r_i_glide_ligand_efficiency>  (308) 
-0.242967

>  <r_i_glide_ligand_efficiency_sa>  (308) 
-0.556255

>  <r_i_glide_ligand_efficiency_ln>  (308) 
-0.836637

>  <r_i_glide_gscore>  (308) 
-2.9156

>  <r_i_glide_lipo>  (308) 
-0.343518

>  <r_i_glide_hbond>  (308) 
0

>  <r_i_glide_metal>  (308) 
-0

>  <r_i_glide_rewards>  (308) 
-2.10568

>  <r_i_glide_evdw>  (308) 
-17.9594

>  <r_i_glide_ecoul>  (308) 
-2.26079

>  <r_i_glide_erotb>  (308) 
0.770685

>  <r_i_glide_esite>  (308) 
0

>  <r_i_glide_emodel>  (308) 
-23.9629

>  <r_i_glide_energy>  (308) 
-20.2202

>  <r_i_glide_einternal>  (308) 
0.995813

>  <r_i_glide_intrahb_reward>  (308) 
-0

>  <i_i_glide_confnum>  (308) 
3

>  <i_i_glide_posenum>  (308) 
27

>  <r_i_glide_eff_state_penalty>  (308) 
0

>  <ligand_id>  (308) 
85

>  <original_smiles>  (308) 
CC1(Cn2cnnn2)CC1(Cl)Cl

>  <smiles>  (308) 
[H]c1nnnn1C([H])([H])C1(C([H])([H])[H])C([H])([H])C1(Cl)Cl

$$$$
85:0:2
     RDKit          3D

 20 21  0  0  1  0  0  0  0  0999 V2000
    4.6528   -1.0554   -1.6946 C   0  0  0  0  0  0  0  0  0  0  0  0
    4.3404   -2.4655   -2.1771 C   0  0  1  0  0  0  0  0  0  0  0  0
    5.0984   -3.5062   -1.3346 C   0  0  0  0  0  0  0  0  0  0  0  0
    4.2389   -4.2045   -0.3848 N   0  0  0  0  0  0  0  0  0  0  0  0
    3.0822   -3.8944    0.1812 C   0  0  0  0  0  0  0  0  0  0  0  0
    2.6254   -4.8752    0.9491 N   0  0  0  0  0  0  0  0  0  0  0  0
    3.6254   -5.8322    0.8604 N   0  0  0  0  0  0  0  0  0  0  0  0
    4.5936   -5.4316    0.0912 N   0  0  0  0  0  0  0  0  0  0  0  0
    2.9286   -2.7610   -2.6748 C   0  0  0  0  0  0  0  0  0  0  0  0
    4.0548   -2.6918   -3.6560 C   0  0  0  0  0  0  0  0  0  0  0  0
    4.0794   -1.3100   -4.7298 Cl  0  0  0  0  0  0  0  0  0  0  0  0
    4.5613   -4.1707   -4.4548 Cl  0  0  0  0  0  0  0  0  0  0  0  0
    4.4915   -0.9533   -0.6212 H   0  0  0  0  0  0  0  0  0  0  0  0
    4.0074   -0.3191   -2.1887 H   0  0  0  0  0  0  0  0  0  0  0  0
    5.6851   -0.7887   -1.9230 H   0  0  0  0  0  0  0  0  0  0  0  0
    5.5565   -4.2444   -1.9836 H   0  0  0  0  0  0  0  0  0  0  0  0
    5.9204   -3.0312   -0.7998 H   0  0  0  0  0  0  0  0  0  0  0  0
    2.5352   -2.9808   -0.0034 H   0  0  0  0  0  0  0  0  0  0  0  0
    2.4866   -3.7392   -2.5148 H   0  0  0  0  0  0  0  0  0  0  0  0
    2.2237   -1.9288   -2.6286 H   0  0  0  0  0  0  0  0  0  0  0  0
  2  1  1  6
  1 13  1  0
  1 14  1  0
  1 15  1  0
  2 10  1  0
  2  3  1  0
  2  9  1  0
  3  4  1  0
  3 16  1  0
  3 17  1  0
  4  8  1  0
  4  5  1  0
  5  6  2  0
  5 18  1  0
  6  7  1  0
  7  8  2  0
  9 10  1  0
  9 19  1  0
  9 20  1  0
 10 11  1  0
 10 12  1  0
M  END
>  <i_m_ct_stereo_status>  (309) 
1

>  <s_m_source_file>  (309) 
/var/tmp/pbs.5076255.sched01/tmprva83imr/861x3d95ot.sdf

>  <i_m_source_file_index>  (309) 
35

>  <i_lp_mmshare_version>  (309) 
48012

>  <i_f3d_flags>  (309) 
0

>  <s_epik_input>  (309) 
Q2xDMShDbClbQ0gyXVtDQEBdMShbQ0gzXSlbQ0gyXW4yW2NIXW5ubjI=

>  <s_epik_cmdline>  (309) 
J2VwaWtfcHl0aG9uJywgJy1waHQnLCAnMi4wJywgJy1waCcsICc3LjAnLCAnLXRuJywgJzgnLCAnLW1hJywgJzIwMCcsICctaW1hZScsICc8aW5maWxlLm1hZT4nLCAnLW9tYWUnLCAnPG91dGZpbGUubWFlPic=

>  <r_lp_tautomer_probability>  (309) 
1

>  <r_epik_Ionization_Penalty>  (309) 
3.38335e-09

>  <r_epik_Ionization_Penalty_Charging>  (309) 
0

>  <r_epik_Ionization_Penalty_Neutral>  (309) 
3.38335e-09

>  <r_epik_State_Penalty>  (309) 
-0

>  <r_epik_Charging_Adjusted_Penalty>  (309) 
0

>  <i_epik_Tot_Q>  (309) 
0

>  <i_epik_Tot_abs_Q>  (309) 
0

>  <s_lp_Force_Field>  (309) 
OPLS3e

>  <r_lp_Energy>  (309) 
8.13119

>  <b_lp_Chiralities_Consistent>  (309) 
1

>  <s_lp_Variant>  (309) 
85:0-1

>  <s_i_glide_gridfile>  (309) 
pfpi4k_grid

>  <i_i_glide_lignum>  (309) 
35

>  <i_i_glide_rotatable_bonds>  (309) 
2

>  <r_i_docking_score>  (309) 
-2.89878

>  <r_i_glide_ligand_efficiency>  (309) 
-0.241565

>  <r_i_glide_ligand_efficiency_sa>  (309) 
-0.553045

>  <r_i_glide_ligand_efficiency_ln>  (309) 
-0.83181

>  <r_i_glide_gscore>  (309) 
-2.89878

>  <r_i_glide_lipo>  (309) 
-0.283304

>  <r_i_glide_hbond>  (309) 
0

>  <r_i_glide_metal>  (309) 
-0

>  <r_i_glide_rewards>  (309) 
-1.99732

>  <r_i_glide_evdw>  (309) 
-19.0419

>  <r_i_glide_ecoul>  (309) 
-2.54465

>  <r_i_glide_erotb>  (309) 
0.770685

>  <r_i_glide_esite>  (309) 
-0.055046

>  <r_i_glide_emodel>  (309) 
-23.9546

>  <r_i_glide_energy>  (309) 
-21.5866

>  <r_i_glide_einternal>  (309) 
3.8511

>  <r_i_glide_intrahb_reward>  (309) 
-0

>  <i_i_glide_confnum>  (309) 
6

>  <i_i_glide_posenum>  (309) 
1

>  <r_i_glide_eff_state_penalty>  (309) 
0

>  <ligand_id>  (309) 
85

>  <original_smiles>  (309) 
CC1(Cn2cnnn2)CC1(Cl)Cl

>  <smiles>  (309) 
[H]c1nnnn1C([H])([H])C1(C([H])([H])[H])C([H])([H])C1(Cl)Cl

$$$$
86:0:0
     RDKit          3D

 39 41  0  0  1  0  0  0  0  0999 V2000
    2.3388    0.3989   -4.3916 C   0  0  0  0  0  0  0  0  0  0  0  0
    3.3688   -0.6799   -4.1779 C   0  0  0  0  0  0  0  0  0  0  0  0
    4.0989   -0.9760   -5.1207 O   0  0  0  0  0  0  0  0  0  0  0  0
    3.4556   -1.2539   -2.9734 N   0  0  0  0  0  0  0  0  0  0  0  0
    4.2865   -2.3590   -2.6628 C   0  0  0  0  0  0  0  0  0  0  0  0
    4.7504   -3.2233   -3.5473 N   0  0  0  0  0  0  0  0  0  0  0  0
    5.4000   -4.1805   -2.7728 O   0  0  0  0  0  0  0  0  0  0  0  0
    5.4311   -3.7940   -1.4198 N   0  0  0  0  0  0  0  0  0  0  0  0
    4.6715   -2.7351   -1.3510 C   0  0  0  0  0  0  0  0  0  0  0  0
    4.1842   -2.1299   -0.0635 C   0  0  2  0  0  0  0  0  0  0  0  0
    5.1219   -2.2305    0.9866 O   0  0  0  0  0  0  0  0  0  0  0  0
    4.4599   -2.0141    2.2223 C   0  0  1  0  0  0  0  0  0  0  0  0
    4.3253   -0.5104    2.5273 C   0  0  0  0  0  0  0  0  0  0  0  0
    3.8034   -0.3240    3.8285 O   0  0  0  0  0  0  0  0  0  0  0  0
    3.1076   -2.7031    2.0319 C   0  0  2  0  0  0  0  0  0  0  0  0
    3.0188   -4.1463    2.5324 C   0  0  1  0  0  0  0  0  0  0  0  0
    2.2786   -4.2286    3.8792 C   0  0  0  0  0  0  0  0  0  0  0  0
    2.5910   -5.4267    4.5530 O   0  0  0  0  0  0  0  0  0  0  0  0
    2.2608   -4.7656    1.5175 O   0  0  0  0  0  0  0  0  0  0  0  0
    2.7433   -4.2923    0.3217 C   0  0  1  0  0  0  0  0  0  0  0  0
    1.8232   -4.5137   -0.7075 O   0  0  0  0  0  0  0  0  0  0  0  0
    2.9347   -2.7894    0.5411 C   0  0  2  0  0  0  0  0  0  0  0  0
    1.8181    0.5410   -3.4493 H   0  0  0  0  0  0  0  0  0  0  0  0
    1.6075    0.1250   -5.1402 H   0  0  0  0  0  0  0  0  0  0  0  0
    2.8161    1.3376   -4.6885 H   0  0  0  0  0  0  0  0  0  0  0  0
    3.9954   -1.0693   -0.2220 H   0  0  0  0  0  0  0  0  0  0  0  0
    5.0476   -2.5022    2.9985 H   0  0  0  0  0  0  0  0  0  0  0  0
    5.2971   -0.0178    2.4659 H   0  0  0  0  0  0  0  0  0  0  0  0
    3.6564   -0.0314    1.8091 H   0  0  0  0  0  0  0  0  0  0  0  0
    3.6514    0.5996    3.9567 H   0  0  0  0  0  0  0  0  0  0  0  0
    2.2929   -2.1117    2.4577 H   0  0  0  0  0  0  0  0  0  0  0  0
    4.0087   -4.6021    2.5717 H   0  0  0  0  0  0  0  0  0  0  0  0
    2.6350   -3.4267    4.5257 H   0  0  0  0  0  0  0  0  0  0  0  0
    1.1918   -4.0970    3.7913 H   0  0  0  0  0  0  0  0  0  0  0  0
    2.3234   -6.1513    4.0132 H   0  0  0  0  0  0  0  0  0  0  0  0
    3.6571   -4.8506    0.1139 H   0  0  0  0  0  0  0  0  0  0  0  0
    2.2401   -5.0608   -1.3663 H   0  0  0  0  0  0  0  0  0  0  0  0
    2.0203   -2.2917    0.2467 H   0  0  0  0  0  0  0  0  0  0  0  0
    2.8750   -0.8839   -2.2134 H   0  0  0  0  0  0  0  0  0  0  0  0
  1  2  1  0
  1 23  1  0
  1 24  1  0
  1 25  1  0
  2  3  2  0
  2  4  1  0
  4  5  1  0
  4 39  1  0
  5  9  1  0
  5  6  2  0
  6  7  1  0
  7  8  1  0
  8  9  2  0
  9 10  1  0
 10 22  1  0
 10 11  1  0
 10 26  1  6
 11 12  1  0
 12 13  1  0
 12 15  1  0
 12 27  1  1
 13 14  1  0
 13 28  1  0
 13 29  1  0
 14 30  1  0
 15 22  1  0
 15 16  1  0
 15 31  1  1
 16 17  1  0
 16 19  1  0
 16 32  1  1
 17 18  1  0
 17 33  1  0
 17 34  1  0
 18 35  1  0
 19 20  1  0
 20 21  1  0
 20 22  1  0
 20 36  1  6
 21 37  1  0
 22 38  1  1
M  END
>  <i_m_ct_stereo_status>  (310) 
1

>  <s_m_source_file>  (310) 
/var/tmp/pbs.5076255.sched01/tmprva83imr/861x3d95ot.sdf

>  <i_m_source_file_index>  (310) 
36

>  <i_lp_mmshare_version>  (310) 
48012

>  <i_f3d_flags>  (310) 
0

>  <s_epik_input>  (310) 
W0NIM11DKD1PKS9OPWMxXFtuSF1vbmMxW0NASF0oT1tDQEhdMltDSDJdW09IXSlbQ0BIXShbQ0BIXTIzKVtDQEhdKFtPSF0pT1tDQEBIXTNbQ0gyXVtPSF0=

>  <s_epik_cmdline>  (310) 
J2VwaWtfcHl0aG9uJywgJy1waHQnLCAnMi4wJywgJy1waCcsICc3LjAnLCAnLXRuJywgJzgnLCAnLW1hJywgJzIwMCcsICctaW1hZScsICc8aW5maWxlLm1hZT4nLCAnLW9tYWUnLCAnPG91dGZpbGUubWFlPic=

>  <r_lp_tautomer_probability>  (310) 
1

>  <r_epik_Ionization_Penalty>  (310) 
4.62569e-05

>  <r_epik_Ionization_Penalty_Charging>  (310) 
0

>  <r_epik_Ionization_Penalty_Neutral>  (310) 
4.62569e-05

>  <r_epik_State_Penalty>  (310) 
-0

>  <r_epik_Charging_Adjusted_Penalty>  (310) 
0

>  <i_epik_Tot_Q>  (310) 
0

>  <i_epik_Tot_abs_Q>  (310) 
0

>  <s_epik_Chemistry_Notes>  (310) 
This compound contains an acetal/aminal-like group ( X-CH(R)-Y where X, Y are N, S, or O) that may be acid/base labile, releasing an aldehyde.

>  <s_lp_Force_Field>  (310) 
OPLS3e

>  <r_lp_Energy>  (310) 
-8.40372

>  <b_lp_Chiralities_Consistent>  (310) 
1

>  <s_lp_Variant>  (310) 
86:0-1

>  <s_i_glide_gridfile>  (310) 
pfpi4k_grid

>  <i_i_glide_lignum>  (310) 
36

>  <i_i_glide_rotatable_bonds>  (310) 
8

>  <r_i_docking_score>  (310) 
-4.05211

>  <r_i_glide_ligand_efficiency>  (310) 
-0.184187

>  <r_i_glide_ligand_efficiency_sa>  (310) 
-0.516099

>  <r_i_glide_ligand_efficiency_ln>  (310) 
-0.990484

>  <r_i_glide_gscore>  (310) 
-4.05211

>  <r_i_glide_lipo>  (310) 
-0.220273

>  <r_i_glide_hbond>  (310) 
-0.301263

>  <r_i_glide_metal>  (310) 
-0

>  <r_i_glide_rewards>  (310) 
-1.54897

>  <r_i_glide_evdw>  (310) 
-15.1704

>  <r_i_glide_ecoul>  (310) 
-12.7523

>  <r_i_glide_erotb>  (310) 
0.748498

>  <r_i_glide_esite>  (310) 
-0.0587416

>  <r_i_glide_emodel>  (310) 
-33.3577

>  <r_i_glide_energy>  (310) 
-27.9227

>  <r_i_glide_einternal>  (310) 
3.86851

>  <r_i_glide_intrahb_reward>  (310) 
-0

>  <i_i_glide_confnum>  (310) 
4

>  <i_i_glide_posenum>  (310) 
3

>  <r_i_glide_eff_state_penalty>  (310) 
0

>  <ligand_id>  (310) 
86

>  <original_smiles>  (310) 
CC(=O)N=c1[nH]onc1C1OC(CO)C2C(CO)OC(O)C12

>  <smiles>  (310) 
[H]OC([H])([H])C1([H])OC([H])(O[H])C2([H])C([H])(c3nonc3N([H])C(=O)C([H])([H])[H])OC([H])(C([H])([H])O[H])C12[H]

$$$$
86:0:1
     RDKit          3D

 39 41  0  0  1  0  0  0  0  0999 V2000
    4.2970   -8.6051    0.6751 C   0  0  0  0  0  0  0  0  0  0  0  0
    4.2090   -7.2364    1.3363 C   0  0  0  0  0  0  0  0  0  0  0  0
    5.2483   -6.6352    1.6090 O   0  0  0  0  0  0  0  0  0  0  0  0
    2.9872   -6.7576    1.6060 N   0  0  0  0  0  0  0  0  0  0  0  0
    2.6640   -5.5405    2.2585 C   0  0  0  0  0  0  0  0  0  0  0  0
    1.6955   -5.4713    3.1373 N   0  0  0  0  0  0  0  0  0  0  0  0
    1.6314   -4.1143    3.4760 O   0  0  0  0  0  0  0  0  0  0  0  0
    2.5665   -3.3698    2.7317 N   0  0  0  0  0  0  0  0  0  0  0  0
    3.2035   -4.2405    1.9861 C   0  0  0  0  0  0  0  0  0  0  0  0
    4.2153   -3.8508    0.9347 C   0  0  2  0  0  0  0  0  0  0  0  0
    4.6040   -2.4812    0.9351 O   0  0  0  0  0  0  0  0  0  0  0  0
    5.2758   -2.2315   -0.2982 C   0  0  1  0  0  0  0  0  0  0  0  0
    6.7516   -2.7192   -0.3173 C   0  0  0  0  0  0  0  0  0  0  0  0
    7.4016   -2.2539   -1.4896 O   0  0  0  0  0  0  0  0  0  0  0  0
    4.4254   -3.0010   -1.3188 C   0  0  2  0  0  0  0  0  0  0  0  0
    3.2896   -2.2025   -1.9769 C   0  0  1  0  0  0  0  0  0  0  0  0
    3.6914   -1.6963   -3.3856 C   0  0  0  0  0  0  0  0  0  0  0  0
    4.1759   -0.3700   -3.3305 O   0  0  0  0  0  0  0  0  0  0  0  0
    2.2236   -3.1533   -2.0074 O   0  0  0  0  0  0  0  0  0  0  0  0
    2.2476   -3.7897   -0.7661 C   0  0  1  0  0  0  0  0  0  0  0  0
    1.5102   -4.9972   -0.7186 O   0  0  0  0  0  0  0  0  0  0  0  0
    3.7399   -4.0728   -0.5128 C   0  0  2  0  0  0  0  0  0  0  0  0
    3.3301   -9.1130    0.5931 H   0  0  0  0  0  0  0  0  0  0  0  0
    4.9696   -9.2215    1.2656 H   0  0  0  0  0  0  0  0  0  0  0  0
    4.7205   -8.4960   -0.3185 H   0  0  0  0  0  0  0  0  0  0  0  0
    5.1429   -4.3910    1.0807 H   0  0  0  0  0  0  0  0  0  0  0  0
    5.2394   -1.1566   -0.4613 H   0  0  0  0  0  0  0  0  0  0  0  0
    7.2931   -2.3466    0.5540 H   0  0  0  0  0  0  0  0  0  0  0  0
    6.8096   -3.8115   -0.2963 H   0  0  0  0  0  0  0  0  0  0  0  0
    8.1466   -2.8154   -1.6756 H   0  0  0  0  0  0  0  0  0  0  0  0
    5.0469   -3.4836   -2.0804 H   0  0  0  0  0  0  0  0  0  0  0  0
    2.9919   -1.3644   -1.3332 H   0  0  0  0  0  0  0  0  0  0  0  0
    4.4731   -2.3154   -3.8340 H   0  0  0  0  0  0  0  0  0  0  0  0
    2.8449   -1.7317   -4.0747 H   0  0  0  0  0  0  0  0  0  0  0  0
    3.4597    0.2021   -3.0839 H   0  0  0  0  0  0  0  0  0  0  0  0
    1.8201   -3.1074   -0.0262 H   0  0  0  0  0  0  0  0  0  0  0  0
    1.9132   -5.5574   -1.3888 H   0  0  0  0  0  0  0  0  0  0  0  0
    4.0041   -5.0564   -0.8893 H   0  0  0  0  0  0  0  0  0  0  0  0
    2.2171   -7.3977    1.4688 H   0  0  0  0  0  0  0  0  0  0  0  0
  1  2  1  0
  1 23  1  0
  1 24  1  0
  1 25  1  0
  2  3  2  0
  2  4  1  0
  4  5  1  0
  4 39  1  0
  5  9  1  0
  5  6  2  0
  6  7  1  0
  7  8  1  0
  8  9  2  0
  9 10  1  0
 10 22  1  0
 10 11  1  0
 10 26  1  1
 11 12  1  0
 12 13  1  0
 12 15  1  0
 12 27  1  6
 13 14  1  0
 13 28  1  0
 13 29  1  0
 14 30  1  0
 15 22  1  0
 15 16  1  0
 15 31  1  6
 16 17  1  0
 16 19  1  0
 16 32  1  1
 17 18  1  0
 17 33  1  0
 17 34  1  0
 18 35  1  0
 19 20  1  0
 20 21  1  0
 20 22  1  0
 20 36  1  1
 21 37  1  0
 22 38  1  6
M  END
>  <i_m_ct_stereo_status>  (311) 
1

>  <s_m_source_file>  (311) 
/var/tmp/pbs.5076255.sched01/tmprva83imr/861x3d95ot.sdf

>  <i_m_source_file_index>  (311) 
36

>  <i_lp_mmshare_version>  (311) 
48012

>  <i_f3d_flags>  (311) 
0

>  <s_epik_input>  (311) 
W0NIM11DKD1PKS9OPWMxXFtuSF1vbmMxW0NASF0oT1tDQEhdMltDSDJdW09IXSlbQ0BIXShbQ0BIXTIzKVtDQEhdKFtPSF0pT1tDQEBIXTNbQ0gyXVtPSF0=

>  <s_epik_cmdline>  (311) 
J2VwaWtfcHl0aG9uJywgJy1waHQnLCAnMi4wJywgJy1waCcsICc3LjAnLCAnLXRuJywgJzgnLCAnLW1hJywgJzIwMCcsICctaW1hZScsICc8aW5maWxlLm1hZT4nLCAnLW9tYWUnLCAnPG91dGZpbGUubWFlPic=

>  <r_lp_tautomer_probability>  (311) 
1

>  <r_epik_Ionization_Penalty>  (311) 
4.62569e-05

>  <r_epik_Ionization_Penalty_Charging>  (311) 
0

>  <r_epik_Ionization_Penalty_Neutral>  (311) 
4.62569e-05

>  <r_epik_State_Penalty>  (311) 
-0

>  <r_epik_Charging_Adjusted_Penalty>  (311) 
0

>  <i_epik_Tot_Q>  (311) 
0

>  <i_epik_Tot_abs_Q>  (311) 
0

>  <s_epik_Chemistry_Notes>  (311) 
This compound contains an acetal/aminal-like group ( X-CH(R)-Y where X, Y are N, S, or O) that may be acid/base labile, releasing an aldehyde.

>  <s_lp_Force_Field>  (311) 
OPLS3e

>  <r_lp_Energy>  (311) 
-8.40372

>  <b_lp_Chiralities_Consistent>  (311) 
1

>  <s_lp_Variant>  (311) 
86:0-1

>  <s_i_glide_gridfile>  (311) 
pfpi4k_grid

>  <i_i_glide_lignum>  (311) 
36

>  <i_i_glide_rotatable_bonds>  (311) 
8

>  <r_i_docking_score>  (311) 
-3.55244

>  <r_i_glide_ligand_efficiency>  (311) 
-0.161475

>  <r_i_glide_ligand_efficiency_sa>  (311) 
-0.452458

>  <r_i_glide_ligand_efficiency_ln>  (311) 
-0.868346

>  <r_i_glide_gscore>  (311) 
-3.55244

>  <r_i_glide_lipo>  (311) 
-0.183414

>  <r_i_glide_hbond>  (311) 
-0.16

>  <r_i_glide_metal>  (311) 
-0

>  <r_i_glide_rewards>  (311) 
-1.38083

>  <r_i_glide_evdw>  (311) 
-19.712

>  <r_i_glide_ecoul>  (311) 
-10.1067

>  <r_i_glide_erotb>  (311) 
0.748498

>  <r_i_glide_esite>  (311) 
-0.0750837

>  <r_i_glide_emodel>  (311) 
-32.6433

>  <r_i_glide_energy>  (311) 
-29.8187

>  <r_i_glide_einternal>  (311) 
7.74671

>  <r_i_glide_intrahb_reward>  (311) 
-0

>  <i_i_glide_confnum>  (311) 
4

>  <i_i_glide_posenum>  (311) 
38

>  <r_i_glide_eff_state_penalty>  (311) 
0

>  <ligand_id>  (311) 
86

>  <original_smiles>  (311) 
CC(=O)N=c1[nH]onc1C1OC(CO)C2C(CO)OC(O)C12

>  <smiles>  (311) 
[H]OC([H])([H])C1([H])OC([H])(O[H])C2([H])C([H])(c3nonc3N([H])C(=O)C([H])([H])[H])OC([H])(C([H])([H])O[H])C12[H]

$$$$
86:0:2
     RDKit          3D

 39 41  0  0  1  0  0  0  0  0999 V2000
    4.3257   -8.5156    0.6516 C   0  0  0  0  0  0  0  0  0  0  0  0
    4.1918   -7.1295    1.2617 C   0  0  0  0  0  0  0  0  0  0  0  0
    5.2043   -6.5270    1.5981 O   0  0  0  0  0  0  0  0  0  0  0  0
    2.9483   -6.6445    1.4175 N   0  0  0  0  0  0  0  0  0  0  0  0
    2.5833   -5.4070    2.0156 C   0  0  0  0  0  0  0  0  0  0  0  0
    1.5802   -5.3193    2.8393 N   0  0  0  0  0  0  0  0  0  0  0  0
    1.4967   -3.9519    3.1445 O   0  0  0  0  0  0  0  0  0  0  0  0
    2.4586   -3.2243    2.4207 N   0  0  0  0  0  0  0  0  0  0  0  0
    3.1329   -4.1154    1.7232 C   0  0  0  0  0  0  0  0  0  0  0  0
    4.1837   -3.7566    0.7037 C   0  0  2  0  0  0  0  0  0  0  0  0
    4.6922   -2.4302    0.7932 O   0  0  0  0  0  0  0  0  0  0  0  0
    5.4168   -2.1761   -0.4124 C   0  0  1  0  0  0  0  0  0  0  0  0
    6.8417   -2.8040   -0.4064 C   0  0  0  0  0  0  0  0  0  0  0  0
    7.5456   -2.3748   -1.5501 O   0  0  0  0  0  0  0  0  0  0  0  0
    4.5263   -2.8076   -1.4912 C   0  0  2  0  0  0  0  0  0  0  0  0
    3.4795   -1.8788   -2.1208 C   0  0  1  0  0  0  0  0  0  0  0  0
    3.9533   -1.3553   -3.4886 C   0  0  0  0  0  0  0  0  0  0  0  0
    3.1688   -0.2788   -3.9599 O   0  0  0  0  0  0  0  0  0  0  0  0
    2.3623   -2.7589   -2.2591 O   0  0  0  0  0  0  0  0  0  0  0  0
    2.2792   -3.4688   -1.0529 C   0  0  1  0  0  0  0  0  0  0  0  0
    1.4391   -4.6096   -1.1192 O   0  0  0  0  0  0  0  0  0  0  0  0
    3.7340   -3.8648   -0.7548 C   0  0  2  0  0  0  0  0  0  0  0  0
    3.3676   -9.0281    0.5231 H   0  0  0  0  0  0  0  0  0  0  0  0
    4.9583   -9.1079    1.3082 H   0  0  0  0  0  0  0  0  0  0  0  0
    4.8174   -8.4379   -0.3139 H   0  0  0  0  0  0  0  0  0  0  0  0
    5.0555   -4.3815    0.8096 H   0  0  0  0  0  0  0  0  0  0  0  0
    5.4758   -1.0946   -0.5079 H   0  0  0  0  0  0  0  0  0  0  0  0
    7.3807   -2.5279    0.5078 H   0  0  0  0  0  0  0  0  0  0  0  0
    6.7973   -3.8947   -0.4673 H   0  0  0  0  0  0  0  0  0  0  0  0
    8.3937   -2.8132   -1.5984 H   0  0  0  0  0  0  0  0  0  0  0  0
    5.1233   -3.2762   -2.2789 H   0  0  0  0  0  0  0  0  0  0  0  0
    3.2477   -1.0559   -1.4365 H   0  0  0  0  0  0  0  0  0  0  0  0
    4.9642   -0.9681   -3.3779 H   0  0  0  0  0  0  0  0  0  0  0  0
    4.0080   -2.1502   -4.2403 H   0  0  0  0  0  0  0  0  0  0  0  0
    3.0039    0.3253   -3.2463 H   0  0  0  0  0  0  0  0  0  0  0  0
    1.8700   -2.8128   -0.2842 H   0  0  0  0  0  0  0  0  0  0  0  0
    1.8472   -5.1841   -1.7730 H   0  0  0  0  0  0  0  0  0  0  0  0
    3.9510   -4.8632   -1.1170 H   0  0  0  0  0  0  0  0  0  0  0  0
    2.1948   -7.2960    1.2575 H   0  0  0  0  0  0  0  0  0  0  0  0
  1  2  1  0
  1 23  1  0
  1 24  1  0
  1 25  1  0
  2  3  2  0
  2  4  1  0
  4  5  1  0
  4 39  1  0
  5  9  1  0
  5  6  2  0
  6  7  1  0
  7  8  1  0
  8  9  2  0
  9 10  1  0
 10 22  1  0
 10 11  1  0
 10 26  1  6
 11 12  1  0
 12 13  1  0
 12 15  1  0
 12 27  1  6
 13 14  1  0
 13 28  1  0
 13 29  1  0
 14 30  1  0
 15 22  1  0
 15 16  1  0
 15 31  1  6
 16 17  1  0
 16 19  1  0
 16 32  1  1
 17 18  1  0
 17 33  1  0
 17 34  1  0
 18 35  1  0
 19 20  1  0
 20 21  1  0
 20 22  1  0
 20 36  1  1
 21 37  1  0
 22 38  1  6
M  END
>  <i_m_ct_stereo_status>  (312) 
1

>  <s_m_source_file>  (312) 
/var/tmp/pbs.5076255.sched01/tmprva83imr/861x3d95ot.sdf

>  <i_m_source_file_index>  (312) 
36

>  <i_lp_mmshare_version>  (312) 
48012

>  <i_f3d_flags>  (312) 
0

>  <s_epik_input>  (312) 
W0NIM11DKD1PKS9OPWMxXFtuSF1vbmMxW0NASF0oT1tDQEhdMltDSDJdW09IXSlbQ0BIXShbQ0BIXTIzKVtDQEhdKFtPSF0pT1tDQEBIXTNbQ0gyXVtPSF0=

>  <s_epik_cmdline>  (312) 
J2VwaWtfcHl0aG9uJywgJy1waHQnLCAnMi4wJywgJy1waCcsICc3LjAnLCAnLXRuJywgJzgnLCAnLW1hJywgJzIwMCcsICctaW1hZScsICc8aW5maWxlLm1hZT4nLCAnLW9tYWUnLCAnPG91dGZpbGUubWFlPic=

>  <r_lp_tautomer_probability>  (312) 
1

>  <r_epik_Ionization_Penalty>  (312) 
4.62569e-05

>  <r_epik_Ionization_Penalty_Charging>  (312) 
0

>  <r_epik_Ionization_Penalty_Neutral>  (312) 
4.62569e-05

>  <r_epik_State_Penalty>  (312) 
-0

>  <r_epik_Charging_Adjusted_Penalty>  (312) 
0

>  <i_epik_Tot_Q>  (312) 
0

>  <i_epik_Tot_abs_Q>  (312) 
0

>  <s_epik_Chemistry_Notes>  (312) 
This compound contains an acetal/aminal-like group ( X-CH(R)-Y where X, Y are N, S, or O) that may be acid/base labile, releasing an aldehyde.

>  <s_lp_Force_Field>  (312) 
OPLS3e

>  <r_lp_Energy>  (312) 
-8.40372

>  <b_lp_Chiralities_Consistent>  (312) 
1

>  <s_lp_Variant>  (312) 
86:0-1

>  <s_i_glide_gridfile>  (312) 
pfpi4k_grid

>  <i_i_glide_lignum>  (312) 
36

>  <i_i_glide_rotatable_bonds>  (312) 
8

>  <r_i_docking_score>  (312) 
-3.46455

>  <r_i_glide_ligand_efficiency>  (312) 
-0.157479

>  <r_i_glide_ligand_efficiency_sa>  (312) 
-0.441263

>  <r_i_glide_ligand_efficiency_ln>  (312) 
-0.846861

>  <r_i_glide_gscore>  (312) 
-3.46455

>  <r_i_glide_lipo>  (312) 
-0.223265

>  <r_i_glide_hbond>  (312) 
-0.16

>  <r_i_glide_metal>  (312) 
-0

>  <r_i_glide_rewards>  (312) 
-1.38763

>  <r_i_glide_evdw>  (312) 
-20.1378

>  <r_i_glide_ecoul>  (312) 
-9.23564

>  <r_i_glide_erotb>  (312) 
0.748498

>  <r_i_glide_esite>  (312) 
-0.0499101

>  <r_i_glide_emodel>  (312) 
-32.6813

>  <r_i_glide_energy>  (312) 
-29.3734

>  <r_i_glide_einternal>  (312) 
6.59945

>  <r_i_glide_intrahb_reward>  (312) 
-0

>  <i_i_glide_confnum>  (312) 
4

>  <i_i_glide_posenum>  (312) 
17

>  <r_i_glide_eff_state_penalty>  (312) 
0

>  <ligand_id>  (312) 
86

>  <original_smiles>  (312) 
CC(=O)N=c1[nH]onc1C1OC(CO)C2C(CO)OC(O)C12

>  <smiles>  (312) 
[H]OC([H])([H])C1([H])OC([H])(O[H])C2([H])C([H])(c3nonc3N([H])C(=O)C([H])([H])[H])OC([H])(C([H])([H])O[H])C12[H]

$$$$
87:0:0
     RDKit          3D

 41 45  0  0  1  0  0  0  0  0999 V2000
    4.1432   -2.3916   -3.0336 C   0  0  0  0  0  0  0  0  0  0  0  0
    3.9489   -3.4149   -1.9770 N   0  0  2  0  0  0  0  0  0  0  0  0
    2.6835   -3.1603   -1.2099 C   0  0  0  0  0  0  0  0  0  0  0  0
    2.8871   -2.3050    0.0729 C   0  0  0  0  0  0  0  0  0  0  0  0
    4.0880   -2.8572    0.8718 C   0  0  2  0  0  0  0  0  0  0  0  0
    3.7796   -4.2624    1.2363 C   0  0  0  0  0  0  0  0  0  0  0  0
    4.1411   -5.3930    0.5084 C   0  0  0  0  0  0  0  0  0  0  0  0
    3.6144   -6.6096    0.9828 C   0  0  0  0  0  0  0  0  0  0  0  0
    2.7753   -6.6069    2.1322 C   0  0  0  0  0  0  0  0  0  0  0  0
    2.5256   -5.4176    2.8731 C   0  0  0  0  0  0  0  0  0  0  0  0
    1.7764   -5.4597    4.0116 O   0  0  0  0  0  0  0  0  0  0  0  0
    3.0793   -4.1963    2.4378 C   0  0  0  0  0  0  0  0  0  0  0  0
    3.1424   -2.9442    3.0274 O   0  0  0  0  0  0  0  0  0  0  0  0
    4.2787   -2.4421    2.3178 C   0  0  2  0  0  0  0  0  0  0  0  0
    4.8614   -1.0623    2.4679 C   0  0  0  0  0  0  0  0  0  0  0  0
    4.3550   -0.1513    3.1155 O   0  0  0  0  0  0  0  0  0  0  0  0
    6.2148   -0.9609    1.7253 C   0  0  0  0  0  0  0  0  0  0  0  0
    6.5321   -2.2006    0.7886 C   0  0  0  0  0  0  0  0  0  0  0  0
    5.2784   -2.5856   -0.0395 C   0  0  1  0  0  0  0  0  0  0  0  0
    5.1867   -3.6667   -1.1485 C   0  0  1  0  0  0  0  0  0  0  0  0
    5.1635   -5.1160   -0.5932 C   0  0  0  0  0  0  0  0  0  0  0  0
    4.2341   -1.3960   -2.5985 H   0  0  0  0  0  0  0  0  0  0  0  0
    3.2895   -2.3764   -3.7117 H   0  0  0  0  0  0  0  0  0  0  0  0
    5.0354   -2.5972   -3.6229 H   0  0  0  0  0  0  0  0  0  0  0  0
    1.9344   -2.7000   -1.8571 H   0  0  0  0  0  0  0  0  0  0  0  0
    2.2481   -4.1222   -0.9397 H   0  0  0  0  0  0  0  0  0  0  0  0
    3.0413   -1.2556   -0.1975 H   0  0  0  0  0  0  0  0  0  0  0  0
    1.9779   -2.3147    0.6733 H   0  0  0  0  0  0  0  0  0  0  0  0
    3.8524   -7.5346    0.4790 H   0  0  0  0  0  0  0  0  0  0  0  0
    2.3594   -7.5431    2.4613 H   0  0  0  0  0  0  0  0  0  0  0  0
    1.5627   -6.3409    4.2768 H   0  0  0  0  0  0  0  0  0  0  0  0
    5.0991   -3.0304    2.7359 H   0  0  0  0  0  0  0  0  0  0  0  0
    6.1921   -0.0484    1.1312 H   0  0  0  0  0  0  0  0  0  0  0  0
    7.0075   -0.8309    2.4631 H   0  0  0  0  0  0  0  0  0  0  0  0
    7.3595   -1.9447    0.1255 H   0  0  0  0  0  0  0  0  0  0  0  0
    6.8732   -3.0562    1.3773 H   0  0  0  0  0  0  0  0  0  0  0  0
    5.1286   -1.6344   -0.5544 H   0  0  0  0  0  0  0  0  0  0  0  0
    6.0507   -3.5858   -1.8072 H   0  0  0  0  0  0  0  0  0  0  0  0
    6.1445   -5.3436   -0.1830 H   0  0  0  0  0  0  0  0  0  0  0  0
    5.0106   -5.8288   -1.4007 H   0  0  0  0  0  0  0  0  0  0  0  0
    3.7716   -4.2879   -2.4679 H   0  0  0  0  0  0  0  0  0  0  0  0
  1  2  1  0
  1 22  1  0
  1 23  1  0
  1 24  1  0
  2 20  1  0
  2  3  1  0
  2 41  1  6
  3  4  1  0
  3 25  1  0
  3 26  1  0
  5  4  1  6
  4 27  1  0
  4 28  1  0
  5 14  1  0
  5 19  1  0
  5  6  1  0
  6 12  2  0
  6  7  1  0
  7 21  1  0
  7  8  2  0
  8  9  1  0
  8 29  1  0
  9 10  2  0
  9 30  1  0
 10 11  1  0
 10 12  1  0
 11 31  1  0
 12 13  1  0
 13 14  1  0
 14 15  1  0
 14 32  1  1
 15 16  2  0
 15 17  1  0
 17 18  1  0
 17 33  1  0
 17 34  1  0
 18 19  1  0
 18 35  1  0
 18 36  1  0
 19 20  1  0
 19 37  1  6
 20 21  1  0
 20 38  1  6
 21 39  1  0
 21 40  1  0
M  CHG  1   2   1
M  END
>  <i_m_ct_stereo_status>  (313) 
1

>  <s_m_source_file>  (313) 
/var/tmp/pbs.5076255.sched01/tmprva83imr/861x3d95ot.sdf

>  <i_m_source_file_index>  (313) 
37

>  <i_lp_mmshare_version>  (313) 
48012

>  <i_f3d_flags>  (313) 
0

>  <s_epik_input>  (313) 
W0NIMl0xW0NIMl1OKFtDSDNdKVtDQEhdKFtDSDJdMilbQ0BASF0zW0NIMl1bQ0gyXUMoPU8pW0NASF00T2M1YyhbT0hdKVtjSF1bY0hdYzJjNVtDQF0xMzQ=

>  <s_epik_cmdline>  (313) 
J2VwaWtfcHl0aG9uJywgJy1waHQnLCAnMi4wJywgJy1waCcsICc3LjAnLCAnLXRuJywgJzgnLCAnLW1hJywgJzIwMCcsICctaW1hZScsICc8aW5maWxlLm1hZT4nLCAnLW9tYWUnLCAnPG91dGZpbGUubWFlPic=

>  <r_lp_tautomer_probability>  (313) 
1

>  <r_epik_Ionization_Penalty>  (313) 
0.0754726

>  <r_epik_Ionization_Penalty_Charging>  (313) 
0.0397053

>  <r_epik_Ionization_Penalty_Neutral>  (313) 
0.0357673

>  <r_epik_State_Penalty>  (313) 
0.0616185

>  <r_epik_Charging_Adjusted_Penalty>  (313) 
0.101324

>  <i_epik_Tot_Q>  (313) 
1

>  <i_epik_Tot_abs_Q>  (313) 
1

>  <s_lp_Force_Field>  (313) 
OPLS3e

>  <r_lp_Energy>  (313) 
84.573

>  <b_lp_Chiralities_Consistent>  (313) 
1

>  <s_lp_Variant>  (313) 
87:0-1

>  <s_i_glide_gridfile>  (313) 
pfpi4k_grid

>  <i_i_glide_lignum>  (313) 
37

>  <i_i_glide_rotatable_bonds>  (313) 
1

>  <r_i_docking_score>  (313) 
-3.57007

>  <r_i_glide_ligand_efficiency>  (313) 
-0.170004

>  <r_i_glide_ligand_efficiency_sa>  (313) 
-0.469027

>  <r_i_glide_ligand_efficiency_ln>  (313) 
-0.882693

>  <r_i_glide_gscore>  (313) 
-3.57007

>  <r_i_glide_lipo>  (313) 
-0.501823

>  <r_i_glide_hbond>  (313) 
0

>  <r_i_glide_metal>  (313) 
-0

>  <r_i_glide_rewards>  (313) 
-1.57987

>  <r_i_glide_evdw>  (313) 
-18.2526

>  <r_i_glide_ecoul>  (313) 
-3.6779

>  <r_i_glide_erotb>  (313) 
0

>  <r_i_glide_esite>  (313) 
-0.0240694

>  <r_i_glide_emodel>  (313) 
-27.2556

>  <r_i_glide_energy>  (313) 
-21.9305

>  <r_i_glide_einternal>  (313) 
0.0548883

>  <r_i_glide_intrahb_reward>  (313) 
-0

>  <i_i_glide_confnum>  (313) 
1

>  <i_i_glide_posenum>  (313) 
12

>  <r_i_glide_eff_state_penalty>  (313) 
0

>  <ligand_id>  (313) 
87

>  <original_smiles>  (313) 
CN1CCC23c4c5ccc(O)c4OC2C(=O)CCC3C1C5

>  <smiles>  (313) 
[H]Oc1c([H])c([H])c2c3c1OC1([H])C(=O)C([H])([H])C([H])([H])C4([H])C31C([H])([H])C([H])([H])[N+]([H])(C([H])([H])[H])C4([H])C2([H])[H]

$$$$
87:0:1
     RDKit          3D

 41 45  0  0  1  0  0  0  0  0999 V2000
    3.2948   -2.3024   -2.4320 C   0  0  0  0  0  0  0  0  0  0  0  0
    3.4866   -3.4159   -1.4697 N   0  0  2  0  0  0  0  0  0  0  0  0
    2.3839   -3.4362   -0.4536 C   0  0  0  0  0  0  0  0  0  0  0  0
    2.6982   -2.6428    0.8483 C   0  0  0  0  0  0  0  0  0  0  0  0
    4.1131   -3.0307    1.3418 C   0  0  2  0  0  0  0  0  0  0  0  0
    4.1114   -4.4903    1.6171 C   0  0  0  0  0  0  0  0  0  0  0  0
    4.4802   -5.4927    0.7213 C   0  0  0  0  0  0  0  0  0  0  0  0
    4.2583   -6.8114    1.1606 C   0  0  0  0  0  0  0  0  0  0  0  0
    3.6903   -7.0291    2.4471 C   0  0  0  0  0  0  0  0  0  0  0  0
    3.4227   -5.9522    3.3400 C   0  0  0  0  0  0  0  0  0  0  0  0
    2.9441   -6.1979    4.5926 O   0  0  0  0  0  0  0  0  0  0  0  0
    3.6781   -4.6273    2.9320 C   0  0  0  0  0  0  0  0  0  0  0  0
    3.6669   -3.4247    3.6210 O   0  0  0  0  0  0  0  0  0  0  0  0
    4.5368   -2.6873    2.7573 C   0  0  2  0  0  0  0  0  0  0  0  0
    4.9210   -1.2411    2.9316 C   0  0  0  0  0  0  0  0  0  0  0  0
    4.4221   -0.4744    3.7508 O   0  0  0  0  0  0  0  0  0  0  0  0
    6.0630   -0.8619    1.9584 C   0  0  0  0  0  0  0  0  0  0  0  0
    6.3621   -1.9629    0.8582 C   0  0  0  0  0  0  0  0  0  0  0  0
    5.0368   -2.4996    0.2519 C   0  0  1  0  0  0  0  0  0  0  0  0
    4.8895   -3.5041   -0.9217 C   0  0  1  0  0  0  0  0  0  0  0  0
    5.2049   -4.9700   -0.5170 C   0  0  0  0  0  0  0  0  0  0  0  0
    3.3144   -1.3367   -1.9241 H   0  0  0  0  0  0  0  0  0  0  0  0
    2.3263   -2.3863   -2.9283 H   0  0  0  0  0  0  0  0  0  0  0  0
    4.0658   -2.3075   -3.2030 H   0  0  0  0  0  0  0  0  0  0  0  0
    1.4597   -3.0702   -0.9018 H   0  0  0  0  0  0  0  0  0  0  0  0
    2.1710   -4.4746   -0.2006 H   0  0  0  0  0  0  0  0  0  0  0  0
    2.6272   -1.5668    0.6596 H   0  0  0  0  0  0  0  0  0  0  0  0
    1.9408   -2.8512    1.6049 H   0  0  0  0  0  0  0  0  0  0  0  0
    4.5263   -7.6443    0.5256 H   0  0  0  0  0  0  0  0  0  0  0  0
    3.5007   -8.0422    2.7559 H   0  0  0  0  0  0  0  0  0  0  0  0
    2.8412   -7.1192    4.7751 H   0  0  0  0  0  0  0  0  0  0  0  0
    5.5072   -3.1540    2.9485 H   0  0  0  0  0  0  0  0  0  0  0  0
    5.7816    0.0748    1.4784 H   0  0  0  0  0  0  0  0  0  0  0  0
    6.9636   -0.6605    2.5389 H   0  0  0  0  0  0  0  0  0  0  0  0
    6.9842   -1.5245    0.0776 H   0  0  0  0  0  0  0  0  0  0  0  0
    6.9461   -2.7842    1.2812 H   0  0  0  0  0  0  0  0  0  0  0  0
    4.6401   -1.5564   -0.1272 H   0  0  0  0  0  0  0  0  0  0  0  0
    5.5771   -3.2341   -1.7220 H   0  0  0  0  0  0  0  0  0  0  0  0
    6.2688   -5.0481   -0.3033 H   0  0  0  0  0  0  0  0  0  0  0  0
    5.0161   -5.6460   -1.3484 H   0  0  0  0  0  0  0  0  0  0  0  0
    3.3513   -4.2655   -2.0117 H   0  0  0  0  0  0  0  0  0  0  0  0
  1  2  1  0
  1 22  1  0
  1 23  1  0
  1 24  1  0
  2 20  1  0
  2  3  1  0
  2 41  1  6
  3  4  1  0
  3 25  1  0
  3 26  1  0
  5  4  1  6
  4 27  1  0
  4 28  1  0
  5 14  1  0
  5 19  1  0
  5  6  1  0
  6 12  2  0
  6  7  1  0
  7 21  1  0
  7  8  2  0
  8  9  1  0
  8 29  1  0
  9 10  2  0
  9 30  1  0
 10 11  1  0
 10 12  1  0
 11 31  1  0
 12 13  1  0
 13 14  1  0
 14 15  1  0
 14 32  1  6
 15 16  2  0
 15 17  1  0
 17 18  1  0
 17 33  1  0
 17 34  1  0
 18 19  1  0
 18 35  1  0
 18 36  1  0
 19 20  1  0
 19 37  1  6
 20 21  1  0
 20 38  1  6
 21 39  1  0
 21 40  1  0
M  CHG  1   2   1
M  END
>  <i_m_ct_stereo_status>  (314) 
1

>  <s_m_source_file>  (314) 
/var/tmp/pbs.5076255.sched01/tmprva83imr/861x3d95ot.sdf

>  <i_m_source_file_index>  (314) 
37

>  <i_lp_mmshare_version>  (314) 
48012

>  <i_f3d_flags>  (314) 
0

>  <s_epik_input>  (314) 
W0NIMl0xW0NIMl1OKFtDSDNdKVtDQEhdKFtDSDJdMilbQ0BASF0zW0NIMl1bQ0gyXUMoPU8pW0NASF00T2M1YyhbT0hdKVtjSF1bY0hdYzJjNVtDQF0xMzQ=

>  <s_epik_cmdline>  (314) 
J2VwaWtfcHl0aG9uJywgJy1waHQnLCAnMi4wJywgJy1waCcsICc3LjAnLCAnLXRuJywgJzgnLCAnLW1hJywgJzIwMCcsICctaW1hZScsICc8aW5maWxlLm1hZT4nLCAnLW9tYWUnLCAnPG91dGZpbGUubWFlPic=

>  <r_lp_tautomer_probability>  (314) 
1

>  <r_epik_Ionization_Penalty>  (314) 
0.0754726

>  <r_epik_Ionization_Penalty_Charging>  (314) 
0.0397053

>  <r_epik_Ionization_Penalty_Neutral>  (314) 
0.0357673

>  <r_epik_State_Penalty>  (314) 
0.0616185

>  <r_epik_Charging_Adjusted_Penalty>  (314) 
0.101324

>  <i_epik_Tot_Q>  (314) 
1

>  <i_epik_Tot_abs_Q>  (314) 
1

>  <s_lp_Force_Field>  (314) 
OPLS3e

>  <r_lp_Energy>  (314) 
84.573

>  <b_lp_Chiralities_Consistent>  (314) 
1

>  <s_lp_Variant>  (314) 
87:0-1

>  <s_i_glide_gridfile>  (314) 
pfpi4k_grid

>  <i_i_glide_lignum>  (314) 
37

>  <i_i_glide_rotatable_bonds>  (314) 
1

>  <r_i_docking_score>  (314) 
-3.53131

>  <r_i_glide_ligand_efficiency>  (314) 
-0.168158

>  <r_i_glide_ligand_efficiency_sa>  (314) 
-0.463934

>  <r_i_glide_ligand_efficiency_ln>  (314) 
-0.873109

>  <r_i_glide_gscore>  (314) 
-3.53131

>  <r_i_glide_lipo>  (314) 
-0.424824

>  <r_i_glide_hbond>  (314) 
0

>  <r_i_glide_metal>  (314) 
-0

>  <r_i_glide_rewards>  (314) 
-1.5716

>  <r_i_glide_evdw>  (314) 
-17.0592

>  <r_i_glide_ecoul>  (314) 
-4.54614

>  <r_i_glide_erotb>  (314) 
0

>  <r_i_glide_esite>  (314) 
0

>  <r_i_glide_emodel>  (314) 
-26.9066

>  <r_i_glide_energy>  (314) 
-21.6053

>  <r_i_glide_einternal>  (314) 
0.0042097

>  <r_i_glide_intrahb_reward>  (314) 
-0

>  <i_i_glide_confnum>  (314) 
1

>  <i_i_glide_posenum>  (314) 
39

>  <r_i_glide_eff_state_penalty>  (314) 
0

>  <ligand_id>  (314) 
87

>  <original_smiles>  (314) 
CN1CCC23c4c5ccc(O)c4OC2C(=O)CCC3C1C5

>  <smiles>  (314) 
[H]Oc1c([H])c([H])c2c3c1OC1([H])C(=O)C([H])([H])C([H])([H])C4([H])C31C([H])([H])C([H])([H])[N+]([H])(C([H])([H])[H])C4([H])C2([H])[H]

$$$$
87:0:2
     RDKit          3D

 41 45  0  0  1  0  0  0  0  0999 V2000
    3.1684   -1.3645   -3.0282 C   0  0  0  0  0  0  0  0  0  0  0  0
    4.1385   -2.1192   -2.2015 N   0  0  2  0  0  0  0  0  0  0  0  0
    3.5787   -3.4458   -1.7688 C   0  0  0  0  0  0  0  0  0  0  0  0
    2.8906   -3.4139   -0.3770 C   0  0  0  0  0  0  0  0  0  0  0  0
    3.8111   -2.6718    0.6251 C   0  0  2  0  0  0  0  0  0  0  0  0
    5.0865   -3.4260    0.7085 C   0  0  0  0  0  0  0  0  0  0  0  0
    6.2342   -3.1839   -0.0450 C   0  0  0  0  0  0  0  0  0  0  0  0
    7.2713   -4.1240    0.1119 C   0  0  0  0  0  0  0  0  0  0  0  0
    7.0847   -5.2254    0.9955 C   0  0  0  0  0  0  0  0  0  0  0  0
    5.9149   -5.3492    1.7960 C   0  0  0  0  0  0  0  0  0  0  0  0
    5.7944   -6.3732    2.6874 O   0  0  0  0  0  0  0  0  0  0  0  0
    4.8849   -4.3942    1.6858 C   0  0  0  0  0  0  0  0  0  0  0  0
    3.7385   -4.1787    2.4324 O   0  0  0  0  0  0  0  0  0  0  0  0
    3.5489   -2.7961    2.1133 C   0  0  2  0  0  0  0  0  0  0  0  0
    2.4092   -1.9343    2.5929 C   0  0  0  0  0  0  0  0  0  0  0  0
    1.4234   -2.3494    3.1989 O   0  0  0  0  0  0  0  0  0  0  0  0
    2.6709   -0.4453    2.2527 C   0  0  0  0  0  0  0  0  0  0  0  0
    3.8987   -0.2186    1.2735 C   0  0  0  0  0  0  0  0  0  0  0  0
    3.8604   -1.2418    0.1077 C   0  0  1  0  0  0  0  0  0  0  0  0
    4.7960   -1.2892   -1.1248 C   0  0  1  0  0  0  0  0  0  0  0  0
    6.2049   -1.8570   -0.8011 C   0  0  0  0  0  0  0  0  0  0  0  0
    2.2704   -1.1442   -2.4541 H   0  0  0  0  0  0  0  0  0  0  0  0
    2.8687   -1.9526   -3.8968 H   0  0  0  0  0  0  0  0  0  0  0  0
    3.5929   -0.4266   -3.3892 H   0  0  0  0  0  0  0  0  0  0  0  0
    2.8807   -3.8282   -2.5159 H   0  0  0  0  0  0  0  0  0  0  0  0
    4.3867   -4.1775   -1.7500 H   0  0  0  0  0  0  0  0  0  0  0  0
    1.9162   -2.9270   -0.4573 H   0  0  0  0  0  0  0  0  0  0  0  0
    2.6787   -4.4343   -0.0522 H   0  0  0  0  0  0  0  0  0  0  0  0
    8.1952   -4.0090   -0.4385 H   0  0  0  0  0  0  0  0  0  0  0  0
    7.8618   -5.9622    1.0862 H   0  0  0  0  0  0  0  0  0  0  0  0
    4.9683   -6.3605    3.1462 H   0  0  0  0  0  0  0  0  0  0  0  0
    4.3743   -2.3161    2.6455 H   0  0  0  0  0  0  0  0  0  0  0  0
    1.7595   -0.0504    1.8033 H   0  0  0  0  0  0  0  0  0  0  0  0
    2.8278    0.1046    3.1809 H   0  0  0  0  0  0  0  0  0  0  0  0
    3.8563    0.7983    0.8798 H   0  0  0  0  0  0  0  0  0  0  0  0
    4.8468   -0.2966    1.8118 H   0  0  0  0  0  0  0  0  0  0  0  0
    2.8911   -0.9741   -0.3000 H   0  0  0  0  0  0  0  0  0  0  0  0
    4.9293   -0.2817   -1.5165 H   0  0  0  0  0  0  0  0  0  0  0  0
    6.7239   -1.1326   -0.1756 H   0  0  0  0  0  0  0  0  0  0  0  0
    6.7918   -1.9686   -1.7121 H   0  0  0  0  0  0  0  0  0  0  0  0
    4.8806   -2.3607   -2.8445 H   0  0  0  0  0  0  0  0  0  0  0  0
  1  2  1  0
  1 22  1  0
  1 23  1  0
  1 24  1  0
  2 20  1  0
  2  3  1  0
  2 41  1  6
  3  4  1  0
  3 25  1  0
  3 26  1  0
  5  4  1  6
  4 27  1  0
  4 28  1  0
  5 14  1  0
  5 19  1  0
  5  6  1  0
  6 12  2  0
  6  7  1  0
  7 21  1  0
  7  8  2  0
  8  9  1  0
  8 29  1  0
  9 10  2  0
  9 30  1  0
 10 11  1  0
 10 12  1  0
 11 31  1  0
 12 13  1  0
 13 14  1  0
 14 15  1  0
 14 32  1  1
 15 16  2  0
 15 17  1  0
 17 18  1  0
 17 33  1  0
 17 34  1  0
 18 19  1  0
 18 35  1  0
 18 36  1  0
 19 20  1  0
 19 37  1  6
 20 21  1  0
 20 38  1  6
 21 39  1  0
 21 40  1  0
M  CHG  1   2   1
M  END
>  <i_m_ct_stereo_status>  (315) 
1

>  <s_m_source_file>  (315) 
/var/tmp/pbs.5076255.sched01/tmprva83imr/861x3d95ot.sdf

>  <i_m_source_file_index>  (315) 
37

>  <i_lp_mmshare_version>  (315) 
48012

>  <i_f3d_flags>  (315) 
0

>  <s_epik_input>  (315) 
W0NIMl0xW0NIMl1OKFtDSDNdKVtDQEhdKFtDSDJdMilbQ0BASF0zW0NIMl1bQ0gyXUMoPU8pW0NASF00T2M1YyhbT0hdKVtjSF1bY0hdYzJjNVtDQF0xMzQ=

>  <s_epik_cmdline>  (315) 
J2VwaWtfcHl0aG9uJywgJy1waHQnLCAnMi4wJywgJy1waCcsICc3LjAnLCAnLXRuJywgJzgnLCAnLW1hJywgJzIwMCcsICctaW1hZScsICc8aW5maWxlLm1hZT4nLCAnLW9tYWUnLCAnPG91dGZpbGUubWFlPic=

>  <r_lp_tautomer_probability>  (315) 
1

>  <r_epik_Ionization_Penalty>  (315) 
0.0754726

>  <r_epik_Ionization_Penalty_Charging>  (315) 
0.0397053

>  <r_epik_Ionization_Penalty_Neutral>  (315) 
0.0357673

>  <r_epik_State_Penalty>  (315) 
0.0616185

>  <r_epik_Charging_Adjusted_Penalty>  (315) 
0.101324

>  <i_epik_Tot_Q>  (315) 
1

>  <i_epik_Tot_abs_Q>  (315) 
1

>  <s_lp_Force_Field>  (315) 
OPLS3e

>  <r_lp_Energy>  (315) 
84.573

>  <b_lp_Chiralities_Consistent>  (315) 
1

>  <s_lp_Variant>  (315) 
87:0-1

>  <s_i_glide_gridfile>  (315) 
pfpi4k_grid

>  <i_i_glide_lignum>  (315) 
37

>  <i_i_glide_rotatable_bonds>  (315) 
1

>  <r_i_docking_score>  (315) 
-3.18076

>  <r_i_glide_ligand_efficiency>  (315) 
-0.151465

>  <r_i_glide_ligand_efficiency_sa>  (315) 
-0.41788

>  <r_i_glide_ligand_efficiency_ln>  (315) 
-0.786437

>  <r_i_glide_gscore>  (315) 
-3.18076

>  <r_i_glide_lipo>  (315) 
-0.465739

>  <r_i_glide_hbond>  (315) 
0

>  <r_i_glide_metal>  (315) 
-0

>  <r_i_glide_rewards>  (315) 
-1.45673

>  <r_i_glide_evdw>  (315) 
-19.0585

>  <r_i_glide_ecoul>  (315) 
-1.9553

>  <r_i_glide_erotb>  (315) 
0

>  <r_i_glide_esite>  (315) 
-0.0120668

>  <r_i_glide_emodel>  (315) 
-25.794

>  <r_i_glide_energy>  (315) 
-21.0138

>  <r_i_glide_einternal>  (315) 
0.00689972

>  <r_i_glide_intrahb_reward>  (315) 
-0

>  <i_i_glide_confnum>  (315) 
1

>  <i_i_glide_posenum>  (315) 
9

>  <r_i_glide_eff_state_penalty>  (315) 
0

>  <ligand_id>  (315) 
87

>  <original_smiles>  (315) 
CN1CCC23c4c5ccc(O)c4OC2C(=O)CCC3C1C5

>  <smiles>  (315) 
[H]Oc1c([H])c([H])c2c3c1OC1([H])C(=O)C([H])([H])C([H])([H])C4([H])C31C([H])([H])C([H])([H])[N+]([H])(C([H])([H])[H])C4([H])C2([H])[H]

$$$$
87:1:0
     RDKit          3D

 40 44  0  0  1  0  0  0  0  0999 V2000
    4.8010   -1.0101   -2.3106 C   0  0  0  0  0  0  0  0  0  0  0  0
    5.7457   -1.8405   -1.5727 N   0  0  0  0  0  0  0  0  0  0  0  0
    5.7360   -3.2402   -2.0639 C   0  0  0  0  0  0  0  0  0  0  0  0
    4.8021   -4.2115   -1.2866 C   0  0  0  0  0  0  0  0  0  0  0  0
    4.9930   -3.9878    0.2264 C   0  0  2  0  0  0  0  0  0  0  0  0
    6.3981   -4.3197    0.5724 C   0  0  0  0  0  0  0  0  0  0  0  0
    7.4588   -3.4162    0.6058 C   0  0  0  0  0  0  0  0  0  0  0  0
    8.7196   -3.9841    0.8714 C   0  0  0  0  0  0  0  0  0  0  0  0
    8.8348   -5.3904    1.0750 C   0  0  0  0  0  0  0  0  0  0  0  0
    7.6947   -6.2379    1.0891 C   0  0  0  0  0  0  0  0  0  0  0  0
    7.8461   -7.5729    1.3265 O   0  0  0  0  0  0  0  0  0  0  0  0
    6.4147   -5.6824    0.8763 C   0  0  0  0  0  0  0  0  0  0  0  0
    5.1448   -6.2196    1.0145 O   0  0  0  0  0  0  0  0  0  0  0  0
    4.4360   -4.9936    1.2185 C   0  0  2  0  0  0  0  0  0  0  0  0
    2.9526   -4.8591    1.4520 C   0  0  0  0  0  0  0  0  0  0  0  0
    2.1191   -5.7515    1.2944 O   0  0  0  0  0  0  0  0  0  0  0  0
    2.6136   -3.4257    1.9335 C   0  0  0  0  0  0  0  0  0  0  0  0
    3.8071   -2.3962    1.8040 C   0  0  0  0  0  0  0  0  0  0  0  0
    4.5114   -2.5561    0.4334 C   0  0  1  0  0  0  0  0  0  0  0  0
    5.6488   -1.6493   -0.1060 C   0  0  1  0  0  0  0  0  0  0  0  0
    7.0415   -1.9457    0.5112 C   0  0  0  0  0  0  0  0  0  0  0  0
    5.0027   -1.0740   -3.3809 H   0  0  0  0  0  0  0  0  0  0  0  0
    4.9189    0.0368   -2.0267 H   0  0  0  0  0  0  0  0  0  0  0  0
    3.7627   -1.2980   -2.1399 H   0  0  0  0  0  0  0  0  0  0  0  0
    5.4990   -3.2708   -3.1267 H   0  0  0  0  0  0  0  0  0  0  0  0
    6.7566   -3.6182   -1.9937 H   0  0  0  0  0  0  0  0  0  0  0  0
    3.7624   -4.0539   -1.5746 H   0  0  0  0  0  0  0  0  0  0  0  0
    5.0199   -5.2438   -1.5616 H   0  0  0  0  0  0  0  0  0  0  0  0
    9.5854   -3.3461    0.9411 H   0  0  0  0  0  0  0  0  0  0  0  0
    9.8019   -5.8226    1.2606 H   0  0  0  0  0  0  0  0  0  0  0  0
    8.7631   -7.8244    1.3641 H   0  0  0  0  0  0  0  0  0  0  0  0
    4.7841   -4.7036    2.2163 H   0  0  0  0  0  0  0  0  0  0  0  0
    1.7985   -3.0697    1.3103 H   0  0  0  0  0  0  0  0  0  0  0  0
    2.2492   -3.4713    2.9620 H   0  0  0  0  0  0  0  0  0  0  0  0
    3.4092   -1.3856    1.8953 H   0  0  0  0  0  0  0  0  0  0  0  0
    4.5200   -2.5287    2.6189 H   0  0  0  0  0  0  0  0  0  0  0  0
    3.6548   -2.3727   -0.2182 H   0  0  0  0  0  0  0  0  0  0  0  0
    5.4116   -0.6026    0.0866 H   0  0  0  0  0  0  0  0  0  0  0  0
    7.0397   -1.5340    1.5196 H   0  0  0  0  0  0  0  0  0  0  0  0
    7.8208   -1.4124   -0.0316 H   0  0  0  0  0  0  0  0  0  0  0  0
  1  2  1  0
  1 22  1  0
  1 23  1  0
  1 24  1  0
  2 20  1  0
  2  3  1  0
  3  4  1  0
  3 25  1  0
  3 26  1  0
  5  4  1  6
  4 27  1  0
  4 28  1  0
  5 14  1  0
  5 19  1  0
  5  6  1  0
  6 12  2  0
  6  7  1  0
  7 21  1  0
  7  8  2  0
  8  9  1  0
  8 29  1  0
  9 10  2  0
  9 30  1  0
 10 11  1  0
 10 12  1  0
 11 31  1  0
 12 13  1  0
 13 14  1  0
 14 15  1  0
 14 32  1  1
 15 16  2  0
 15 17  1  0
 17 18  1  0
 17 33  1  0
 17 34  1  0
 18 19  1  0
 18 35  1  0
 18 36  1  0
 19 20  1  0
 19 37  1  6
 20 21  1  0
 20 38  1  6
 21 39  1  0
 21 40  1  0
M  END
>  <i_m_ct_stereo_status>  (316) 
1

>  <s_m_source_file>  (316) 
/var/tmp/pbs.5076255.sched01/tmprva83imr/861x3d95ot.sdf

>  <i_m_source_file_index>  (316) 
38

>  <i_lp_mmshare_version>  (316) 
48012

>  <i_f3d_flags>  (316) 
0

>  <s_epik_input>  (316) 
W0NIMl0xW0NIMl1OKFtDSDNdKVtDQEhdKFtDSDJdMilbQ0BASF0zW0NIMl1bQ0gyXUMoPU8pW0NASF00T2M1YyhbT0hdKVtjSF1bY0hdYzJjNVtDQF0xMzQ=

>  <s_epik_cmdline>  (316) 
J2VwaWtfcHl0aG9uJywgJy1waHQnLCAnMi4wJywgJy1waCcsICc3LjAnLCAnLXRuJywgJzgnLCAnLW1hJywgJzIwMCcsICctaW1hZScsICc8aW5maWxlLm1hZT4nLCAnLW9tYWUnLCAnPG91dGZpbGUubWFlPic=

>  <r_lp_tautomer_probability>  (316) 
1

>  <r_epik_Ionization_Penalty>  (316) 
1.62542

>  <r_epik_Ionization_Penalty_Charging>  (316) 
0

>  <r_epik_Ionization_Penalty_Neutral>  (316) 
1.62542

>  <r_epik_State_Penalty>  (316) 
1.74913

>  <r_epik_Charging_Adjusted_Penalty>  (316) 
1.74913

>  <i_epik_Tot_Q>  (316) 
0

>  <i_epik_Tot_abs_Q>  (316) 
0

>  <s_lp_Force_Field>  (316) 
OPLS3e

>  <r_lp_Energy>  (316) 
81.4639

>  <b_lp_Chiralities_Consistent>  (316) 
1

>  <s_lp_Variant>  (316) 
87:0-2

>  <s_i_glide_gridfile>  (316) 
pfpi4k_grid

>  <i_i_glide_lignum>  (316) 
38

>  <i_i_glide_rotatable_bonds>  (316) 
1

>  <r_i_docking_score>  (316) 
-4.04085

>  <r_i_glide_ligand_efficiency>  (316) 
-0.192422

>  <r_i_glide_ligand_efficiency_sa>  (316) 
-0.530877

>  <r_i_glide_ligand_efficiency_ln>  (316) 
-0.999093

>  <r_i_glide_gscore>  (316) 
-4.04085

>  <r_i_glide_lipo>  (316) 
-0.617391

>  <r_i_glide_hbond>  (316) 
-0.0235346

>  <r_i_glide_metal>  (316) 
-0

>  <r_i_glide_rewards>  (316) 
-1.46361

>  <r_i_glide_evdw>  (316) 
-21.5426

>  <r_i_glide_ecoul>  (316) 
-5.69135

>  <r_i_glide_erotb>  (316) 
0

>  <r_i_glide_esite>  (316) 
-0.00548906

>  <r_i_glide_emodel>  (316) 
-34.3383

>  <r_i_glide_energy>  (316) 
-27.234

>  <r_i_glide_einternal>  (316) 
0.0343325

>  <r_i_glide_intrahb_reward>  (316) 
-0

>  <i_i_glide_confnum>  (316) 
2

>  <i_i_glide_posenum>  (316) 
21

>  <r_i_glide_eff_state_penalty>  (316) 
0

>  <ligand_id>  (316) 
87

>  <original_smiles>  (316) 
CN1CCC23c4c5ccc(O)c4OC2C(=O)CCC3C1C5

>  <smiles>  (316) 
[H]Oc1c([H])c([H])c2c3c1OC1([H])C(=O)C([H])([H])C([H])([H])C4([H])C([H])(N(C([H])([H])[H])C([H])([H])C([H])([H])C314)C2([H])[H]

$$$$
87:1:1
     RDKit          3D

 40 44  0  0  1  0  0  0  0  0999 V2000
    4.5391   -0.9462   -2.4865 C   0  0  0  0  0  0  0  0  0  0  0  0
    5.4088   -1.8616   -1.7448 N   0  0  0  0  0  0  0  0  0  0  0  0
    4.8998   -3.2516   -1.7976 C   0  0  0  0  0  0  0  0  0  0  0  0
    4.0056   -3.6812   -0.5989 C   0  0  0  0  0  0  0  0  0  0  0  0
    4.6871   -3.2092    0.7095 C   0  0  2  0  0  0  0  0  0  0  0  0
    6.0003   -3.9007    0.8259 C   0  0  0  0  0  0  0  0  0  0  0  0
    7.2298   -3.3944    0.3863 C   0  0  0  0  0  0  0  0  0  0  0  0
    8.3203   -4.2729    0.5253 C   0  0  0  0  0  0  0  0  0  0  0  0
    8.1221   -5.5728    1.0845 C   0  0  0  0  0  0  0  0  0  0  0  0
    6.8545   -5.9775    1.5915 C   0  0  0  0  0  0  0  0  0  0  0  0
    6.7159   -7.1902    2.1896 O   0  0  0  0  0  0  0  0  0  0  0  0
    5.7300   -5.1013    1.5015 C   0  0  0  0  0  0  0  0  0  0  0  0
    4.4859   -5.1469    2.0575 O   0  0  0  0  0  0  0  0  0  0  0  0
    4.1995   -3.7415    2.0505 C   0  0  2  0  0  0  0  0  0  0  0  0
    2.9382   -3.0902    2.5440 C   0  0  0  0  0  0  0  0  0  0  0  0
    1.9108   -3.6998    2.8647 O   0  0  0  0  0  0  0  0  0  0  0  0
    3.1068   -1.5571    2.6394 C   0  0  0  0  0  0  0  0  0  0  0  0
    4.4415   -1.0210    1.9661 C   0  0  0  0  0  0  0  0  0  0  0  0
    4.6634   -1.6933    0.5886 C   0  0  1  0  0  0  0  0  0  0  0  0
    5.7897   -1.3422   -0.4092 C   0  0  1  0  0  0  0  0  0  0  0  0
    7.1737   -1.9418   -0.0452 C   0  0  0  0  0  0  0  0  0  0  0  0
    4.4071   -1.3002   -3.5077 H   0  0  0  0  0  0  0  0  0  0  0  0
    4.9955    0.0418   -2.5413 H   0  0  0  0  0  0  0  0  0  0  0  0
    3.5519   -0.8496   -2.0278 H   0  0  0  0  0  0  0  0  0  0  0  0
    4.3620   -3.4342   -2.7310 H   0  0  0  0  0  0  0  0  0  0  0  0
    5.7559   -3.9217   -1.8348 H   0  0  0  0  0  0  0  0  0  0  0  0
    3.0032   -3.2573   -0.6939 H   0  0  0  0  0  0  0  0  0  0  0  0
    3.8650   -4.7623   -0.6043 H   0  0  0  0  0  0  0  0  0  0  0  0
    9.2942   -3.9489    0.2159 H   0  0  0  0  0  0  0  0  0  0  0  0
    8.9611   -6.2398    1.1611 H   0  0  0  0  0  0  0  0  0  0  0  0
    7.5093   -7.6825    2.2014 H   0  0  0  0  0  0  0  0  0  0  0  0
    4.8878   -3.3762    2.8176 H   0  0  0  0  0  0  0  0  0  0  0  0
    2.2448   -1.0989    2.1521 H   0  0  0  0  0  0  0  0  0  0  0  0
    3.0728   -1.2612    3.6902 H   0  0  0  0  0  0  0  0  0  0  0  0
    4.3710    0.0599    1.8437 H   0  0  0  0  0  0  0  0  0  0  0  0
    5.3012   -1.2012    2.6167 H   0  0  0  0  0  0  0  0  0  0  0  0
    3.7335   -1.3875    0.1065 H   0  0  0  0  0  0  0  0  0  0  0  0
    5.8879   -0.2596   -0.4833 H   0  0  0  0  0  0  0  0  0  0  0  0
    7.5994   -1.3444    0.7691 H   0  0  0  0  0  0  0  0  0  0  0  0
    7.8753   -1.8551   -0.8778 H   0  0  0  0  0  0  0  0  0  0  0  0
  1  2  1  0
  1 22  1  0
  1 23  1  0
  1 24  1  0
  2 20  1  0
  2  3  1  0
  3  4  1  0
  3 25  1  0
  3 26  1  0
  5  4  1  6
  4 27  1  0
  4 28  1  0
  5 14  1  0
  5 19  1  0
  5  6  1  0
  6 12  2  0
  6  7  1  0
  7 21  1  0
  7  8  2  0
  8  9  1  0
  8 29  1  0
  9 10  2  0
  9 30  1  0
 10 11  1  0
 10 12  1  0
 11 31  1  0
 12 13  1  0
 13 14  1  0
 14 15  1  0
 14 32  1  1
 15 16  2  0
 15 17  1  0
 17 18  1  0
 17 33  1  0
 17 34  1  0
 18 19  1  0
 18 35  1  0
 18 36  1  0
 19 20  1  0
 19 37  1  6
 20 21  1  0
 20 38  1  6
 21 39  1  0
 21 40  1  0
M  END
>  <i_m_ct_stereo_status>  (317) 
1

>  <s_m_source_file>  (317) 
/var/tmp/pbs.5076255.sched01/tmprva83imr/861x3d95ot.sdf

>  <i_m_source_file_index>  (317) 
38

>  <i_lp_mmshare_version>  (317) 
48012

>  <i_f3d_flags>  (317) 
0

>  <s_epik_input>  (317) 
W0NIMl0xW0NIMl1OKFtDSDNdKVtDQEhdKFtDSDJdMilbQ0BASF0zW0NIMl1bQ0gyXUMoPU8pW0NASF00T2M1YyhbT0hdKVtjSF1bY0hdYzJjNVtDQF0xMzQ=

>  <s_epik_cmdline>  (317) 
J2VwaWtfcHl0aG9uJywgJy1waHQnLCAnMi4wJywgJy1waCcsICc3LjAnLCAnLXRuJywgJzgnLCAnLW1hJywgJzIwMCcsICctaW1hZScsICc8aW5maWxlLm1hZT4nLCAnLW9tYWUnLCAnPG91dGZpbGUubWFlPic=

>  <r_lp_tautomer_probability>  (317) 
1

>  <r_epik_Ionization_Penalty>  (317) 
1.62542

>  <r_epik_Ionization_Penalty_Charging>  (317) 
0

>  <r_epik_Ionization_Penalty_Neutral>  (317) 
1.62542

>  <r_epik_State_Penalty>  (317) 
1.74913

>  <r_epik_Charging_Adjusted_Penalty>  (317) 
1.74913

>  <i_epik_Tot_Q>  (317) 
0

>  <i_epik_Tot_abs_Q>  (317) 
0

>  <s_lp_Force_Field>  (317) 
OPLS3e

>  <r_lp_Energy>  (317) 
81.4639

>  <b_lp_Chiralities_Consistent>  (317) 
1

>  <s_lp_Variant>  (317) 
87:0-2

>  <s_i_glide_gridfile>  (317) 
pfpi4k_grid

>  <i_i_glide_lignum>  (317) 
38

>  <i_i_glide_rotatable_bonds>  (317) 
1

>  <r_i_docking_score>  (317) 
-3.30209

>  <r_i_glide_ligand_efficiency>  (317) 
-0.157242

>  <r_i_glide_ligand_efficiency_sa>  (317) 
-0.433819

>  <r_i_glide_ligand_efficiency_ln>  (317) 
-0.816434

>  <r_i_glide_gscore>  (317) 
-3.30209

>  <r_i_glide_lipo>  (317) 
-0.70336

>  <r_i_glide_hbond>  (317) 
0

>  <r_i_glide_metal>  (317) 
-0

>  <r_i_glide_rewards>  (317) 
-1.46361

>  <r_i_glide_evdw>  (317) 
-21.6275

>  <r_i_glide_ecoul>  (317) 
-0.352166

>  <r_i_glide_erotb>  (317) 
0

>  <r_i_glide_esite>  (317) 
-0.000917354

>  <r_i_glide_emodel>  (317) 
-27.74

>  <r_i_glide_energy>  (317) 
-21.9797

>  <r_i_glide_einternal>  (317) 
0.00272213

>  <r_i_glide_intrahb_reward>  (317) 
-0

>  <i_i_glide_confnum>  (317) 
2

>  <i_i_glide_posenum>  (317) 
28

>  <r_i_glide_eff_state_penalty>  (317) 
0

>  <ligand_id>  (317) 
87

>  <original_smiles>  (317) 
CN1CCC23c4c5ccc(O)c4OC2C(=O)CCC3C1C5

>  <smiles>  (317) 
[H]Oc1c([H])c([H])c2c3c1OC1([H])C(=O)C([H])([H])C([H])([H])C4([H])C([H])(N(C([H])([H])[H])C([H])([H])C([H])([H])C314)C2([H])[H]

$$$$
87:1:2
     RDKit          3D

 40 44  0  0  1  0  0  0  0  0999 V2000
    3.5140   -1.3434   -3.1513 C   0  0  0  0  0  0  0  0  0  0  0  0
    4.4181   -2.1101   -2.3027 N   0  0  0  0  0  0  0  0  0  0  0  0
    3.8431   -3.4312   -1.9471 C   0  0  0  0  0  0  0  0  0  0  0  0
    3.0867   -3.4850   -0.5890 C   0  0  0  0  0  0  0  0  0  0  0  0
    3.9324   -2.7557    0.4779 C   0  0  2  0  0  0  0  0  0  0  0  0
    5.2205   -3.4839    0.6290 C   0  0  0  0  0  0  0  0  0  0  0  0
    6.4051   -3.1992   -0.0478 C   0  0  0  0  0  0  0  0  0  0  0  0
    7.4737   -4.0844    0.1989 C   0  0  0  0  0  0  0  0  0  0  0  0
    7.2832   -5.1862    1.0809 C   0  0  0  0  0  0  0  0  0  0  0  0
    6.0672   -5.3619    1.7967 C   0  0  0  0  0  0  0  0  0  0  0  0
    5.9374   -6.3800    2.6957 O   0  0  0  0  0  0  0  0  0  0  0  0
    5.0002   -4.4605    1.5992 C   0  0  0  0  0  0  0  0  0  0  0  0
    3.8086   -4.2827    2.2848 O   0  0  0  0  0  0  0  0  0  0  0  0
    3.5925   -2.9053    1.9501 C   0  0  2  0  0  0  0  0  0  0  0  0
    2.4228   -2.0640    2.3963 C   0  0  0  0  0  0  0  0  0  0  0  0
    1.4224   -2.4997    2.9637 O   0  0  0  0  0  0  0  0  0  0  0  0
    2.6740   -0.5680    2.0800 C   0  0  0  0  0  0  0  0  0  0  0  0
    3.9437   -0.3127    1.1636 C   0  0  0  0  0  0  0  0  0  0  0  0
    3.9743   -1.3162   -0.0161 C   0  0  1  0  0  0  0  0  0  0  0  0
    4.9818   -1.3060   -1.1909 C   0  0  1  0  0  0  0  0  0  0  0  0
    6.3758   -1.8907   -0.8361 C   0  0  0  0  0  0  0  0  0  0  0  0
    3.2364   -1.9258   -4.0333 H   0  0  0  0  0  0  0  0  0  0  0  0
    4.0089   -0.4364   -3.5058 H   0  0  0  0  0  0  0  0  0  0  0  0
    2.6001   -1.0575   -2.6303 H   0  0  0  0  0  0  0  0  0  0  0  0
    3.1948   -3.7932   -2.7437 H   0  0  0  0  0  0  0  0  0  0  0  0
    4.6624   -4.1502   -1.9039 H   0  0  0  0  0  0  0  0  0  0  0  0
    2.0989   -3.0355   -0.6860 H   0  0  0  0  0  0  0  0  0  0  0  0
    2.9031   -4.5245   -0.3095 H   0  0  0  0  0  0  0  0  0  0  0  0
    8.4263   -3.9296   -0.2844 H   0  0  0  0  0  0  0  0  0  0  0  0
    8.0875   -5.8848    1.2378 H   0  0  0  0  0  0  0  0  0  0  0  0
    5.0800   -6.3987    3.0934 H   0  0  0  0  0  0  0  0  0  0  0  0
    4.3808   -2.4121    2.5289 H   0  0  0  0  0  0  0  0  0  0  0  0
    1.7804   -0.1866    1.5843 H   0  0  0  0  0  0  0  0  0  0  0  0
    2.7749   -0.0232    3.0209 H   0  0  0  0  0  0  0  0  0  0  0  0
    3.9065    0.7077    0.7835 H   0  0  0  0  0  0  0  0  0  0  0  0
    4.8635   -0.3886    1.7466 H   0  0  0  0  0  0  0  0  0  0  0  0
    3.0123   -1.0697   -0.4664 H   0  0  0  0  0  0  0  0  0  0  0  0
    5.1198   -0.2863   -1.5501 H   0  0  0  0  0  0  0  0  0  0  0  0
    6.9029   -1.1565   -0.2292 H   0  0  0  0  0  0  0  0  0  0  0  0
    6.9570   -2.0377   -1.7459 H   0  0  0  0  0  0  0  0  0  0  0  0
  1  2  1  0
  1 22  1  0
  1 23  1  0
  1 24  1  0
  2 20  1  0
  2  3  1  0
  3  4  1  0
  3 25  1  0
  3 26  1  0
  5  4  1  6
  4 27  1  0
  4 28  1  0
  5 14  1  0
  5 19  1  0
  5  6  1  0
  6 12  2  0
  6  7  1  0
  7 21  1  0
  7  8  2  0
  8  9  1  0
  8 29  1  0
  9 10  2  0
  9 30  1  0
 10 11  1  0
 10 12  1  0
 11 31  1  0
 12 13  1  0
 13 14  1  0
 14 15  1  0
 14 32  1  1
 15 16  2  0
 15 17  1  0
 17 18  1  0
 17 33  1  0
 17 34  1  0
 18 19  1  0
 18 35  1  0
 18 36  1  0
 19 20  1  0
 19 37  1  6
 20 21  1  0
 20 38  1  6
 21 39  1  0
 21 40  1  0
M  END
>  <i_m_ct_stereo_status>  (318) 
1

>  <s_m_source_file>  (318) 
/var/tmp/pbs.5076255.sched01/tmprva83imr/861x3d95ot.sdf

>  <i_m_source_file_index>  (318) 
38

>  <i_lp_mmshare_version>  (318) 
48012

>  <i_f3d_flags>  (318) 
0

>  <s_epik_input>  (318) 
W0NIMl0xW0NIMl1OKFtDSDNdKVtDQEhdKFtDSDJdMilbQ0BASF0zW0NIMl1bQ0gyXUMoPU8pW0NASF00T2M1YyhbT0hdKVtjSF1bY0hdYzJjNVtDQF0xMzQ=

>  <s_epik_cmdline>  (318) 
J2VwaWtfcHl0aG9uJywgJy1waHQnLCAnMi4wJywgJy1waCcsICc3LjAnLCAnLXRuJywgJzgnLCAnLW1hJywgJzIwMCcsICctaW1hZScsICc8aW5maWxlLm1hZT4nLCAnLW9tYWUnLCAnPG91dGZpbGUubWFlPic=

>  <r_lp_tautomer_probability>  (318) 
1

>  <r_epik_Ionization_Penalty>  (318) 
1.62542

>  <r_epik_Ionization_Penalty_Charging>  (318) 
0

>  <r_epik_Ionization_Penalty_Neutral>  (318) 
1.62542

>  <r_epik_State_Penalty>  (318) 
1.74913

>  <r_epik_Charging_Adjusted_Penalty>  (318) 
1.74913

>  <i_epik_Tot_Q>  (318) 
0

>  <i_epik_Tot_abs_Q>  (318) 
0

>  <s_lp_Force_Field>  (318) 
OPLS3e

>  <r_lp_Energy>  (318) 
81.4639

>  <b_lp_Chiralities_Consistent>  (318) 
1

>  <s_lp_Variant>  (318) 
87:0-2

>  <s_i_glide_gridfile>  (318) 
pfpi4k_grid

>  <i_i_glide_lignum>  (318) 
38

>  <i_i_glide_rotatable_bonds>  (318) 
1

>  <r_i_docking_score>  (318) 
-3.14262

>  <r_i_glide_ligand_efficiency>  (318) 
-0.149648

>  <r_i_glide_ligand_efficiency_sa>  (318) 
-0.412868

>  <r_i_glide_ligand_efficiency_ln>  (318) 
-0.777005

>  <r_i_glide_gscore>  (318) 
-3.14262

>  <r_i_glide_lipo>  (318) 
-0.609414

>  <r_i_glide_hbond>  (318) 
0

>  <r_i_glide_metal>  (318) 
-0

>  <r_i_glide_rewards>  (318) 
-1.46361

>  <r_i_glide_evdw>  (318) 
-21.7797

>  <r_i_glide_ecoul>  (318) 
0.199326

>  <r_i_glide_erotb>  (318) 
0

>  <r_i_glide_esite>  (318) 
-0.0105066

>  <r_i_glide_emodel>  (318) 
-27.1096

>  <r_i_glide_energy>  (318) 
-21.5804

>  <r_i_glide_einternal>  (318) 
0.00162971

>  <r_i_glide_intrahb_reward>  (318) 
-0

>  <i_i_glide_confnum>  (318) 
2

>  <i_i_glide_posenum>  (318) 
10

>  <r_i_glide_eff_state_penalty>  (318) 
0

>  <ligand_id>  (318) 
87

>  <original_smiles>  (318) 
CN1CCC23c4c5ccc(O)c4OC2C(=O)CCC3C1C5

>  <smiles>  (318) 
[H]Oc1c([H])c([H])c2c3c1OC1([H])C(=O)C([H])([H])C([H])([H])C4([H])C([H])(N(C([H])([H])[H])C([H])([H])C([H])([H])C314)C2([H])[H]

$$$$
87:2:0
     RDKit          3D

 40 44  0  0  1  0  0  0  0  0999 V2000
    2.9509   -2.6487   -2.5273 C   0  0  0  0  0  0  0  0  0  0  0  0
    3.8824   -3.2652   -1.5543 N   0  0  2  0  0  0  0  0  0  0  0  0
    3.1569   -4.1748   -0.6073 C   0  0  0  0  0  0  0  0  0  0  0  0
    2.7185   -3.4901    0.7168 C   0  0  0  0  0  0  0  0  0  0  0  0
    3.9157   -2.6910    1.2859 C   0  0  2  0  0  0  0  0  0  0  0  0
    5.0253   -3.6481    1.5381 C   0  0  0  0  0  0  0  0  0  0  0  0
    6.0597   -3.9585    0.6560 C   0  0  0  0  0  0  0  0  0  0  0  0
    6.9058   -5.0073    1.0622 C   0  0  0  0  0  0  0  0  0  0  0  0
    6.6597   -5.6526    2.3045 C   0  0  0  0  0  0  0  0  0  0  0  0
    5.6392   -5.2129    3.1917 C   0  0  0  0  0  0  0  0  0  0  0  0
    5.4882   -5.8019    4.4140 O   0  0  0  0  0  0  0  0  0  0  0  0
    4.8024   -4.1381    2.8175 C   0  0  0  0  0  0  0  0  0  0  0  0
    3.8530   -3.4168    3.5216 O   0  0  0  0  0  0  0  0  0  0  0  0
    3.8807   -2.2272    2.7274 C   0  0  2  0  0  0  0  0  0  0  0  0
    3.0096   -1.0177    2.9403 C   0  0  0  0  0  0  0  0  0  0  0  0
    2.0713   -0.9537    3.7305 O   0  0  0  0  0  0  0  0  0  0  0  0
    3.4829    0.1552    2.0487 C   0  0  0  0  0  0  0  0  0  0  0  0
    4.5550   -0.2634    0.9604 C   0  0  0  0  0  0  0  0  0  0  0  0
    4.1330   -1.5856    0.2633 C   0  0  1  0  0  0  0  0  0  0  0  0
    4.8429   -2.2818   -0.9287 C   0  0  1  0  0  0  0  0  0  0  0  0
    6.1633   -3.0059   -0.5323 C   0  0  0  0  0  0  0  0  0  0  0  0
    2.2196   -2.0367   -2.0158 H   0  0  0  0  0  0  0  0  0  0  0  0
    2.4126   -3.4200   -3.0844 H   0  0  0  0  0  0  0  0  0  0  0  0
    3.4816   -2.0224   -3.2483 H   0  0  0  0  0  0  0  0  0  0  0  0
    2.2851   -4.6176   -1.0928 H   0  0  0  0  0  0  0  0  0  0  0  0
    3.8025   -5.0258   -0.3771 H   0  0  0  0  0  0  0  0  0  0  0  0
    1.8628   -2.8346    0.5333 H   0  0  0  0  0  0  0  0  0  0  0  0
    2.3711   -4.2470    1.4214 H   0  0  0  0  0  0  0  0  0  0  0  0
    7.7352   -5.3066    0.4402 H   0  0  0  0  0  0  0  0  0  0  0  0
    7.2935   -6.4698    2.5998 H   0  0  0  0  0  0  0  0  0  0  0  0
    4.8552   -1.7993    2.9764 H   0  0  0  0  0  0  0  0  0  0  0  0
    2.6024    0.5690    1.5563 H   0  0  0  0  0  0  0  0  0  0  0  0
    3.8831    0.9438    2.6883 H   0  0  0  0  0  0  0  0  0  0  0  0
    4.6234    0.5367    0.2276 H   0  0  0  0  0  0  0  0  0  0  0  0
    5.5488   -0.3691    1.4055 H   0  0  0  0  0  0  0  0  0  0  0  0
    3.1694   -1.2580   -0.1307 H   0  0  0  0  0  0  0  0  0  0  0  0
    5.0972   -1.5337   -1.6846 H   0  0  0  0  0  0  0  0  0  0  0  0
    6.9059   -2.2500   -0.2756 H   0  0  0  0  0  0  0  0  0  0  0  0
    6.5707   -3.5467   -1.3858 H   0  0  0  0  0  0  0  0  0  0  0  0
    4.4463   -3.8906   -2.1140 H   0  0  0  0  0  0  0  0  0  0  0  0
  1  2  1  0
  1 22  1  0
  1 23  1  0
  1 24  1  0
  2 20  1  0
  2  3  1  0
  2 40  1  6
  3  4  1  0
  3 25  1  0
  3 26  1  0
  5  4  1  6
  4 27  1  0
  4 28  1  0
  5 14  1  0
  5 19  1  0
  5  6  1  0
  6 12  2  0
  6  7  1  0
  7 21  1  0
  7  8  2  0
  8  9  1  0
  8 29  1  0
  9 10  2  0
  9 30  1  0
 10 11  1  0
 10 12  1  0
 12 13  1  0
 13 14  1  0
 14 15  1  0
 14 31  1  1
 15 16  2  0
 15 17  1  0
 17 18  1  0
 17 32  1  0
 17 33  1  0
 18 19  1  0
 18 34  1  0
 18 35  1  0
 19 20  1  0
 19 36  1  6
 20 21  1  0
 20 37  1  6
 21 38  1  0
 21 39  1  0
M  CHG  2   2   1  11  -1
M  END
>  <i_m_ct_stereo_status>  (319) 
1

>  <s_m_source_file>  (319) 
/var/tmp/pbs.5076255.sched01/tmprva83imr/861x3d95ot.sdf

>  <i_m_source_file_index>  (319) 
39

>  <i_lp_mmshare_version>  (319) 
48012

>  <i_f3d_flags>  (319) 
0

>  <s_epik_input>  (319) 
W0NIMl0xW0NIMl1OKFtDSDNdKVtDQEhdKFtDSDJdMilbQ0BASF0zW0NIMl1bQ0gyXUMoPU8pW0NASF00T2M1YyhbT0hdKVtjSF1bY0hdYzJjNVtDQF0xMzQ=

>  <s_epik_cmdline>  (319) 
J2VwaWtfcHl0aG9uJywgJy1waHQnLCAnMi4wJywgJy1waCcsICc3LjAnLCAnLXRuJywgJzgnLCAnLW1hJywgJzIwMCcsICctaW1hZScsICc8aW5maWxlLm1hZT4nLCAnLW9tYWUnLCAnPG91dGZpbGUubWFlPic=

>  <r_epik_Ionization_Penalty>  (319) 
1.71669

>  <r_epik_Ionization_Penalty_Charging>  (319) 
1.71669

>  <r_epik_Ionization_Penalty_Neutral>  (319) 
1.51878e-10

>  <r_epik_State_Penalty>  (319) 
1.81729

>  <r_epik_Charging_Adjusted_Penalty>  (319) 
3.53398

>  <i_epik_Tot_Q>  (319) 
0

>  <i_epik_Tot_abs_Q>  (319) 
2

>  <s_lp_Force_Field>  (319) 
OPLS3e

>  <r_lp_Energy>  (319) 
81.6101

>  <b_lp_Chiralities_Consistent>  (319) 
1

>  <s_lp_Variant>  (319) 
87:0-3

>  <s_i_glide_gridfile>  (319) 
pfpi4k_grid

>  <i_i_glide_lignum>  (319) 
39

>  <i_i_glide_rotatable_bonds>  (319) 
0

>  <r_i_docking_score>  (319) 
-3.20325

>  <r_i_glide_ligand_efficiency>  (319) 
-0.152536

>  <r_i_glide_ligand_efficiency_sa>  (319) 
-0.420835

>  <r_i_glide_ligand_efficiency_ln>  (319) 
-0.791998

>  <r_i_glide_gscore>  (319) 
-3.20325

>  <r_i_glide_lipo>  (319) 
-0.486895

>  <r_i_glide_hbond>  (319) 
0

>  <r_i_glide_metal>  (319) 
-0

>  <r_i_glide_rewards>  (319) 
-1.46361

>  <r_i_glide_evdw>  (319) 
-15.7551

>  <r_i_glide_ecoul>  (319) 
-3.02463

>  <r_i_glide_erotb>  (319) 
0

>  <r_i_glide_esite>  (319) 
-0.0113046

>  <r_i_glide_emodel>  (319) 
-22.9253

>  <r_i_glide_energy>  (319) 
-18.7797

>  <r_i_glide_einternal>  (319) 
0

>  <r_i_glide_intrahb_reward>  (319) 
-0

>  <i_i_glide_confnum>  (319) 
2

>  <i_i_glide_posenum>  (319) 
3

>  <r_i_glide_eff_state_penalty>  (319) 
0

>  <ligand_id>  (319) 
87

>  <original_smiles>  (319) 
CN1CCC23c4c5ccc(O)c4OC2C(=O)CCC3C1C5

>  <smiles>  (319) 
[H]c1c([H])c2c3c(c1[O-])OC1([H])C(=O)C([H])([H])C([H])([H])C4([H])C31C([H])([H])C([H])([H])[N+]([H])(C([H])([H])[H])C4([H])C2([H])[H]

$$$$
87:2:1
     RDKit          3D

 40 44  0  0  1  0  0  0  0  0999 V2000
    2.1851   -2.4493   -3.4999 C   0  0  0  0  0  0  0  0  0  0  0  0
    3.5803   -2.4114   -2.9933 N   0  0  2  0  0  0  0  0  0  0  0  0
    4.0575   -3.7873   -2.7267 C   0  0  0  0  0  0  0  0  0  0  0  0
    3.7777   -4.2608   -1.2377 C   0  0  0  0  0  0  0  0  0  0  0  0
    4.3021   -3.1769   -0.2696 C   0  0  2  0  0  0  0  0  0  0  0  0
    5.7441   -3.0290   -0.5256 C   0  0  0  0  0  0  0  0  0  0  0  0
    6.2953   -2.1508   -1.4576 C   0  0  0  0  0  0  0  0  0  0  0  0
    7.6724   -2.3740   -1.7009 C   0  0  0  0  0  0  0  0  0  0  0  0
    8.3766   -3.3160   -0.9437 C   0  0  0  0  0  0  0  0  0  0  0  0
    7.7790   -4.1122    0.0668 C   0  0  0  0  0  0  0  0  0  0  0  0
    8.5373   -5.0107    0.7226 O   0  0  0  0  0  0  0  0  0  0  0  0
    6.3841   -3.9429    0.2922 C   0  0  0  0  0  0  0  0  0  0  0  0
    5.5402   -4.4878    1.2542 O   0  0  0  0  0  0  0  0  0  0  0  0
    4.5486   -3.4647    1.1950 C   0  0  2  0  0  0  0  0  0  0  0  0
    3.2823   -3.4621    2.0009 C   0  0  0  0  0  0  0  0  0  0  0  0
    2.8865   -4.4062    2.6745 O   0  0  0  0  0  0  0  0  0  0  0  0
    2.5565   -2.1022    1.8835 C   0  0  0  0  0  0  0  0  0  0  0  0
    3.1456   -1.1581    0.7591 C   0  0  0  0  0  0  0  0  0  0  0  0
    3.3918   -1.9871   -0.5316 C   0  0  1  0  0  0  0  0  0  0  0  0
    3.8245   -1.4215   -1.8959 C   0  0  1  0  0  0  0  0  0  0  0  0
    5.3131   -1.0464   -1.9033 C   0  0  0  0  0  0  0  0  0  0  0  0
    1.4727   -2.7594   -2.7275 H   0  0  0  0  0  0  0  0  0  0  0  0
    2.0721   -3.1158   -4.3636 H   0  0  0  0  0  0  0  0  0  0  0  0
    1.9785   -1.4598   -3.8859 H   0  0  0  0  0  0  0  0  0  0  0  0
    3.6215   -4.3637   -3.5461 H   0  0  0  0  0  0  0  0  0  0  0  0
    5.1312   -3.9040   -2.9272 H   0  0  0  0  0  0  0  0  0  0  0  0
    2.7039   -4.4160   -1.0467 H   0  0  0  0  0  0  0  0  0  0  0  0
    4.2908   -5.2123   -1.0274 H   0  0  0  0  0  0  0  0  0  0  0  0
    8.2599   -1.8973   -2.4517 H   0  0  0  0  0  0  0  0  0  0  0  0
    9.4225   -3.4489   -1.1682 H   0  0  0  0  0  0  0  0  0  0  0  0
    5.0626   -2.6000    1.6377 H   0  0  0  0  0  0  0  0  0  0  0  0
    1.5086   -2.3130    1.6737 H   0  0  0  0  0  0  0  0  0  0  0  0
    2.5974   -1.5995    2.8471 H   0  0  0  0  0  0  0  0  0  0  0  0
    2.4445   -0.3449    0.5568 H   0  0  0  0  0  0  0  0  0  0  0  0
    4.0736   -0.6792    1.0839 H   0  0  0  0  0  0  0  0  0  0  0  0
    2.3884   -2.3590   -0.7107 H   0  0  0  0  0  0  0  0  0  0  0  0
    3.2661   -0.5244   -2.1588 H   0  0  0  0  0  0  0  0  0  0  0  0
    5.4735   -0.2131   -1.2174 H   0  0  0  0  0  0  0  0  0  0  0  0
    5.3973   -0.6752   -2.9132 H   0  0  0  0  0  0  0  0  0  0  0  0
    4.1190   -2.1249   -3.7716 H   0  0  0  0  0  0  0  0  0  0  0  0
  1  2  1  0
  1 22  1  0
  1 23  1  0
  1 24  1  0
  2 20  1  0
  2  3  1  0
  2 40  1  6
  3  4  1  0
  3 25  1  0
  3 26  1  0
  5  4  1  6
  4 27  1  0
  4 28  1  0
  5 14  1  0
  5 19  1  0
  5  6  1  0
  6 12  2  0
  6  7  1  0
  7 21  1  0
  7  8  2  0
  8  9  1  0
  8 29  1  0
  9 10  2  0
  9 30  1  0
 10 11  1  0
 10 12  1  0
 12 13  1  0
 13 14  1  0
 14 15  1  0
 14 31  1  1
 15 16  2  0
 15 17  1  0
 17 18  1  0
 17 32  1  0
 17 33  1  0
 18 19  1  0
 18 34  1  0
 18 35  1  0
 19 20  1  0
 19 36  1  6
 20 21  1  0
 20 37  1  6
 21 38  1  0
 21 39  1  0
M  CHG  2   2   1  11  -1
M  END
>  <i_m_ct_stereo_status>  (320) 
1

>  <s_m_source_file>  (320) 
/var/tmp/pbs.5076255.sched01/tmprva83imr/861x3d95ot.sdf

>  <i_m_source_file_index>  (320) 
39

>  <i_lp_mmshare_version>  (320) 
48012

>  <i_f3d_flags>  (320) 
0

>  <s_epik_input>  (320) 
W0NIMl0xW0NIMl1OKFtDSDNdKVtDQEhdKFtDSDJdMilbQ0BASF0zW0NIMl1bQ0gyXUMoPU8pW0NASF00T2M1YyhbT0hdKVtjSF1bY0hdYzJjNVtDQF0xMzQ=

>  <s_epik_cmdline>  (320) 
J2VwaWtfcHl0aG9uJywgJy1waHQnLCAnMi4wJywgJy1waCcsICc3LjAnLCAnLXRuJywgJzgnLCAnLW1hJywgJzIwMCcsICctaW1hZScsICc8aW5maWxlLm1hZT4nLCAnLW9tYWUnLCAnPG91dGZpbGUubWFlPic=

>  <r_epik_Ionization_Penalty>  (320) 
1.71669

>  <r_epik_Ionization_Penalty_Charging>  (320) 
1.71669

>  <r_epik_Ionization_Penalty_Neutral>  (320) 
1.51878e-10

>  <r_epik_State_Penalty>  (320) 
1.81729

>  <r_epik_Charging_Adjusted_Penalty>  (320) 
3.53398

>  <i_epik_Tot_Q>  (320) 
0

>  <i_epik_Tot_abs_Q>  (320) 
2

>  <s_lp_Force_Field>  (320) 
OPLS3e

>  <r_lp_Energy>  (320) 
81.6101

>  <b_lp_Chiralities_Consistent>  (320) 
1

>  <s_lp_Variant>  (320) 
87:0-3

>  <s_i_glide_gridfile>  (320) 
pfpi4k_grid

>  <i_i_glide_lignum>  (320) 
39

>  <i_i_glide_rotatable_bonds>  (320) 
0

>  <r_i_docking_score>  (320) 
-3.126

>  <r_i_glide_ligand_efficiency>  (320) 
-0.148857

>  <r_i_glide_ligand_efficiency_sa>  (320) 
-0.410685

>  <r_i_glide_ligand_efficiency_ln>  (320) 
-0.772896

>  <r_i_glide_gscore>  (320) 
-3.126

>  <r_i_glide_lipo>  (320) 
-0.568461

>  <r_i_glide_hbond>  (320) 
0

>  <r_i_glide_metal>  (320) 
-0

>  <r_i_glide_rewards>  (320) 
-1.46537

>  <r_i_glide_evdw>  (320) 
-7.48675

>  <r_i_glide_ecoul>  (320) 
-4.78553

>  <r_i_glide_erotb>  (320) 
0

>  <r_i_glide_esite>  (320) 
0

>  <r_i_glide_emodel>  (320) 
-15.2773

>  <r_i_glide_energy>  (320) 
-12.2723

>  <r_i_glide_einternal>  (320) 
0

>  <r_i_glide_intrahb_reward>  (320) 
-0

>  <i_i_glide_confnum>  (320) 
1

>  <i_i_glide_posenum>  (320) 
1

>  <r_i_glide_eff_state_penalty>  (320) 
0

>  <ligand_id>  (320) 
87

>  <original_smiles>  (320) 
CN1CCC23c4c5ccc(O)c4OC2C(=O)CCC3C1C5

>  <smiles>  (320) 
[H]c1c([H])c2c3c(c1[O-])OC1([H])C(=O)C([H])([H])C([H])([H])C4([H])C31C([H])([H])C([H])([H])[N+]([H])(C([H])([H])[H])C4([H])C2([H])[H]

$$$$
89:0:0
     RDKit          3D

 17 18  0  0  1  0  0  0  0  0999 V2000
    7.1894   -4.5673    0.8611 C   0  0  0  0  0  0  0  0  0  0  0  0
    6.6750   -3.7003   -0.1798 N   0  0  0  0  0  0  0  0  0  0  0  0
    7.3858   -2.9855   -1.0661 C   0  0  0  0  0  0  0  0  0  0  0  0
    6.6554   -2.2604   -1.9121 N   0  0  0  0  0  0  0  0  0  0  0  0
    5.3475   -2.5613   -1.5446 C   0  0  0  0  0  0  0  0  0  0  0  0
    4.0428   -2.1135   -2.0861 C   0  0  0  0  0  0  0  0  0  0  0  0
    3.8374   -1.0682   -3.3694 S   0  0  0  0  0  0  0  0  0  0  0  0
    2.9964   -2.6600   -1.4104 N   0  0  0  0  0  0  0  0  0  0  0  0
    3.1279   -3.5517   -0.3184 C   0  0  0  0  0  0  0  0  0  0  0  0
    4.2599   -3.9696    0.1806 N   0  0  0  0  0  0  0  0  0  0  0  0
    5.3417   -3.4325   -0.4844 C   0  0  0  0  0  0  0  0  0  0  0  0
    8.2809   -4.5669    0.8457 H   0  0  0  0  0  0  0  0  0  0  0  0
    6.8312   -5.5858    0.7039 H   0  0  0  0  0  0  0  0  0  0  0  0
    6.8474   -4.2156    1.8352 H   0  0  0  0  0  0  0  0  0  0  0  0
    8.4662   -2.9846   -1.0882 H   0  0  0  0  0  0  0  0  0  0  0  0
    2.1664   -3.8617    0.0808 H   0  0  0  0  0  0  0  0  0  0  0  0
    2.0639   -2.3535   -1.6732 H   0  0  0  0  0  0  0  0  0  0  0  0
  1  2  1  0
  1 12  1  0
  1 13  1  0
  1 14  1  0
  2 11  1  0
  2  3  1  0
  3  4  2  0
  3 15  1  0
  4  5  1  0
  5 11  2  0
  5  6  1  0
  6  7  2  0
  6  8  1  0
  8  9  1  0
  8 17  1  0
  9 10  2  0
  9 16  1  0
 10 11  1  0
M  END
>  <i_m_ct_stereo_status>  (321) 
1

>  <s_m_source_file>  (321) 
/var/tmp/pbs.5076255.sched01/tmprva83imr/861x3d95ot.sdf

>  <i_m_source_file_index>  (321) 
41

>  <i_lp_mmshare_version>  (321) 
48012

>  <i_f3d_flags>  (321) 
0

>  <s_epik_input>  (321) 
bjFbY0hdbihbQ0gzXSljKGMxMiluW2NIXW5jMltTSF0=

>  <s_epik_cmdline>  (321) 
J2VwaWtfcHl0aG9uJywgJy1waHQnLCAnMi4wJywgJy1waCcsICc3LjAnLCAnLXRuJywgJzgnLCAnLW1hJywgJzIwMCcsICctaW1hZScsICc8aW5maWxlLm1hZT4nLCAnLW9tYWUnLCAnPG91dGZpbGUubWFlPic=

>  <r_epik_Ionization_Penalty>  (321) 
0.116265

>  <r_epik_Ionization_Penalty_Charging>  (321) 
0.116265

>  <r_epik_Ionization_Penalty_Neutral>  (321) 
5.79413e-09

>  <r_epik_State_Penalty>  (321) 
0.105885

>  <r_epik_Charging_Adjusted_Penalty>  (321) 
0.222149

>  <i_epik_Tot_Q>  (321) 
0

>  <i_epik_Tot_abs_Q>  (321) 
0

>  <s_lp_Force_Field>  (321) 
OPLS3e

>  <r_lp_Energy>  (321) 
27.2485

>  <b_lp_Chiralities_Consistent>  (321) 
1

>  <s_lp_Variant>  (321) 
89:0-1

>  <s_i_glide_gridfile>  (321) 
pfpi4k_grid

>  <i_i_glide_lignum>  (321) 
41

>  <i_i_glide_rotatable_bonds>  (321) 
0

>  <r_i_docking_score>  (321) 
-4.93023

>  <r_i_glide_ligand_efficiency>  (321) 
-0.448202

>  <r_i_glide_ligand_efficiency_sa>  (321) 
-0.996793

>  <r_i_glide_ligand_efficiency_ln>  (321) 
-1.45096

>  <r_i_glide_gscore>  (321) 
-4.93023

>  <r_i_glide_lipo>  (321) 
-0.12718

>  <r_i_glide_hbond>  (321) 
-0.257678

>  <r_i_glide_metal>  (321) 
-0

>  <r_i_glide_rewards>  (321) 
-2.70211

>  <r_i_glide_evdw>  (321) 
-20.8293

>  <r_i_glide_ecoul>  (321) 
-5.03178

>  <r_i_glide_erotb>  (321) 
0

>  <r_i_glide_esite>  (321) 
-0.0470295

>  <r_i_glide_emodel>  (321) 
-34.5908

>  <r_i_glide_energy>  (321) 
-25.8611

>  <r_i_glide_einternal>  (321) 
0

>  <r_i_glide_intrahb_reward>  (321) 
-0

>  <i_i_glide_confnum>  (321) 
1

>  <i_i_glide_posenum>  (321) 
2

>  <r_i_glide_eff_state_penalty>  (321) 
0

>  <ligand_id>  (321) 
89

>  <original_smiles>  (321) 
Cn1cnc2c(S)ncnc21

>  <smiles>  (321) 
[H]c1nc2c(nc([H])n2C([H])([H])[H])c(=S)n1[H]

$$$$
89:0:1
     RDKit          3D

 17 18  0  0  1  0  0  0  0  0999 V2000
    5.3512   -3.6433    1.5384 C   0  0  0  0  0  0  0  0  0  0  0  0
    5.2507   -2.8843    0.3067 N   0  0  0  0  0  0  0  0  0  0  0  0
    6.1494   -2.0266   -0.1940 C   0  0  0  0  0  0  0  0  0  0  0  0
    5.8102   -1.4726   -1.3588 N   0  0  0  0  0  0  0  0  0  0  0  0
    4.5535   -2.0226   -1.6133 C   0  0  0  0  0  0  0  0  0  0  0  0
    3.5978   -1.8399   -2.7397 C   0  0  0  0  0  0  0  0  0  0  0  0
    3.8141   -0.7904   -4.0058 S   0  0  0  0  0  0  0  0  0  0  0  0
    2.5010   -2.6359   -2.6243 N   0  0  0  0  0  0  0  0  0  0  0  0
    2.2460   -3.4577   -1.5058 C   0  0  0  0  0  0  0  0  0  0  0  0
    3.0466   -3.6330   -0.4835 N   0  0  0  0  0  0  0  0  0  0  0  0
    4.2005   -2.8898   -0.6076 C   0  0  0  0  0  0  0  0  0  0  0  0
    6.2934   -3.4190    2.0383 H   0  0  0  0  0  0  0  0  0  0  0  0
    5.3098   -4.7088    1.3188 H   0  0  0  0  0  0  0  0  0  0  0  0
    4.5270   -3.3837    2.2000 H   0  0  0  0  0  0  0  0  0  0  0  0
    7.0845   -1.8008    0.3068 H   0  0  0  0  0  0  0  0  0  0  0  0
    1.2855   -3.9610   -1.5878 H   0  0  0  0  0  0  0  0  0  0  0  0
    1.7721   -2.5323   -3.3200 H   0  0  0  0  0  0  0  0  0  0  0  0
  1  2  1  0
  1 12  1  0
  1 13  1  0
  1 14  1  0
  2 11  1  0
  2  3  1  0
  3  4  2  0
  3 15  1  0
  4  5  1  0
  5 11  2  0
  5  6  1  0
  6  7  2  0
  6  8  1  0
  8  9  1  0
  8 17  1  0
  9 10  2  0
  9 16  1  0
 10 11  1  0
M  END
>  <i_m_ct_stereo_status>  (322) 
1

>  <s_m_source_file>  (322) 
/var/tmp/pbs.5076255.sched01/tmprva83imr/861x3d95ot.sdf

>  <i_m_source_file_index>  (322) 
41

>  <i_lp_mmshare_version>  (322) 
48012

>  <i_f3d_flags>  (322) 
0

>  <s_epik_input>  (322) 
bjFbY0hdbihbQ0gzXSljKGMxMiluW2NIXW5jMltTSF0=

>  <s_epik_cmdline>  (322) 
J2VwaWtfcHl0aG9uJywgJy1waHQnLCAnMi4wJywgJy1waCcsICc3LjAnLCAnLXRuJywgJzgnLCAnLW1hJywgJzIwMCcsICctaW1hZScsICc8aW5maWxlLm1hZT4nLCAnLW9tYWUnLCAnPG91dGZpbGUubWFlPic=

>  <r_epik_Ionization_Penalty>  (322) 
0.116265

>  <r_epik_Ionization_Penalty_Charging>  (322) 
0.116265

>  <r_epik_Ionization_Penalty_Neutral>  (322) 
5.79413e-09

>  <r_epik_State_Penalty>  (322) 
0.105885

>  <r_epik_Charging_Adjusted_Penalty>  (322) 
0.222149

>  <i_epik_Tot_Q>  (322) 
0

>  <i_epik_Tot_abs_Q>  (322) 
0

>  <s_lp_Force_Field>  (322) 
OPLS3e

>  <r_lp_Energy>  (322) 
27.2485

>  <b_lp_Chiralities_Consistent>  (322) 
1

>  <s_lp_Variant>  (322) 
89:0-1

>  <s_i_glide_gridfile>  (322) 
pfpi4k_grid

>  <i_i_glide_lignum>  (322) 
41

>  <i_i_glide_rotatable_bonds>  (322) 
0

>  <r_i_docking_score>  (322) 
-4.49326

>  <r_i_glide_ligand_efficiency>  (322) 
-0.408478

>  <r_i_glide_ligand_efficiency_sa>  (322) 
-0.908447

>  <r_i_glide_ligand_efficiency_ln>  (322) 
-1.32237

>  <r_i_glide_gscore>  (322) 
-4.49326

>  <r_i_glide_lipo>  (322) 
-0.0460034

>  <r_i_glide_hbond>  (322) 
-0.0718628

>  <r_i_glide_metal>  (322) 
-0

>  <r_i_glide_rewards>  (322) 
-2.68182

>  <r_i_glide_evdw>  (322) 
-20.1896

>  <r_i_glide_ecoul>  (322) 
-4.23878

>  <r_i_glide_erotb>  (322) 
0

>  <r_i_glide_esite>  (322) 
-0.0482792

>  <r_i_glide_emodel>  (322) 
-32.3762

>  <r_i_glide_energy>  (322) 
-24.4284

>  <r_i_glide_einternal>  (322) 
0

>  <r_i_glide_intrahb_reward>  (322) 
-0

>  <i_i_glide_confnum>  (322) 
1

>  <i_i_glide_posenum>  (322) 
19

>  <r_i_glide_eff_state_penalty>  (322) 
0

>  <ligand_id>  (322) 
89

>  <original_smiles>  (322) 
Cn1cnc2c(S)ncnc21

>  <smiles>  (322) 
[H]c1nc2c(nc([H])n2C([H])([H])[H])c(=S)n1[H]

$$$$
89:0:2
     RDKit          3D

 17 18  0  0  1  0  0  0  0  0999 V2000
    0.5817   -2.5326    4.4167 C   0  0  0  0  0  0  0  0  0  0  0  0
   -0.1922   -1.3103    4.4835 N   0  0  0  0  0  0  0  0  0  0  0  0
   -1.2091   -1.0365    5.3189 C   0  0  0  0  0  0  0  0  0  0  0  0
   -1.7546    0.1684    5.1747 N   0  0  0  0  0  0  0  0  0  0  0  0
   -1.0070    0.7183    4.1316 C   0  0  0  0  0  0  0  0  0  0  0  0
   -1.0849    2.0314    3.4545 C   0  0  0  0  0  0  0  0  0  0  0  0
   -2.1746    3.2279    3.8489 S   0  0  0  0  0  0  0  0  0  0  0  0
   -0.1508    2.1569    2.4685 N   0  0  0  0  0  0  0  0  0  0  0  0
    0.7839    1.1547    2.1184 C   0  0  0  0  0  0  0  0  0  0  0  0
    0.8817   -0.0115    2.6983 N   0  0  0  0  0  0  0  0  0  0  0  0
   -0.0505   -0.1682    3.7037 C   0  0  0  0  0  0  0  0  0  0  0  0
    0.2289   -3.2432    5.1649 H   0  0  0  0  0  0  0  0  0  0  0  0
    1.6331   -2.3126    4.6037 H   0  0  0  0  0  0  0  0  0  0  0  0
    0.4817   -2.9783    3.4269 H   0  0  0  0  0  0  0  0  0  0  0  0
   -1.5565   -1.7411    6.0578 H   0  0  0  0  0  0  0  0  0  0  0  0
    1.4377    1.4573    1.3004 H   0  0  0  0  0  0  0  0  0  0  0  0
   -0.1389    3.0300    1.9366 H   0  0  0  0  0  0  0  0  0  0  0  0
  1  2  1  0
  1 12  1  0
  1 13  1  0
  1 14  1  0
  2 11  1  0
  2  3  1  0
  3  4  2  0
  3 15  1  0
  4  5  1  0
  5 11  2  0
  5  6  1  0
  6  7  2  0
  6  8  1  0
  8  9  1  0
  8 17  1  0
  9 10  2  0
  9 16  1  0
 10 11  1  0
M  END
>  <i_m_ct_stereo_status>  (323) 
1

>  <s_m_source_file>  (323) 
/var/tmp/pbs.5076255.sched01/tmprva83imr/861x3d95ot.sdf

>  <i_m_source_file_index>  (323) 
41

>  <i_lp_mmshare_version>  (323) 
48012

>  <i_f3d_flags>  (323) 
0

>  <s_epik_input>  (323) 
bjFbY0hdbihbQ0gzXSljKGMxMiluW2NIXW5jMltTSF0=

>  <s_epik_cmdline>  (323) 
J2VwaWtfcHl0aG9uJywgJy1waHQnLCAnMi4wJywgJy1waCcsICc3LjAnLCAnLXRuJywgJzgnLCAnLW1hJywgJzIwMCcsICctaW1hZScsICc8aW5maWxlLm1hZT4nLCAnLW9tYWUnLCAnPG91dGZpbGUubWFlPic=

>  <r_epik_Ionization_Penalty>  (323) 
0.116265

>  <r_epik_Ionization_Penalty_Charging>  (323) 
0.116265

>  <r_epik_Ionization_Penalty_Neutral>  (323) 
5.79413e-09

>  <r_epik_State_Penalty>  (323) 
0.105885

>  <r_epik_Charging_Adjusted_Penalty>  (323) 
0.222149

>  <i_epik_Tot_Q>  (323) 
0

>  <i_epik_Tot_abs_Q>  (323) 
0

>  <s_lp_Force_Field>  (323) 
OPLS3e

>  <r_lp_Energy>  (323) 
27.2485

>  <b_lp_Chiralities_Consistent>  (323) 
1

>  <s_lp_Variant>  (323) 
89:0-1

>  <s_i_glide_gridfile>  (323) 
pfpi4k_grid

>  <i_i_glide_lignum>  (323) 
41

>  <i_i_glide_rotatable_bonds>  (323) 
0

>  <r_i_docking_score>  (323) 
-4.36629

>  <r_i_glide_ligand_efficiency>  (323) 
-0.396935

>  <r_i_glide_ligand_efficiency_sa>  (323) 
-0.882776

>  <r_i_glide_ligand_efficiency_ln>  (323) 
-1.285

>  <r_i_glide_gscore>  (323) 
-4.36629

>  <r_i_glide_lipo>  (323) 
-0.0413065

>  <r_i_glide_hbond>  (323) 
-0.16

>  <r_i_glide_metal>  (323) 
-0

>  <r_i_glide_rewards>  (323) 
-2.25

>  <r_i_glide_evdw>  (323) 
-18.3699

>  <r_i_glide_ecoul>  (323) 
-4.7583

>  <r_i_glide_erotb>  (323) 
0

>  <r_i_glide_esite>  (323) 
-0.28274

>  <r_i_glide_emodel>  (323) 
-30.8643

>  <r_i_glide_energy>  (323) 
-23.1282

>  <r_i_glide_einternal>  (323) 
0

>  <r_i_glide_intrahb_reward>  (323) 
-0

>  <i_i_glide_confnum>  (323) 
1

>  <i_i_glide_posenum>  (323) 
1

>  <r_i_glide_eff_state_penalty>  (323) 
0

>  <ligand_id>  (323) 
89

>  <original_smiles>  (323) 
Cn1cnc2c(S)ncnc21

>  <smiles>  (323) 
[H]c1nc2c(nc([H])n2C([H])([H])[H])c(=S)n1[H]

$$$$
89:1:0
     RDKit          3D

 16 17  0  0  1  0  0  0  0  0999 V2000
   -1.9206    4.4975    3.1254 C   0  0  0  0  0  0  0  0  0  0  0  0
   -1.6331    3.1329    3.5111 N   0  0  0  0  0  0  0  0  0  0  0  0
   -1.0710    2.1705    2.7521 C   0  0  0  0  0  0  0  0  0  0  0  0
   -0.8900    0.9782    3.3066 N   0  0  0  0  0  0  0  0  0  0  0  0
   -1.3851    1.1885    4.5814 C   0  0  0  0  0  0  0  0  0  0  0  0
   -1.5098    0.3535    5.7194 C   0  0  0  0  0  0  0  0  0  0  0  0
   -0.9925   -1.3106    5.6789 S   0  0  0  0  0  0  0  0  0  0  0  0
   -2.0467    0.8834    6.8463 N   0  0  0  0  0  0  0  0  0  0  0  0
   -2.4334    2.1714    6.8571 C   0  0  0  0  0  0  0  0  0  0  0  0
   -2.3933    3.0738    5.8696 N   0  0  0  0  0  0  0  0  0  0  0  0
   -1.8523    2.5290    4.7404 C   0  0  0  0  0  0  0  0  0  0  0  0
   -1.6534    4.6713    2.0882 H   0  0  0  0  0  0  0  0  0  0  0  0
   -1.3540    5.1747    3.7593 H   0  0  0  0  0  0  0  0  0  0  0  0
   -2.9850    4.6764    3.2226 H   0  0  0  0  0  0  0  0  0  0  0  0
   -0.7714    2.3508    1.7321 H   0  0  0  0  0  0  0  0  0  0  0  0
   -2.8633    2.5174    7.7867 H   0  0  0  0  0  0  0  0  0  0  0  0
  1  2  1  0
  1 12  1  0
  1 13  1  0
  1 14  1  0
  2 11  1  0
  2  3  1  0
  3  4  2  0
  3 15  1  0
  4  5  1  0
  5 11  2  0
  5  6  1  0
  6  7  1  0
  6  8  2  0
  8  9  1  0
  9 10  2  0
  9 16  1  0
 10 11  1  0
M  CHG  1   7  -1
M  END
>  <i_m_ct_stereo_status>  (324) 
1

>  <s_m_source_file>  (324) 
/var/tmp/pbs.5076255.sched01/tmprva83imr/861x3d95ot.sdf

>  <i_m_source_file_index>  (324) 
42

>  <i_lp_mmshare_version>  (324) 
48012

>  <i_f3d_flags>  (324) 
0

>  <s_epik_input>  (324) 
bjFbY0hdbihbQ0gzXSljKGMxMiluW2NIXW5jMltTSF0=

>  <s_epik_cmdline>  (324) 
J2VwaWtfcHl0aG9uJywgJy1waHQnLCAnMi4wJywgJy1waCcsICc3LjAnLCAnLXRuJywgJzgnLCAnLW1hJywgJzIwMCcsICctaW1hZScsICc8aW5maWxlLm1hZT4nLCAnLW9tYWUnLCAnPG91dGZpbGUubWFlPic=

>  <r_epik_Ionization_Penalty>  (324) 
1.0221

>  <r_epik_Ionization_Penalty_Charging>  (324) 
1.79078e-05

>  <r_epik_Ionization_Penalty_Neutral>  (324) 
1.02208

>  <r_epik_State_Penalty>  (324) 
1.0724

>  <r_epik_Charging_Adjusted_Penalty>  (324) 
1.07242

>  <i_epik_Tot_Q>  (324) 
-1

>  <i_epik_Tot_abs_Q>  (324) 
1

>  <s_lp_Force_Field>  (324) 
OPLS3e

>  <r_lp_Energy>  (324) 
18.4591

>  <b_lp_Chiralities_Consistent>  (324) 
1

>  <s_lp_Variant>  (324) 
89:0-2

>  <s_i_glide_gridfile>  (324) 
pfpi4k_grid

>  <i_i_glide_lignum>  (324) 
42

>  <i_i_glide_rotatable_bonds>  (324) 
0

>  <r_i_docking_score>  (324) 
-3.57537

>  <r_i_glide_ligand_efficiency>  (324) 
-0.325034

>  <r_i_glide_ligand_efficiency_sa>  (324) 
-0.722868

>  <r_i_glide_ligand_efficiency_ln>  (324) 
-1.05223

>  <r_i_glide_gscore>  (324) 
-3.57537

>  <r_i_glide_lipo>  (324) 
0

>  <r_i_glide_hbond>  (324) 
-0.2

>  <r_i_glide_metal>  (324) 
-0

>  <r_i_glide_rewards>  (324) 
-2.28427

>  <r_i_glide_evdw>  (324) 
-12.8488

>  <r_i_glide_ecoul>  (324) 
-2.11505

>  <r_i_glide_erotb>  (324) 
0

>  <r_i_glide_esite>  (324) 
-0.131396

>  <r_i_glide_emodel>  (324) 
-22.5625

>  <r_i_glide_energy>  (324) 
-14.9639

>  <r_i_glide_einternal>  (324) 
0

>  <r_i_glide_intrahb_reward>  (324) 
-0

>  <i_i_glide_confnum>  (324) 
1

>  <i_i_glide_posenum>  (324) 
8

>  <r_i_glide_eff_state_penalty>  (324) 
0

>  <ligand_id>  (324) 
89

>  <original_smiles>  (324) 
Cn1cnc2c(S)ncnc21

>  <smiles>  (324) 
[H]c1nc([S-])c2nc([H])n(C([H])([H])[H])c2n1

$$$$
89:1:1
     RDKit          3D

 16 17  0  0  1  0  0  0  0  0999 V2000
   -0.2695    0.9539    2.9642 C   0  0  0  0  0  0  0  0  0  0  0  0
   -0.6027   -0.0266    3.9797 N   0  0  0  0  0  0  0  0  0  0  0  0
   -1.6408    0.0077    4.8366 C   0  0  0  0  0  0  0  0  0  0  0  0
   -1.7842   -1.0120    5.6804 N   0  0  0  0  0  0  0  0  0  0  0  0
   -0.6903   -1.8023    5.3446 C   0  0  0  0  0  0  0  0  0  0  0  0
   -0.1950   -3.0420    5.8298 C   0  0  0  0  0  0  0  0  0  0  0  0
   -0.9479   -3.9189    7.1274 S   0  0  0  0  0  0  0  0  0  0  0  0
    0.9102   -3.5580    5.2477 N   0  0  0  0  0  0  0  0  0  0  0  0
    1.5121   -2.8958    4.2523 C   0  0  0  0  0  0  0  0  0  0  0  0
    1.1779   -1.7286    3.6958 N   0  0  0  0  0  0  0  0  0  0  0  0
    0.0594   -1.2116    4.2818 C   0  0  0  0  0  0  0  0  0  0  0  0
   -0.9919    1.7687    2.9802 H   0  0  0  0  0  0  0  0  0  0  0  0
   -0.2862    0.4896    1.9781 H   0  0  0  0  0  0  0  0  0  0  0  0
    0.7246    1.3566    3.1549 H   0  0  0  0  0  0  0  0  0  0  0  0
   -2.3398    0.8290    4.8228 H   0  0  0  0  0  0  0  0  0  0  0  0
    2.3930   -3.3709    3.8488 H   0  0  0  0  0  0  0  0  0  0  0  0
  1  2  1  0
  1 12  1  0
  1 13  1  0
  1 14  1  0
  2 11  1  0
  2  3  1  0
  3  4  2  0
  3 15  1  0
  4  5  1  0
  5 11  2  0
  5  6  1  0
  6  7  1  0
  6  8  2  0
  8  9  1  0
  9 10  2  0
  9 16  1  0
 10 11  1  0
M  CHG  1   7  -1
M  END
>  <i_m_ct_stereo_status>  (325) 
1

>  <s_m_source_file>  (325) 
/var/tmp/pbs.5076255.sched01/tmprva83imr/861x3d95ot.sdf

>  <i_m_source_file_index>  (325) 
42

>  <i_lp_mmshare_version>  (325) 
48012

>  <i_f3d_flags>  (325) 
0

>  <s_epik_input>  (325) 
bjFbY0hdbihbQ0gzXSljKGMxMiluW2NIXW5jMltTSF0=

>  <s_epik_cmdline>  (325) 
J2VwaWtfcHl0aG9uJywgJy1waHQnLCAnMi4wJywgJy1waCcsICc3LjAnLCAnLXRuJywgJzgnLCAnLW1hJywgJzIwMCcsICctaW1hZScsICc8aW5maWxlLm1hZT4nLCAnLW9tYWUnLCAnPG91dGZpbGUubWFlPic=

>  <r_epik_Ionization_Penalty>  (325) 
1.0221

>  <r_epik_Ionization_Penalty_Charging>  (325) 
1.79078e-05

>  <r_epik_Ionization_Penalty_Neutral>  (325) 
1.02208

>  <r_epik_State_Penalty>  (325) 
1.0724

>  <r_epik_Charging_Adjusted_Penalty>  (325) 
1.07242

>  <i_epik_Tot_Q>  (325) 
-1

>  <i_epik_Tot_abs_Q>  (325) 
1

>  <s_lp_Force_Field>  (325) 
OPLS3e

>  <r_lp_Energy>  (325) 
18.4591

>  <b_lp_Chiralities_Consistent>  (325) 
1

>  <s_lp_Variant>  (325) 
89:0-2

>  <s_i_glide_gridfile>  (325) 
pfpi4k_grid

>  <i_i_glide_lignum>  (325) 
42

>  <i_i_glide_rotatable_bonds>  (325) 
0

>  <r_i_docking_score>  (325) 
-3.49022

>  <r_i_glide_ligand_efficiency>  (325) 
-0.317293

>  <r_i_glide_ligand_efficiency_sa>  (325) 
-0.705653

>  <r_i_glide_ligand_efficiency_ln>  (325) 
-1.02717

>  <r_i_glide_gscore>  (325) 
-3.49022

>  <r_i_glide_lipo>  (325) 
0

>  <r_i_glide_hbond>  (325) 
-0.0272708

>  <r_i_glide_metal>  (325) 
-0

>  <r_i_glide_rewards>  (325) 
-2.26677

>  <r_i_glide_evdw>  (325) 
-10.8051

>  <r_i_glide_ecoul>  (325) 
-3.83818

>  <r_i_glide_erotb>  (325) 
0

>  <r_i_glide_esite>  (325) 
-0.0801923

>  <r_i_glide_emodel>  (325) 
-22.0628

>  <r_i_glide_energy>  (325) 
-14.6433

>  <r_i_glide_einternal>  (325) 
0

>  <r_i_glide_intrahb_reward>  (325) 
-0

>  <i_i_glide_confnum>  (325) 
1

>  <i_i_glide_posenum>  (325) 
19

>  <r_i_glide_eff_state_penalty>  (325) 
0

>  <ligand_id>  (325) 
89

>  <original_smiles>  (325) 
Cn1cnc2c(S)ncnc21

>  <smiles>  (325) 
[H]c1nc([S-])c2nc([H])n(C([H])([H])[H])c2n1

$$$$
89:1:2
     RDKit          3D

 16 17  0  0  1  0  0  0  0  0999 V2000
   -0.6390    1.9906    2.5732 C   0  0  0  0  0  0  0  0  0  0  0  0
   -0.7921    0.9410    3.5613 N   0  0  0  0  0  0  0  0  0  0  0  0
   -1.7145    0.8724    4.5417 C   0  0  0  0  0  0  0  0  0  0  0  0
   -1.6942   -0.1921    5.3448 N   0  0  0  0  0  0  0  0  0  0  0  0
   -0.6166   -0.9001    4.8232 C   0  0  0  0  0  0  0  0  0  0  0  0
   -0.0050   -2.1336    5.1628 C   0  0  0  0  0  0  0  0  0  0  0  0
   -0.5612   -3.1181    6.4778 S   0  0  0  0  0  0  0  0  0  0  0  0
    1.0474   -2.5560    4.4274 N   0  0  0  0  0  0  0  0  0  0  0  0
    1.4893   -1.8060    3.4096 C   0  0  0  0  0  0  0  0  0  0  0  0
    1.0287   -0.6317    2.9682 N   0  0  0  0  0  0  0  0  0  0  0  0
   -0.0353   -0.2124    3.7120 C   0  0  0  0  0  0  0  0  0  0  0  0
   -1.3938    2.7612    2.7229 H   0  0  0  0  0  0  0  0  0  0  0  0
   -0.7506    1.5747    1.5720 H   0  0  0  0  0  0  0  0  0  0  0  0
    0.3487    2.4417    2.6642 H   0  0  0  0  0  0  0  0  0  0  0  0
   -2.4528    1.6478    4.6622 H   0  0  0  0  0  0  0  0  0  0  0  0
    2.3351   -2.2078    2.8750 H   0  0  0  0  0  0  0  0  0  0  0  0
  1  2  1  0
  1 12  1  0
  1 13  1  0
  1 14  1  0
  2 11  1  0
  2  3  1  0
  3  4  2  0
  3 15  1  0
  4  5  1  0
  5 11  2  0
  5  6  1  0
  6  7  1  0
  6  8  2  0
  8  9  1  0
  9 10  2  0
  9 16  1  0
 10 11  1  0
M  CHG  1   7  -1
M  END
>  <i_m_ct_stereo_status>  (326) 
1

>  <s_m_source_file>  (326) 
/var/tmp/pbs.5076255.sched01/tmprva83imr/861x3d95ot.sdf

>  <i_m_source_file_index>  (326) 
42

>  <i_lp_mmshare_version>  (326) 
48012

>  <i_f3d_flags>  (326) 
0

>  <s_epik_input>  (326) 
bjFbY0hdbihbQ0gzXSljKGMxMiluW2NIXW5jMltTSF0=

>  <s_epik_cmdline>  (326) 
J2VwaWtfcHl0aG9uJywgJy1waHQnLCAnMi4wJywgJy1waCcsICc3LjAnLCAnLXRuJywgJzgnLCAnLW1hJywgJzIwMCcsICctaW1hZScsICc8aW5maWxlLm1hZT4nLCAnLW9tYWUnLCAnPG91dGZpbGUubWFlPic=

>  <r_epik_Ionization_Penalty>  (326) 
1.0221

>  <r_epik_Ionization_Penalty_Charging>  (326) 
1.79078e-05

>  <r_epik_Ionization_Penalty_Neutral>  (326) 
1.02208

>  <r_epik_State_Penalty>  (326) 
1.0724

>  <r_epik_Charging_Adjusted_Penalty>  (326) 
1.07242

>  <i_epik_Tot_Q>  (326) 
-1

>  <i_epik_Tot_abs_Q>  (326) 
1

>  <s_lp_Force_Field>  (326) 
OPLS3e

>  <r_lp_Energy>  (326) 
18.4591

>  <b_lp_Chiralities_Consistent>  (326) 
1

>  <s_lp_Variant>  (326) 
89:0-2

>  <s_i_glide_gridfile>  (326) 
pfpi4k_grid

>  <i_i_glide_lignum>  (326) 
42

>  <i_i_glide_rotatable_bonds>  (326) 
0

>  <r_i_docking_score>  (326) 
-3.33981

>  <r_i_glide_ligand_efficiency>  (326) 
-0.303619

>  <r_i_glide_ligand_efficiency_sa>  (326) 
-0.675243

>  <r_i_glide_ligand_efficiency_ln>  (326) 
-0.982906

>  <r_i_glide_gscore>  (326) 
-3.33981

>  <r_i_glide_lipo>  (326) 
0

>  <r_i_glide_hbond>  (326) 
0

>  <r_i_glide_metal>  (326) 
-0

>  <r_i_glide_rewards>  (326) 
-2.26458

>  <r_i_glide_evdw>  (326) 
-11.6821

>  <r_i_glide_ecoul>  (326) 
-2.71977

>  <r_i_glide_erotb>  (326) 
0

>  <r_i_glide_esite>  (326) 
-0.0831637

>  <r_i_glide_emodel>  (326) 
-21.5017

>  <r_i_glide_energy>  (326) 
-14.4018

>  <r_i_glide_einternal>  (326) 
0

>  <r_i_glide_intrahb_reward>  (326) 
-0

>  <i_i_glide_confnum>  (326) 
2

>  <i_i_glide_posenum>  (326) 
39

>  <r_i_glide_eff_state_penalty>  (326) 
0

>  <ligand_id>  (326) 
89

>  <original_smiles>  (326) 
Cn1cnc2c(S)ncnc21

>  <smiles>  (326) 
[H]c1nc([S-])c2nc([H])n(C([H])([H])[H])c2n1

$$$$
90:0:0
     RDKit          3D

 50 55  0  0  1  0  0  0  0  0999 V2000
    6.7227   -0.9227    0.6628 C   0  0  0  0  0  0  0  0  0  0  0  0
    5.6773   -1.4021    1.5957 N   0  0  2  0  0  0  0  0  0  0  0  0
    5.8195   -2.8390    1.9252 C   0  0  0  0  0  0  0  0  0  0  0  0
    5.2069   -3.7277    0.8402 C   0  0  0  0  0  0  0  0  0  0  0  0
    3.7465   -3.3194    0.4989 C   0  0  2  0  0  0  0  0  0  0  0  0
    2.9039   -3.4441    1.7310 C   0  0  0  0  0  0  0  0  0  0  0  0
    2.7505   -2.4737    2.7454 C   0  0  0  0  0  0  0  0  0  0  0  0
    1.9544   -2.8458    3.8407 C   0  0  0  0  0  0  0  0  0  0  0  0
    1.3523   -4.1292    3.8713 C   0  0  0  0  0  0  0  0  0  0  0  0
    1.4932   -5.0297    2.7871 C   0  0  0  0  0  0  0  0  0  0  0  0
    0.8286   -6.2194    2.7929 O   0  0  0  0  0  0  0  0  0  0  0  0
    2.2769   -4.6697    1.6701 C   0  0  0  0  0  0  0  0  0  0  0  0
    2.4481   -5.3179    0.4773 O   0  0  0  0  0  0  0  0  0  0  0  0
    3.0983   -4.3908   -0.4282 C   0  0  1  0  0  0  0  0  0  0  0  0
    2.0602   -3.8143   -1.4218 C   0  0  0  0  0  0  0  0  0  0  0  0
    2.5935   -3.1498   -2.7217 C   0  0  1  0  0  0  0  0  0  0  0  0
    1.5234   -2.7759   -3.4064 F   0  0  0  0  0  0  0  0  0  0  0  0
    3.5585   -1.9564   -2.6161 C   0  0  2  0  0  0  0  0  0  0  0  0
    3.4179   -1.0068   -3.8275 C   0  0  0  0  0  0  0  0  0  0  0  0
    3.9736    0.2772   -3.6513 O   0  0  0  0  0  0  0  0  0  0  0  0
    4.9719   -2.3610   -2.2476 C   0  0  0  0  0  0  0  0  0  0  0  0
    4.2038   -1.4676   -1.3149 C   0  0  2  0  0  0  0  0  0  0  0  0
    3.6913   -1.8418    0.0665 C   0  0  2  0  0  0  0  0  0  0  0  0
    4.2875   -1.0009    1.2206 C   0  0  1  0  0  0  0  0  0  0  0  0
    3.3595   -1.0965    2.4505 C   0  0  0  0  0  0  0  0  0  0  0  0
    6.6967   -1.4637   -0.2809 H   0  0  0  0  0  0  0  0  0  0  0  0
    7.7123   -1.0652    1.1010 H   0  0  0  0  0  0  0  0  0  0  0  0
    6.5926    0.1427    0.4653 H   0  0  0  0  0  0  0  0  0  0  0  0
    6.8711   -3.0930    2.0441 H   0  0  0  0  0  0  0  0  0  0  0  0
    5.3576   -3.0469    2.8903 H   0  0  0  0  0  0  0  0  0  0  0  0
    5.8487   -3.6848   -0.0434 H   0  0  0  0  0  0  0  0  0  0  0  0
    5.2453   -4.7674    1.1706 H   0  0  0  0  0  0  0  0  0  0  0  0
    1.7891   -2.1408    4.6465 H   0  0  0  0  0  0  0  0  0  0  0  0
    0.7430   -4.4015    4.7136 H   0  0  0  0  0  0  0  0  0  0  0  0
    1.1898   -6.8399    2.1766 H   0  0  0  0  0  0  0  0  0  0  0  0
    3.8720   -4.9358   -0.9723 H   0  0  0  0  0  0  0  0  0  0  0  0
    1.4151   -4.6359   -1.7311 H   0  0  0  0  0  0  0  0  0  0  0  0
    1.3971   -3.1351   -0.9008 H   0  0  0  0  0  0  0  0  0  0  0  0
    3.0546   -3.8935   -3.3682 H   0  0  0  0  0  0  0  0  0  0  0  0
    3.8908   -1.4613   -4.6949 H   0  0  0  0  0  0  0  0  0  0  0  0
    2.3768   -0.8202   -4.0890 H   0  0  0  0  0  0  0  0  0  0  0  0
    3.3684    0.8060   -3.1413 H   0  0  0  0  0  0  0  0  0  0  0  0
    5.1318   -3.4138   -2.0271 H   0  0  0  0  0  0  0  0  0  0  0  0
    5.7830   -1.8936   -2.7869 H   0  0  0  0  0  0  0  0  0  0  0  0
    4.5100   -0.4289   -1.3240 H   0  0  0  0  0  0  0  0  0  0  0  0
    2.6432   -1.5501    0.0248 H   0  0  0  0  0  0  0  0  0  0  0  0
    4.3190    0.0499    0.9334 H   0  0  0  0  0  0  0  0  0  0  0  0
    2.5203   -0.4243    2.2807 H   0  0  0  0  0  0  0  0  0  0  0  0
    3.8652   -0.7320    3.3435 H   0  0  0  0  0  0  0  0  0  0  0  0
    5.8667   -0.9122    2.4553 H   0  0  0  0  0  0  0  0  0  0  0  0
  1  2  1  0
  1 26  1  0
  1 27  1  0
  1 28  1  0
  2 24  1  0
  2  3  1  0
  2 50  1  1
  3  4  1  0
  3 29  1  0
  3 30  1  0
  5  4  1  1
  4 31  1  0
  4 32  1  0
  5 14  1  0
  5 23  1  0
  5  6  1  0
  6 12  2  0
  6  7  1  0
  7 25  1  0
  7  8  2  0
  8  9  1  0
  8 33  1  0
  9 10  2  0
  9 34  1  0
 10 11  1  0
 10 12  1  0
 11 35  1  0
 12 13  1  0
 13 14  1  0
 14 15  1  0
 14 36  1  6
 15 16  1  0
 15 37  1  0
 15 38  1  0
 16 17  1  0
 16 18  1  0
 16 39  1  6
 18 22  1  0
 18 19  1  6
 18 21  1  0
 19 20  1  0
 19 40  1  0
 19 41  1  0
 20 42  1  0
 21 22  1  0
 21 43  1  0
 21 44  1  0
 22 23  1  0
 22 45  1  6
 23 24  1  0
 23 46  1  6
 24 25  1  0
 24 47  1  6
 25 48  1  0
 25 49  1  0
M  CHG  1   2   1
M  END
>  <i_m_ct_stereo_status>  (327) 
1

>  <s_m_source_file>  (327) 
/var/tmp/pbs.5076255.sched01/tmprva83imr/861x3d95ot.sdf

>  <i_m_source_file_index>  (327) 
43

>  <i_lp_mmshare_version>  (327) 
48012

>  <i_f3d_flags>  (327) 
0

>  <s_epik_input>  (327) 
W0NIMl0xW0NIMl1OKFtDSDNdKVtDQEhdKFtDSDJdMilbQ0BIXTNbQ0BASF0oW0NIMl00KVtDQF00KFtDSDJdW09IXSlbQ0BIXShGKVtDSDJdW0NAQEhdNU9jNmMoW09IXSlbY0hdW2NIXWMyYzZbQ0BdMTM1

>  <s_epik_cmdline>  (327) 
J2VwaWtfcHl0aG9uJywgJy1waHQnLCAnMi4wJywgJy1waCcsICc3LjAnLCAnLXRuJywgJzgnLCAnLW1hJywgJzIwMCcsICctaW1hZScsICc8aW5maWxlLm1hZT4nLCAnLW9tYWUnLCAnPG91dGZpbGUubWFlPic=

>  <r_lp_tautomer_probability>  (327) 
1

>  <r_epik_Ionization_Penalty>  (327) 
0.0306983

>  <r_epik_Ionization_Penalty_Charging>  (327) 
0.0204168

>  <r_epik_Ionization_Penalty_Neutral>  (327) 
0.0102814

>  <r_epik_State_Penalty>  (327) 
0.0240046

>  <r_epik_Charging_Adjusted_Penalty>  (327) 
0.0444215

>  <i_epik_Tot_Q>  (327) 
1

>  <i_epik_Tot_abs_Q>  (327) 
1

>  <s_lp_Force_Field>  (327) 
OPLS3e

>  <r_lp_Energy>  (327) 
65.7008

>  <b_lp_Chiralities_Consistent>  (327) 
1

>  <s_lp_Variant>  (327) 
90:0-1

>  <s_i_glide_gridfile>  (327) 
pfpi4k_grid

>  <i_i_glide_lignum>  (327) 
43

>  <i_i_glide_rotatable_bonds>  (327) 
3

>  <r_i_docking_score>  (327) 
-3.51638

>  <r_i_glide_ligand_efficiency>  (327) 
-0.140655

>  <r_i_glide_ligand_efficiency_sa>  (327) 
-0.411278

>  <r_i_glide_ligand_efficiency_ln>  (327) 
-0.833487

>  <r_i_glide_gscore>  (327) 
-3.51638

>  <r_i_glide_lipo>  (327) 
-0.465779

>  <r_i_glide_hbond>  (327) 
-0.306308

>  <r_i_glide_metal>  (327) 
-0

>  <r_i_glide_rewards>  (327) 
-1.16344

>  <r_i_glide_evdw>  (327) 
-17.3637

>  <r_i_glide_ecoul>  (327) 
-5.80731

>  <r_i_glide_erotb>  (327) 
0.158427

>  <r_i_glide_esite>  (327) 
0

>  <r_i_glide_emodel>  (327) 
-24.9265

>  <r_i_glide_energy>  (327) 
-23.171

>  <r_i_glide_einternal>  (327) 
5.66591

>  <r_i_glide_intrahb_reward>  (327) 
-0

>  <i_i_glide_confnum>  (327) 
4

>  <i_i_glide_posenum>  (327) 
34

>  <r_i_glide_eff_state_penalty>  (327) 
0

>  <ligand_id>  (327) 
90

>  <original_smiles>  (327) 
CN1CCC23c4c5ccc(O)c4OC2CC(F)C2(CO)CC2C3C1C5

>  <smiles>  (327) 
[H]Oc1c([H])c([H])c2c3c1OC1([H])C([H])([H])C([H])(F)C4(C([H])([H])O[H])C([H])([H])C4([H])C4([H])C31C([H])([H])C([H])([H])[N+]([H])(C([H])([H])[H])C4([H])C2([H])[H]

$$$$
90:0:1
     RDKit          3D

 50 55  0  0  1  0  0  0  0  0999 V2000
    7.3404   -1.3915    0.4454 C   0  0  0  0  0  0  0  0  0  0  0  0
    6.2463   -1.6700    1.3890 N   0  0  2  0  0  0  0  0  0  0  0  0
    6.2039   -3.0836    1.8113 C   0  0  0  0  0  0  0  0  0  0  0  0
    5.4640   -3.9464    0.8022 C   0  0  0  0  0  0  0  0  0  0  0  0
    4.0651   -3.3679    0.4569 C   0  0  2  0  0  0  0  0  0  0  0  0
    3.2386   -3.3123    1.6999 C   0  0  0  0  0  0  0  0  0  0  0  0
    3.2417   -2.2701    2.6590 C   0  0  0  0  0  0  0  0  0  0  0  0
    2.4251   -2.4707    3.7857 C   0  0  0  0  0  0  0  0  0  0  0  0
    1.6717   -3.6669    3.9088 C   0  0  0  0  0  0  0  0  0  0  0  0
    1.6788   -4.6476    2.8710 C   0  0  0  0  0  0  0  0  0  0  0  0
    0.8780   -5.7491    2.9768 O   0  0  0  0  0  0  0  0  0  0  0  0
    2.4660   -4.4555    1.7202 C   0  0  0  0  0  0  0  0  0  0  0  0
    2.5393   -5.1981    0.5648 O   0  0  0  0  0  0  0  0  0  0  0  0
    3.2810   -4.4106   -0.3943 C   0  0  1  0  0  0  0  0  0  0  0  0
    2.2928   -3.7962   -1.4107 C   0  0  0  0  0  0  0  0  0  0  0  0
    2.8766   -3.2864   -2.7585 C   0  0  1  0  0  0  0  0  0  0  0  0
    1.8468   -2.8025   -3.4406 F   0  0  0  0  0  0  0  0  0  0  0  0
    3.9985   -2.2372   -2.7375 C   0  0  2  0  0  0  0  0  0  0  0  0
    3.9527   -1.3380   -3.9765 C   0  0  0  0  0  0  0  0  0  0  0  0
    3.0344   -0.2661   -3.8936 O   0  0  0  0  0  0  0  0  0  0  0  0
    5.3592   -2.7890   -2.3755 C   0  0  0  0  0  0  0  0  0  0  0  0
    4.7367   -1.7371   -1.4993 C   0  0  2  0  0  0  0  0  0  0  0  0
    4.2007   -1.9316   -0.0843 C   0  0  2  0  0  0  0  0  0  0  0  0
    4.9226   -1.1091    1.0073 C   0  0  1  0  0  0  0  0  0  0  0  0
    4.0209   -1.0114    2.2517 C   0  0  0  0  0  0  0  0  0  0  0  0
    7.2352   -1.9695   -0.4605 H   0  0  0  0  0  0  0  0  0  0  0  0
    8.3068   -1.6352    0.8722 H   0  0  0  0  0  0  0  0  0  0  0  0
    7.3459   -0.3428    0.1891 H   0  0  0  0  0  0  0  0  0  0  0  0
    7.2018   -3.4787    1.9106 H   0  0  0  0  0  0  0  0  0  0  0  0
    5.7573   -3.1738    2.7913 H   0  0  0  0  0  0  0  0  0  0  0  0
    6.0959   -4.0552   -0.0819 H   0  0  0  0  0  0  0  0  0  0  0  0
    5.3851   -4.9606    1.2023 H   0  0  0  0  0  0  0  0  0  0  0  0
    2.3692   -1.6964    4.5495 H   0  0  0  0  0  0  0  0  0  0  0  0
    1.0501   -3.7963    4.7777 H   0  0  0  0  0  0  0  0  0  0  0  0
    0.6226   -5.9349    3.8676 H   0  0  0  0  0  0  0  0  0  0  0  0
    3.9793   -5.0787   -0.8951 H   0  0  0  0  0  0  0  0  0  0  0  0
    1.5508   -4.5566   -1.6460 H   0  0  0  0  0  0  0  0  0  0  0  0
    1.6954   -3.0514   -0.9069 H   0  0  0  0  0  0  0  0  0  0  0  0
    3.2306   -4.1172   -3.3741 H   0  0  0  0  0  0  0  0  0  0  0  0
    4.9239   -0.8953   -4.1503 H   0  0  0  0  0  0  0  0  0  0  0  0
    3.7200   -1.9281   -4.8586 H   0  0  0  0  0  0  0  0  0  0  0  0
    3.1608    0.2148   -3.0881 H   0  0  0  0  0  0  0  0  0  0  0  0
    5.3836   -3.8281   -2.0626 H   0  0  0  0  0  0  0  0  0  0  0  0
    6.2061   -2.4856   -2.9871 H   0  0  0  0  0  0  0  0  0  0  0  0
    5.1051   -0.7321   -1.6511 H   0  0  0  0  0  0  0  0  0  0  0  0
    3.1943   -1.5089   -0.1448 H   0  0  0  0  0  0  0  0  0  0  0  0
    5.0837   -0.0962    0.6603 H   0  0  0  0  0  0  0  0  0  0  0  0
    3.2696   -0.2540    2.0553 H   0  0  0  0  0  0  0  0  0  0  0  0
    4.5796   -0.6605    3.1134 H   0  0  0  0  0  0  0  0  0  0  0  0
    6.5105   -1.1565    2.2119 H   0  0  0  0  0  0  0  0  0  0  0  0
  1  2  1  0
  1 26  1  0
  1 27  1  0
  1 28  1  0
  2 24  1  0
  2  3  1  0
  2 50  1  1
  3  4  1  0
  3 29  1  0
  3 30  1  0
  5  4  1  1
  4 31  1  0
  4 32  1  0
  5 14  1  0
  5 23  1  0
  5  6  1  0
  6 12  2  0
  6  7  1  0
  7 25  1  0
  7  8  2  0
  8  9  1  0
  8 33  1  0
  9 10  2  0
  9 34  1  0
 10 11  1  0
 10 12  1  0
 11 35  1  0
 12 13  1  0
 13 14  1  0
 14 15  1  0
 14 36  1  6
 15 16  1  0
 15 37  1  0
 15 38  1  0
 16 17  1  0
 16 18  1  0
 16 39  1  6
 18 22  1  0
 18 19  1  6
 18 21  1  0
 19 20  1  0
 19 40  1  0
 19 41  1  0
 20 42  1  0
 21 22  1  0
 21 43  1  0
 21 44  1  0
 22 23  1  0
 22 45  1  6
 23 24  1  0
 23 46  1  6
 24 25  1  0
 24 47  1  6
 25 48  1  0
 25 49  1  0
M  CHG  1   2   1
M  END
>  <i_m_ct_stereo_status>  (328) 
1

>  <s_m_source_file>  (328) 
/var/tmp/pbs.5076255.sched01/tmprva83imr/861x3d95ot.sdf

>  <i_m_source_file_index>  (328) 
43

>  <i_lp_mmshare_version>  (328) 
48012

>  <i_f3d_flags>  (328) 
0

>  <s_epik_input>  (328) 
W0NIMl0xW0NIMl1OKFtDSDNdKVtDQEhdKFtDSDJdMilbQ0BIXTNbQ0BASF0oW0NIMl00KVtDQF00KFtDSDJdW09IXSlbQ0BIXShGKVtDSDJdW0NAQEhdNU9jNmMoW09IXSlbY0hdW2NIXWMyYzZbQ0BdMTM1

>  <s_epik_cmdline>  (328) 
J2VwaWtfcHl0aG9uJywgJy1waHQnLCAnMi4wJywgJy1waCcsICc3LjAnLCAnLXRuJywgJzgnLCAnLW1hJywgJzIwMCcsICctaW1hZScsICc8aW5maWxlLm1hZT4nLCAnLW9tYWUnLCAnPG91dGZpbGUubWFlPic=

>  <r_lp_tautomer_probability>  (328) 
1

>  <r_epik_Ionization_Penalty>  (328) 
0.0306983

>  <r_epik_Ionization_Penalty_Charging>  (328) 
0.0204168

>  <r_epik_Ionization_Penalty_Neutral>  (328) 
0.0102814

>  <r_epik_State_Penalty>  (328) 
0.0240046

>  <r_epik_Charging_Adjusted_Penalty>  (328) 
0.0444215

>  <i_epik_Tot_Q>  (328) 
1

>  <i_epik_Tot_abs_Q>  (328) 
1

>  <s_lp_Force_Field>  (328) 
OPLS3e

>  <r_lp_Energy>  (328) 
65.7008

>  <b_lp_Chiralities_Consistent>  (328) 
1

>  <s_lp_Variant>  (328) 
90:0-1

>  <s_i_glide_gridfile>  (328) 
pfpi4k_grid

>  <i_i_glide_lignum>  (328) 
43

>  <i_i_glide_rotatable_bonds>  (328) 
3

>  <r_i_docking_score>  (328) 
-2.95672

>  <r_i_glide_ligand_efficiency>  (328) 
-0.118269

>  <r_i_glide_ligand_efficiency_sa>  (328) 
-0.34582

>  <r_i_glide_ligand_efficiency_ln>  (328) 
-0.70083

>  <r_i_glide_gscore>  (328) 
-2.95672

>  <r_i_glide_lipo>  (328) 
-0.510389

>  <r_i_glide_hbond>  (328) 
0

>  <r_i_glide_metal>  (328) 
-0

>  <r_i_glide_rewards>  (328) 
-1.27365

>  <r_i_glide_evdw>  (328) 
-20.1711

>  <r_i_glide_ecoul>  (328) 
-2.15035

>  <r_i_glide_erotb>  (328) 
0.158427

>  <r_i_glide_esite>  (328) 
0

>  <r_i_glide_emodel>  (328) 
-26.0205

>  <r_i_glide_energy>  (328) 
-22.3215

>  <r_i_glide_einternal>  (328) 
0.49423

>  <r_i_glide_intrahb_reward>  (328) 
-0

>  <i_i_glide_confnum>  (328) 
4

>  <i_i_glide_posenum>  (328) 
1

>  <r_i_glide_eff_state_penalty>  (328) 
0

>  <ligand_id>  (328) 
90

>  <original_smiles>  (328) 
CN1CCC23c4c5ccc(O)c4OC2CC(F)C2(CO)CC2C3C1C5

>  <smiles>  (328) 
[H]Oc1c([H])c([H])c2c3c1OC1([H])C([H])([H])C([H])(F)C4(C([H])([H])O[H])C([H])([H])C4([H])C4([H])C31C([H])([H])C([H])([H])[N+]([H])(C([H])([H])[H])C4([H])C2([H])[H]

$$$$
90:0:2
     RDKit          3D

 50 55  0  0  1  0  0  0  0  0999 V2000
    8.1962   -2.5462   -0.9527 C   0  0  0  0  0  0  0  0  0  0  0  0
    7.3479   -2.4645    0.2607 N   0  0  2  0  0  0  0  0  0  0  0  0
    7.0817   -3.8032    0.8263 C   0  0  0  0  0  0  0  0  0  0  0  0
    5.8917   -4.4574    0.1328 C   0  0  0  0  0  0  0  0  0  0  0  0
    4.6351   -3.5550    0.0858 C   0  0  2  0  0  0  0  0  0  0  0  0
    4.1931   -3.2432    1.4723 C   0  0  0  0  0  0  0  0  0  0  0  0
    4.7096   -2.2239    2.2897 C   0  0  0  0  0  0  0  0  0  0  0  0
    4.2068   -2.1759    3.5972 C   0  0  0  0  0  0  0  0  0  0  0  0
    3.2397   -3.1310    4.0088 C   0  0  0  0  0  0  0  0  0  0  0  0
    2.7217   -4.0961    3.1139 C   0  0  0  0  0  0  0  0  0  0  0  0
    1.7608   -4.9775    3.5141 O   0  0  0  0  0  0  0  0  0  0  0  0
    3.1923   -4.1423    1.7853 C   0  0  0  0  0  0  0  0  0  0  0  0
    2.8118   -4.9298    0.7418 O   0  0  0  0  0  0  0  0  0  0  0  0
    3.4494   -4.3923   -0.4361 C   0  0  1  0  0  0  0  0  0  0  0  0
    2.4014   -3.5949   -1.2449 C   0  0  0  0  0  0  0  0  0  0  0  0
    2.6985   -3.3337   -2.7428 C   0  0  1  0  0  0  0  0  0  0  0  0
    1.6684   -2.6581   -3.2096 F   0  0  0  0  0  0  0  0  0  0  0  0
    3.9799   -2.5736   -3.0991 C   0  0  2  0  0  0  0  0  0  0  0  0
    3.7811   -1.6961   -4.3362 C   0  0  0  0  0  0  0  0  0  0  0  0
    3.6431   -0.3220   -4.0496 O   0  0  0  0  0  0  0  0  0  0  0  0
    5.2361   -3.4269   -3.0512 C   0  0  0  0  0  0  0  0  0  0  0  0
    5.1259   -2.2330   -2.1436 C   0  0  2  0  0  0  0  0  0  0  0  0
    4.9637   -2.2323   -0.6237 C   0  0  2  0  0  0  0  0  0  0  0  0
    6.1317   -1.5919    0.1660 C   0  0  1  0  0  0  0  0  0  0  0  0
    5.6364   -1.2213    1.5853 C   0  0  0  0  0  0  0  0  0  0  0  0
    7.6980   -3.0524   -1.7825 H   0  0  0  0  0  0  0  0  0  0  0  0
    9.1349   -3.0531   -0.7376 H   0  0  0  0  0  0  0  0  0  0  0  0
    8.5151   -1.5582   -1.2369 H   0  0  0  0  0  0  0  0  0  0  0  0
    7.9733   -4.4186    0.7229 H   0  0  0  0  0  0  0  0  0  0  0  0
    6.8988   -3.7264    1.8928 H   0  0  0  0  0  0  0  0  0  0  0  0
    6.1762   -4.6742   -0.8900 H   0  0  0  0  0  0  0  0  0  0  0  0
    5.6861   -5.4179    0.6130 H   0  0  0  0  0  0  0  0  0  0  0  0
    4.5465   -1.3965    4.2690 H   0  0  0  0  0  0  0  0  0  0  0  0
    2.8775   -3.0820    5.0192 H   0  0  0  0  0  0  0  0  0  0  0  0
    1.6529   -4.9773    4.4538 H   0  0  0  0  0  0  0  0  0  0  0  0
    3.8844   -5.2073   -1.0015 H   0  0  0  0  0  0  0  0  0  0  0  0
    1.4717   -4.1608   -1.2218 H   0  0  0  0  0  0  0  0  0  0  0  0
    2.1829   -2.6672   -0.7136 H   0  0  0  0  0  0  0  0  0  0  0  0
    2.6863   -4.2569   -3.3305 H   0  0  0  0  0  0  0  0  0  0  0  0
    4.6150   -1.7502   -4.9959 H   0  0  0  0  0  0  0  0  0  0  0  0
    2.9860   -2.0825   -4.9507 H   0  0  0  0  0  0  0  0  0  0  0  0
    2.8020   -0.1524   -3.6489 H   0  0  0  0  0  0  0  0  0  0  0  0
    5.0974   -4.4350   -2.6767 H   0  0  0  0  0  0  0  0  0  0  0  0
    5.9404   -3.3610   -3.8772 H   0  0  0  0  0  0  0  0  0  0  0  0
    5.6648   -1.3488   -2.4622 H   0  0  0  0  0  0  0  0  0  0  0  0
    4.1148   -1.5628   -0.4801 H   0  0  0  0  0  0  0  0  0  0  0  0
    6.4196   -0.6579   -0.3103 H   0  0  0  0  0  0  0  0  0  0  0  0
    5.0576   -0.3052    1.4933 H   0  0  0  0  0  0  0  0  0  0  0  0
    6.4793   -0.9901    2.2335 H   0  0  0  0  0  0  0  0  0  0  0  0
    7.9328   -1.9999    0.9355 H   0  0  0  0  0  0  0  0  0  0  0  0
  1  2  1  0
  1 26  1  0
  1 27  1  0
  1 28  1  0
  2 24  1  0
  2  3  1  0
  2 50  1  1
  3  4  1  0
  3 29  1  0
  3 30  1  0
  5  4  1  1
  4 31  1  0
  4 32  1  0
  5 14  1  0
  5 23  1  0
  5  6  1  0
  6 12  2  0
  6  7  1  0
  7 25  1  0
  7  8  2  0
  8  9  1  0
  8 33  1  0
  9 10  2  0
  9 34  1  0
 10 11  1  0
 10 12  1  0
 11 35  1  0
 12 13  1  0
 13 14  1  0
 14 15  1  0
 14 36  1  6
 15 16  1  0
 15 37  1  0
 15 38  1  0
 16 17  1  0
 16 18  1  0
 16 39  1  6
 18 22  1  0
 18 19  1  6
 18 21  1  0
 19 20  1  0
 19 40  1  0
 19 41  1  0
 20 42  1  0
 21 22  1  0
 21 43  1  0
 21 44  1  0
 22 23  1  0
 22 45  1  6
 23 24  1  0
 23 46  1  6
 24 25  1  0
 24 47  1  6
 25 48  1  0
 25 49  1  0
M  CHG  1   2   1
M  END
>  <i_m_ct_stereo_status>  (329) 
1

>  <s_m_source_file>  (329) 
/var/tmp/pbs.5076255.sched01/tmprva83imr/861x3d95ot.sdf

>  <i_m_source_file_index>  (329) 
43

>  <i_lp_mmshare_version>  (329) 
48012

>  <i_f3d_flags>  (329) 
0

>  <s_epik_input>  (329) 
W0NIMl0xW0NIMl1OKFtDSDNdKVtDQEhdKFtDSDJdMilbQ0BIXTNbQ0BASF0oW0NIMl00KVtDQF00KFtDSDJdW09IXSlbQ0BIXShGKVtDSDJdW0NAQEhdNU9jNmMoW09IXSlbY0hdW2NIXWMyYzZbQ0BdMTM1

>  <s_epik_cmdline>  (329) 
J2VwaWtfcHl0aG9uJywgJy1waHQnLCAnMi4wJywgJy1waCcsICc3LjAnLCAnLXRuJywgJzgnLCAnLW1hJywgJzIwMCcsICctaW1hZScsICc8aW5maWxlLm1hZT4nLCAnLW9tYWUnLCAnPG91dGZpbGUubWFlPic=

>  <r_lp_tautomer_probability>  (329) 
1

>  <r_epik_Ionization_Penalty>  (329) 
0.0306983

>  <r_epik_Ionization_Penalty_Charging>  (329) 
0.0204168

>  <r_epik_Ionization_Penalty_Neutral>  (329) 
0.0102814

>  <r_epik_State_Penalty>  (329) 
0.0240046

>  <r_epik_Charging_Adjusted_Penalty>  (329) 
0.0444215

>  <i_epik_Tot_Q>  (329) 
1

>  <i_epik_Tot_abs_Q>  (329) 
1

>  <s_lp_Force_Field>  (329) 
OPLS3e

>  <r_lp_Energy>  (329) 
65.7008

>  <b_lp_Chiralities_Consistent>  (329) 
1

>  <s_lp_Variant>  (329) 
90:0-1

>  <s_i_glide_gridfile>  (329) 
pfpi4k_grid

>  <i_i_glide_lignum>  (329) 
43

>  <i_i_glide_rotatable_bonds>  (329) 
3

>  <r_i_docking_score>  (329) 
-2.8651

>  <r_i_glide_ligand_efficiency>  (329) 
-0.114604

>  <r_i_glide_ligand_efficiency_sa>  (329) 
-0.335104

>  <r_i_glide_ligand_efficiency_ln>  (329) 
-0.679114

>  <r_i_glide_gscore>  (329) 
-2.8651

>  <r_i_glide_lipo>  (329) 
-0.874882

>  <r_i_glide_hbond>  (329) 
0

>  <r_i_glide_metal>  (329) 
-0

>  <r_i_glide_rewards>  (329) 
-1.14771

>  <r_i_glide_evdw>  (329) 
-16.4911

>  <r_i_glide_ecoul>  (329) 
-1.17584

>  <r_i_glide_erotb>  (329) 
0.158427

>  <r_i_glide_esite>  (329) 
0

>  <r_i_glide_emodel>  (329) 
-20.04

>  <r_i_glide_energy>  (329) 
-17.667

>  <r_i_glide_einternal>  (329) 
1.50503

>  <r_i_glide_intrahb_reward>  (329) 
-0

>  <i_i_glide_confnum>  (329) 
1

>  <i_i_glide_posenum>  (329) 
4

>  <r_i_glide_eff_state_penalty>  (329) 
0

>  <ligand_id>  (329) 
90

>  <original_smiles>  (329) 
CN1CCC23c4c5ccc(O)c4OC2CC(F)C2(CO)CC2C3C1C5

>  <smiles>  (329) 
[H]Oc1c([H])c([H])c2c3c1OC1([H])C([H])([H])C([H])(F)C4(C([H])([H])O[H])C([H])([H])C4([H])C4([H])C31C([H])([H])C([H])([H])[N+]([H])(C([H])([H])[H])C4([H])C2([H])[H]

$$$$
90:1:0
     RDKit          3D

 49 54  0  0  1  0  0  0  0  0999 V2000
    6.7280   -0.8791    0.5752 C   0  0  0  0  0  0  0  0  0  0  0  0
    5.7261   -1.3128    1.5369 N   0  0  0  0  0  0  0  0  0  0  0  0
    5.8808   -2.7212    1.9010 C   0  0  0  0  0  0  0  0  0  0  0  0
    5.2420   -3.6628    0.8748 C   0  0  0  0  0  0  0  0  0  0  0  0
    3.7824   -3.2691    0.5440 C   0  0  2  0  0  0  0  0  0  0  0  0
    2.9414   -3.3366    1.7850 C   0  0  0  0  0  0  0  0  0  0  0  0
    2.8089   -2.3249    2.7552 C   0  0  0  0  0  0  0  0  0  0  0  0
    1.9843   -2.6233    3.8542 C   0  0  0  0  0  0  0  0  0  0  0  0
    1.3557   -3.8908    3.9407 C   0  0  0  0  0  0  0  0  0  0  0  0
    1.4810   -4.8406    2.8986 C   0  0  0  0  0  0  0  0  0  0  0  0
    0.7927   -6.0161    2.9582 O   0  0  0  0  0  0  0  0  0  0  0  0
    2.2757   -4.5433    1.7751 C   0  0  0  0  0  0  0  0  0  0  0  0
    2.4456   -5.2486    0.6133 O   0  0  0  0  0  0  0  0  0  0  0  0
    3.1160   -4.3761   -0.3283 C   0  0  1  0  0  0  0  0  0  0  0  0
    2.0738   -3.8257   -1.3292 C   0  0  0  0  0  0  0  0  0  0  0  0
    2.5871   -3.2187   -2.6632 C   0  0  1  0  0  0  0  0  0  0  0  0
    1.4951   -2.8842   -3.3285 F   0  0  0  0  0  0  0  0  0  0  0  0
    3.5489   -2.0179   -2.6177 C   0  0  2  0  0  0  0  0  0  0  0  0
    3.4079   -1.1089   -3.8589 C   0  0  0  0  0  0  0  0  0  0  0  0
    3.8211    0.2207   -3.6536 O   0  0  0  0  0  0  0  0  0  0  0  0
    4.9688   -2.4179   -2.2589 C   0  0  0  0  0  0  0  0  0  0  0  0
    4.2200   -1.4857   -1.3498 C   0  0  2  0  0  0  0  0  0  0  0  0
    3.7323   -1.8102    0.0519 C   0  0  2  0  0  0  0  0  0  0  0  0
    4.3544   -0.9286    1.1649 C   0  0  1  0  0  0  0  0  0  0  0  0
    3.4720   -0.9815    2.4307 C   0  0  0  0  0  0  0  0  0  0  0  0
    7.7257   -1.0172    0.9934 H   0  0  0  0  0  0  0  0  0  0  0  0
    6.5997    0.1845    0.3748 H   0  0  0  0  0  0  0  0  0  0  0  0
    6.6728   -1.4258   -0.3642 H   0  0  0  0  0  0  0  0  0  0  0  0
    6.9369   -2.9596    2.0083 H   0  0  0  0  0  0  0  0  0  0  0  0
    5.4310   -2.8871    2.8791 H   0  0  0  0  0  0  0  0  0  0  0  0
    5.8672   -3.6686   -0.0148 H   0  0  0  0  0  0  0  0  0  0  0  0
    5.2831   -4.6826    1.2579 H   0  0  0  0  0  0  0  0  0  0  0  0
    1.8227   -1.8808    4.6193 H   0  0  0  0  0  0  0  0  0  0  0  0
    0.7359   -4.1030    4.7916 H   0  0  0  0  0  0  0  0  0  0  0  0
    0.5651   -6.2594    3.8447 H   0  0  0  0  0  0  0  0  0  0  0  0
    3.8679   -4.9593   -0.8631 H   0  0  0  0  0  0  0  0  0  0  0  0
    1.4085   -4.6481   -1.5955 H   0  0  0  0  0  0  0  0  0  0  0  0
    1.4308   -3.1107   -0.8251 H   0  0  0  0  0  0  0  0  0  0  0  0
    3.0469   -3.9794   -3.2902 H   0  0  0  0  0  0  0  0  0  0  0  0
    4.0149   -1.5206   -4.6633 H   0  0  0  0  0  0  0  0  0  0  0  0
    2.3846   -1.0527   -4.2315 H   0  0  0  0  0  0  0  0  0  0  0  0
    3.1461    0.6859   -3.1646 H   0  0  0  0  0  0  0  0  0  0  0  0
    5.1312   -3.4633   -2.0035 H   0  0  0  0  0  0  0  0  0  0  0  0
    5.7787   -1.9802   -2.8258 H   0  0  0  0  0  0  0  0  0  0  0  0
    4.5537   -0.4538   -1.3972 H   0  0  0  0  0  0  0  0  0  0  0  0
    2.6853   -1.5115    0.0155 H   0  0  0  0  0  0  0  0  0  0  0  0
    4.3826    0.1111    0.8339 H   0  0  0  0  0  0  0  0  0  0  0  0
    2.6606   -0.2707    2.2801 H   0  0  0  0  0  0  0  0  0  0  0  0
    4.0351   -0.6325    3.2983 H   0  0  0  0  0  0  0  0  0  0  0  0
  1  2  1  0
  1 26  1  0
  1 27  1  0
  1 28  1  0
  2 24  1  0
  2  3  1  0
  3  4  1  0
  3 29  1  0
  3 30  1  0
  5  4  1  1
  4 31  1  0
  4 32  1  0
  5 14  1  0
  5 23  1  0
  5  6  1  0
  6 12  2  0
  6  7  1  0
  7 25  1  0
  7  8  2  0
  8  9  1  0
  8 33  1  0
  9 10  2  0
  9 34  1  0
 10 11  1  0
 10 12  1  0
 11 35  1  0
 12 13  1  0
 13 14  1  0
 14 15  1  0
 14 36  1  6
 15 16  1  0
 15 37  1  0
 15 38  1  0
 16 17  1  0
 16 18  1  0
 16 39  1  6
 18 22  1  0
 18 19  1  6
 18 21  1  0
 19 20  1  0
 19 40  1  0
 19 41  1  0
 20 42  1  0
 21 22  1  0
 21 43  1  0
 21 44  1  0
 22 23  1  0
 22 45  1  6
 23 24  1  0
 23 46  1  6
 24 25  1  0
 24 47  1  6
 25 48  1  0
 25 49  1  0
M  END
>  <i_m_ct_stereo_status>  (330) 
1

>  <s_m_source_file>  (330) 
/var/tmp/pbs.5076255.sched01/tmpo_pg7vmn/129owyy42_r.sdf

>  <i_m_source_file_index>  (330) 
1

>  <i_lp_mmshare_version>  (330) 
48012

>  <i_f3d_flags>  (330) 
0

>  <s_epik_input>  (330) 
W0NIMl0xW0NIMl1OKFtDSDNdKVtDQEhdKFtDSDJdMilbQ0BIXTNbQ0BASF0oW0NIMl00KVtDQF00KFtDSDJdW09IXSlbQ0BIXShGKVtDSDJdW0NAQEhdNU9jNmMoW09IXSlbY0hdW2NIXWMyYzZbQ0BdMTM1

>  <s_epik_cmdline>  (330) 
J2VwaWtfcHl0aG9uJywgJy1waHQnLCAnMi4wJywgJy1waCcsICc3LjAnLCAnLXRuJywgJzgnLCAnLW1hJywgJzIwMCcsICctaW1hZScsICc8aW5maWxlLm1hZT4nLCAnLW9tYWUnLCAnPG91dGZpbGUubWFlPic=

>  <r_lp_tautomer_probability>  (330) 
1

>  <r_epik_Ionization_Penalty>  (330) 
2.00718

>  <r_epik_Ionization_Penalty_Charging>  (330) 
0

>  <r_epik_Ionization_Penalty_Neutral>  (330) 
2.00718

>  <r_epik_State_Penalty>  (330) 
2.14241

>  <r_epik_Charging_Adjusted_Penalty>  (330) 
2.14241

>  <i_epik_Tot_Q>  (330) 
0

>  <i_epik_Tot_abs_Q>  (330) 
0

>  <s_lp_Force_Field>  (330) 
OPLS3e

>  <r_lp_Energy>  (330) 
59.42

>  <b_lp_Chiralities_Consistent>  (330) 
1

>  <s_lp_Variant>  (330) 
90:0-2

>  <s_i_glide_gridfile>  (330) 
pfpi4k_grid

>  <i_i_glide_lignum>  (330) 
1

>  <i_i_glide_rotatable_bonds>  (330) 
3

>  <r_i_docking_score>  (330) 
-3.35813

>  <r_i_glide_ligand_efficiency>  (330) 
-0.134325

>  <r_i_glide_ligand_efficiency_sa>  (330) 
-0.392769

>  <r_i_glide_ligand_efficiency_ln>  (330) 
-0.795978

>  <r_i_glide_gscore>  (330) 
-3.35813

>  <r_i_glide_lipo>  (330) 
-0.481886

>  <r_i_glide_hbond>  (330) 
-0.32

>  <r_i_glide_metal>  (330) 
-0

>  <r_i_glide_rewards>  (330) 
-1.15065

>  <r_i_glide_evdw>  (330) 
-18.7685

>  <r_i_glide_ecoul>  (330) 
-4.1761

>  <r_i_glide_erotb>  (330) 
0.159249

>  <r_i_glide_esite>  (330) 
0

>  <r_i_glide_emodel>  (330) 
-24.5904

>  <r_i_glide_energy>  (330) 
-22.9446

>  <r_i_glide_einternal>  (330) 
5.32585

>  <r_i_glide_intrahb_reward>  (330) 
-0

>  <i_i_glide_confnum>  (330) 
6

>  <i_i_glide_posenum>  (330) 
4

>  <r_i_glide_eff_state_penalty>  (330) 
0

>  <ligand_id>  (330) 
90

>  <original_smiles>  (330) 
CN1CCC23c4c5ccc(O)c4OC2CC(F)C2(CO)CC2C3C1C5

>  <smiles>  (330) 
[H]Oc1c([H])c([H])c2c3c1OC1([H])C([H])([H])C([H])(F)C4(C([H])([H])O[H])C([H])([H])C4([H])C4([H])C([H])(N(C([H])([H])[H])C([H])([H])C([H])([H])C314)C2([H])[H]

$$$$
90:1:1
     RDKit          3D

 49 54  0  0  1  0  0  0  0  0999 V2000
    6.7259   -0.9085    0.5874 C   0  0  0  0  0  0  0  0  0  0  0  0
    5.7145   -1.3388    1.5384 N   0  0  0  0  0  0  0  0  0  0  0  0
    5.8731   -2.7454    1.9103 C   0  0  0  0  0  0  0  0  0  0  0  0
    5.2409   -3.6886    0.8829 C   0  0  0  0  0  0  0  0  0  0  0  0
    3.7802   -3.2907    0.5513 C   0  0  2  0  0  0  0  0  0  0  0  0
    2.9408   -3.3693    1.7915 C   0  0  0  0  0  0  0  0  0  0  0  0
    2.7976   -2.3510    2.7636 C   0  0  0  0  0  0  0  0  0  0  0  0
    1.9664   -2.6532    3.8550 C   0  0  0  0  0  0  0  0  0  0  0  0
    1.3403   -3.9245    3.9354 C   0  0  0  0  0  0  0  0  0  0  0  0
    1.4845   -4.8793    2.8820 C   0  0  0  0  0  0  0  0  0  0  0  0
    0.7988   -6.0555    2.9560 O   0  0  0  0  0  0  0  0  0  0  0  0
    2.2852   -4.5813    1.7833 C   0  0  0  0  0  0  0  0  0  0  0  0
    2.4535   -5.2956    0.6019 O   0  0  0  0  0  0  0  0  0  0  0  0
    3.1137   -4.4043   -0.3227 C   0  0  1  0  0  0  0  0  0  0  0  0
    2.0772   -3.8465   -1.3306 C   0  0  0  0  0  0  0  0  0  0  0  0
    2.6000   -3.2431   -2.6643 C   0  0  1  0  0  0  0  0  0  0  0  0
    1.5086   -2.9104   -3.3283 F   0  0  0  0  0  0  0  0  0  0  0  0
    3.5509   -2.0396   -2.6083 C   0  0  2  0  0  0  0  0  0  0  0  0
    3.4017   -1.1321   -3.8525 C   0  0  0  0  0  0  0  0  0  0  0  0
    3.8155    0.2049   -3.6776 O   0  0  0  0  0  0  0  0  0  0  0  0
    4.9714   -2.4454   -2.2539 C   0  0  0  0  0  0  0  0  0  0  0  0
    4.2278   -1.5209   -1.3366 C   0  0  2  0  0  0  0  0  0  0  0  0
    3.7275   -1.8366    0.0587 C   0  0  2  0  0  0  0  0  0  0  0  0
    4.3488   -0.9575    1.1630 C   0  0  1  0  0  0  0  0  0  0  0  0
    3.4719   -1.0139    2.4282 C   0  0  0  0  0  0  0  0  0  0  0  0
    7.7219   -1.0516    1.0096 H   0  0  0  0  0  0  0  0  0  0  0  0
    6.6042    0.1565    0.3905 H   0  0  0  0  0  0  0  0  0  0  0  0
    6.6710   -1.4485   -0.3552 H   0  0  0  0  0  0  0  0  0  0  0  0
    6.9270   -2.9857    2.0169 H   0  0  0  0  0  0  0  0  0  0  0  0
    5.4197   -2.9147    2.8859 H   0  0  0  0  0  0  0  0  0  0  0  0
    5.8640   -3.6951   -0.0090 H   0  0  0  0  0  0  0  0  0  0  0  0
    5.2814   -4.7121    1.2641 H   0  0  0  0  0  0  0  0  0  0  0  0
    1.8048   -1.9138    4.6213 H   0  0  0  0  0  0  0  0  0  0  0  0
    0.7160   -4.1492    4.7817 H   0  0  0  0  0  0  0  0  0  0  0  0
    1.1645   -6.7091    2.3726 H   0  0  0  0  0  0  0  0  0  0  0  0
    3.8703   -4.9844   -0.8586 H   0  0  0  0  0  0  0  0  0  0  0  0
    1.4122   -4.6675   -1.5961 H   0  0  0  0  0  0  0  0  0  0  0  0
    1.4337   -3.1303   -0.8278 H   0  0  0  0  0  0  0  0  0  0  0  0
    3.0577   -3.9993   -3.2949 H   0  0  0  0  0  0  0  0  0  0  0  0
    3.9949   -1.5525   -4.6615 H   0  0  0  0  0  0  0  0  0  0  0  0
    2.3735   -1.0743   -4.2109 H   0  0  0  0  0  0  0  0  0  0  0  0
    3.1638    0.6620   -3.1552 H   0  0  0  0  0  0  0  0  0  0  0  0
    5.1303   -3.4879   -1.9993 H   0  0  0  0  0  0  0  0  0  0  0  0
    5.7815   -2.0011   -2.8213 H   0  0  0  0  0  0  0  0  0  0  0  0
    4.5590   -0.4927   -1.3728 H   0  0  0  0  0  0  0  0  0  0  0  0
    2.6808   -1.5441    0.0199 H   0  0  0  0  0  0  0  0  0  0  0  0
    4.3742    0.0820    0.8394 H   0  0  0  0  0  0  0  0  0  0  0  0
    2.6518   -0.3165    2.2775 H   0  0  0  0  0  0  0  0  0  0  0  0
    4.0216   -0.6592    3.2986 H   0  0  0  0  0  0  0  0  0  0  0  0
  1  2  1  0
  1 26  1  0
  1 27  1  0
  1 28  1  0
  2 24  1  0
  2  3  1  0
  3  4  1  0
  3 29  1  0
  3 30  1  0
  5  4  1  1
  4 31  1  0
  4 32  1  0
  5 14  1  0
  5 23  1  0
  5  6  1  0
  6 12  2  0
  6  7  1  0
  7 25  1  0
  7  8  2  0
  8  9  1  0
  8 33  1  0
  9 10  2  0
  9 34  1  0
 10 11  1  0
 10 12  1  0
 11 35  1  0
 12 13  1  0
 13 14  1  0
 14 15  1  0
 14 36  1  6
 15 16  1  0
 15 37  1  0
 15 38  1  0
 16 17  1  0
 16 18  1  0
 16 39  1  6
 18 22  1  0
 18 19  1  6
 18 21  1  0
 19 20  1  0
 19 40  1  0
 19 41  1  0
 20 42  1  0
 21 22  1  0
 21 43  1  0
 21 44  1  0
 22 23  1  0
 22 45  1  6
 23 24  1  0
 23 46  1  6
 24 25  1  0
 24 47  1  6
 25 48  1  0
 25 49  1  0
M  END
>  <i_m_ct_stereo_status>  (331) 
1

>  <s_m_source_file>  (331) 
/var/tmp/pbs.5076255.sched01/tmpo_pg7vmn/129owyy42_r.sdf

>  <i_m_source_file_index>  (331) 
1

>  <i_lp_mmshare_version>  (331) 
48012

>  <i_f3d_flags>  (331) 
0

>  <s_epik_input>  (331) 
W0NIMl0xW0NIMl1OKFtDSDNdKVtDQEhdKFtDSDJdMilbQ0BIXTNbQ0BASF0oW0NIMl00KVtDQF00KFtDSDJdW09IXSlbQ0BIXShGKVtDSDJdW0NAQEhdNU9jNmMoW09IXSlbY0hdW2NIXWMyYzZbQ0BdMTM1

>  <s_epik_cmdline>  (331) 
J2VwaWtfcHl0aG9uJywgJy1waHQnLCAnMi4wJywgJy1waCcsICc3LjAnLCAnLXRuJywgJzgnLCAnLW1hJywgJzIwMCcsICctaW1hZScsICc8aW5maWxlLm1hZT4nLCAnLW9tYWUnLCAnPG91dGZpbGUubWFlPic=

>  <r_lp_tautomer_probability>  (331) 
1

>  <r_epik_Ionization_Penalty>  (331) 
2.00718

>  <r_epik_Ionization_Penalty_Charging>  (331) 
0

>  <r_epik_Ionization_Penalty_Neutral>  (331) 
2.00718

>  <r_epik_State_Penalty>  (331) 
2.14241

>  <r_epik_Charging_Adjusted_Penalty>  (331) 
2.14241

>  <i_epik_Tot_Q>  (331) 
0

>  <i_epik_Tot_abs_Q>  (331) 
0

>  <s_lp_Force_Field>  (331) 
OPLS3e

>  <r_lp_Energy>  (331) 
59.42

>  <b_lp_Chiralities_Consistent>  (331) 
1

>  <s_lp_Variant>  (331) 
90:0-2

>  <s_i_glide_gridfile>  (331) 
pfpi4k_grid

>  <i_i_glide_lignum>  (331) 
1

>  <i_i_glide_rotatable_bonds>  (331) 
3

>  <r_i_docking_score>  (331) 
-3.30042

>  <r_i_glide_ligand_efficiency>  (331) 
-0.132017

>  <r_i_glide_ligand_efficiency_sa>  (331) 
-0.38602

>  <r_i_glide_ligand_efficiency_ln>  (331) 
-0.782299

>  <r_i_glide_gscore>  (331) 
-3.30042

>  <r_i_glide_lipo>  (331) 
-0.476598

>  <r_i_glide_hbond>  (331) 
-0.295415

>  <r_i_glide_metal>  (331) 
-0

>  <r_i_glide_rewards>  (331) 
-1.15541

>  <r_i_glide_evdw>  (331) 
-19.176

>  <r_i_glide_ecoul>  (331) 
-3.823

>  <r_i_glide_erotb>  (331) 
0.159249

>  <r_i_glide_esite>  (331) 
0

>  <r_i_glide_emodel>  (331) 
-24.5224

>  <r_i_glide_energy>  (331) 
-22.999

>  <r_i_glide_einternal>  (331) 
5.55251

>  <r_i_glide_intrahb_reward>  (331) 
-0

>  <i_i_glide_confnum>  (331) 
3

>  <i_i_glide_posenum>  (331) 
27

>  <r_i_glide_eff_state_penalty>  (331) 
0

>  <ligand_id>  (331) 
90

>  <original_smiles>  (331) 
CN1CCC23c4c5ccc(O)c4OC2CC(F)C2(CO)CC2C3C1C5

>  <smiles>  (331) 
[H]Oc1c([H])c([H])c2c3c1OC1([H])C([H])([H])C([H])(F)C4(C([H])([H])O[H])C([H])([H])C4([H])C4([H])C([H])(N(C([H])([H])[H])C([H])([H])C([H])([H])C314)C2([H])[H]

$$$$
90:1:2
     RDKit          3D

 49 54  0  0  1  0  0  0  0  0999 V2000
    8.3183   -2.5069   -0.7319 C   0  0  0  0  0  0  0  0  0  0  0  0
    7.4986   -2.4618    0.4732 N   0  0  0  0  0  0  0  0  0  0  0  0
    7.2480   -3.7949    1.0183 C   0  0  0  0  0  0  0  0  0  0  0  0
    6.0512   -4.4754    0.3464 C   0  0  0  0  0  0  0  0  0  0  0  0
    4.7921   -3.5769    0.3060 C   0  0  2  0  0  0  0  0  0  0  0  0
    4.3516   -3.2477    1.6972 C   0  0  0  0  0  0  0  0  0  0  0  0
    4.8665   -2.2163    2.5036 C   0  0  0  0  0  0  0  0  0  0  0  0
    4.3242   -2.1169    3.7978 C   0  0  0  0  0  0  0  0  0  0  0  0
    3.3315   -3.0400    4.2212 C   0  0  0  0  0  0  0  0  0  0  0  0
    2.8209   -4.0218    3.3345 C   0  0  0  0  0  0  0  0  0  0  0  0
    1.8286   -4.8651    3.7446 O   0  0  0  0  0  0  0  0  0  0  0  0
    3.3238   -4.1095    2.0228 C   0  0  0  0  0  0  0  0  0  0  0  0
    2.9205   -4.9039    0.9878 O   0  0  0  0  0  0  0  0  0  0  0  0
    3.5720   -4.4040   -0.1999 C   0  0  1  0  0  0  0  0  0  0  0  0
    2.5514   -3.5719   -1.0113 C   0  0  0  0  0  0  0  0  0  0  0  0
    2.8565   -3.3019   -2.5094 C   0  0  1  0  0  0  0  0  0  0  0  0
    1.8121   -2.6414   -2.9876 F   0  0  0  0  0  0  0  0  0  0  0  0
    4.1628   -2.5768   -2.8768 C   0  0  2  0  0  0  0  0  0  0  0  0
    3.9963   -1.7164   -4.1251 C   0  0  0  0  0  0  0  0  0  0  0  0
    3.4122   -0.4670   -3.8424 O   0  0  0  0  0  0  0  0  0  0  0  0
    5.4077   -3.4368   -2.8090 C   0  0  0  0  0  0  0  0  0  0  0  0
    5.2893   -2.2311   -1.9140 C   0  0  2  0  0  0  0  0  0  0  0  0
    5.1251   -2.2445   -0.4009 C   0  0  2  0  0  0  0  0  0  0  0  0
    6.3006   -1.6051    0.3832 C   0  0  1  0  0  0  0  0  0  0  0  0
    5.8399   -1.2530    1.8161 C   0  0  0  0  0  0  0  0  0  0  0  0
    9.2630   -3.0067   -0.5303 H   0  0  0  0  0  0  0  0  0  0  0  0
    8.5895   -1.4969   -1.0175 H   0  0  0  0  0  0  0  0  0  0  0  0
    7.8292   -3.0154   -1.5624 H   0  0  0  0  0  0  0  0  0  0  0  0
    8.1476   -4.4061    0.9271 H   0  0  0  0  0  0  0  0  0  0  0  0
    7.0341   -3.7189    2.0819 H   0  0  0  0  0  0  0  0  0  0  0  0
    6.3357   -4.7419   -0.6649 H   0  0  0  0  0  0  0  0  0  0  0  0
    5.8476   -5.4197    0.8559 H   0  0  0  0  0  0  0  0  0  0  0  0
    4.6561   -1.3303    4.4606 H   0  0  0  0  0  0  0  0  0  0  0  0
    2.9473   -2.9627    5.2208 H   0  0  0  0  0  0  0  0  0  0  0  0
    1.6352   -4.7686    4.6637 H   0  0  0  0  0  0  0  0  0  0  0  0
    3.9006   -5.2846   -0.7459 H   0  0  0  0  0  0  0  0  0  0  0  0
    1.6150   -4.1219   -0.9968 H   0  0  0  0  0  0  0  0  0  0  0  0
    2.3188   -2.6522   -0.4768 H   0  0  0  0  0  0  0  0  0  0  0  0
    2.8293   -4.2175   -3.0974 H   0  0  0  0  0  0  0  0  0  0  0  0
    4.9633   -1.4599   -4.5480 H   0  0  0  0  0  0  0  0  0  0  0  0
    3.4111   -2.2588   -4.8688 H   0  0  0  0  0  0  0  0  0  0  0  0
    2.5807   -0.6169   -3.4150 H   0  0  0  0  0  0  0  0  0  0  0  0
    5.2494   -4.4431   -2.4294 H   0  0  0  0  0  0  0  0  0  0  0  0
    6.1259   -3.3681   -3.6188 H   0  0  0  0  0  0  0  0  0  0  0  0
    5.8411   -1.3565   -2.2399 H   0  0  0  0  0  0  0  0  0  0  0  0
    4.2759   -1.5739   -0.2485 H   0  0  0  0  0  0  0  0  0  0  0  0
    6.5952   -0.6679   -0.0879 H   0  0  0  0  0  0  0  0  0  0  0  0
    5.3111   -0.3068    1.7554 H   0  0  0  0  0  0  0  0  0  0  0  0
    6.6979   -1.0744    2.4616 H   0  0  0  0  0  0  0  0  0  0  0  0
  1  2  1  0
  1 26  1  0
  1 27  1  0
  1 28  1  0
  2 24  1  0
  2  3  1  0
  3  4  1  0
  3 29  1  0
  3 30  1  0
  5  4  1  1
  4 31  1  0
  4 32  1  0
  5 14  1  0
  5 23  1  0
  5  6  1  0
  6 12  2  0
  6  7  1  0
  7 25  1  0
  7  8  2  0
  8  9  1  0
  8 33  1  0
  9 10  2  0
  9 34  1  0
 10 11  1  0
 10 12  1  0
 11 35  1  0
 12 13  1  0
 13 14  1  0
 14 15  1  0
 14 36  1  6
 15 16  1  0
 15 37  1  0
 15 38  1  0
 16 17  1  0
 16 18  1  0
 16 39  1  6
 18 22  1  0
 18 19  1  6
 18 21  1  0
 19 20  1  0
 19 40  1  0
 19 41  1  0
 20 42  1  0
 21 22  1  0
 21 43  1  0
 21 44  1  0
 22 23  1  0
 22 45  1  6
 23 24  1  0
 23 46  1  6
 24 25  1  0
 24 47  1  6
 25 48  1  0
 25 49  1  0
M  END
>  <i_m_ct_stereo_status>  (332) 
1

>  <s_m_source_file>  (332) 
/var/tmp/pbs.5076255.sched01/tmpo_pg7vmn/129owyy42_r.sdf

>  <i_m_source_file_index>  (332) 
1

>  <i_lp_mmshare_version>  (332) 
48012

>  <i_f3d_flags>  (332) 
0

>  <s_epik_input>  (332) 
W0NIMl0xW0NIMl1OKFtDSDNdKVtDQEhdKFtDSDJdMilbQ0BIXTNbQ0BASF0oW0NIMl00KVtDQF00KFtDSDJdW09IXSlbQ0BIXShGKVtDSDJdW0NAQEhdNU9jNmMoW09IXSlbY0hdW2NIXWMyYzZbQ0BdMTM1

>  <s_epik_cmdline>  (332) 
J2VwaWtfcHl0aG9uJywgJy1waHQnLCAnMi4wJywgJy1waCcsICc3LjAnLCAnLXRuJywgJzgnLCAnLW1hJywgJzIwMCcsICctaW1hZScsICc8aW5maWxlLm1hZT4nLCAnLW9tYWUnLCAnPG91dGZpbGUubWFlPic=

>  <r_lp_tautomer_probability>  (332) 
1

>  <r_epik_Ionization_Penalty>  (332) 
2.00718

>  <r_epik_Ionization_Penalty_Charging>  (332) 
0

>  <r_epik_Ionization_Penalty_Neutral>  (332) 
2.00718

>  <r_epik_State_Penalty>  (332) 
2.14241

>  <r_epik_Charging_Adjusted_Penalty>  (332) 
2.14241

>  <i_epik_Tot_Q>  (332) 
0

>  <i_epik_Tot_abs_Q>  (332) 
0

>  <s_lp_Force_Field>  (332) 
OPLS3e

>  <r_lp_Energy>  (332) 
59.42

>  <b_lp_Chiralities_Consistent>  (332) 
1

>  <s_lp_Variant>  (332) 
90:0-2

>  <s_i_glide_gridfile>  (332) 
pfpi4k_grid

>  <i_i_glide_lignum>  (332) 
1

>  <i_i_glide_rotatable_bonds>  (332) 
3

>  <r_i_docking_score>  (332) 
-2.7992

>  <r_i_glide_ligand_efficiency>  (332) 
-0.111968

>  <r_i_glide_ligand_efficiency_sa>  (332) 
-0.327397

>  <r_i_glide_ligand_efficiency_ln>  (332) 
-0.663495

>  <r_i_glide_gscore>  (332) 
-2.7992

>  <r_i_glide_lipo>  (332) 
-0.834433

>  <r_i_glide_hbond>  (332) 
0

>  <r_i_glide_metal>  (332) 
-0

>  <r_i_glide_rewards>  (332) 
-1.09886

>  <r_i_glide_evdw>  (332) 
-21.3099

>  <r_i_glide_ecoul>  (332) 
0.268906

>  <r_i_glide_erotb>  (332) 
0.159249

>  <r_i_glide_esite>  (332) 
0

>  <r_i_glide_emodel>  (332) 
-24.7906

>  <r_i_glide_energy>  (332) 
-21.041

>  <r_i_glide_einternal>  (332) 
0.170395

>  <r_i_glide_intrahb_reward>  (332) 
-0

>  <i_i_glide_confnum>  (332) 
4

>  <i_i_glide_posenum>  (332) 
31

>  <r_i_glide_eff_state_penalty>  (332) 
0

>  <ligand_id>  (332) 
90

>  <original_smiles>  (332) 
CN1CCC23c4c5ccc(O)c4OC2CC(F)C2(CO)CC2C3C1C5

>  <smiles>  (332) 
[H]Oc1c([H])c([H])c2c3c1OC1([H])C([H])([H])C([H])(F)C4(C([H])([H])O[H])C([H])([H])C4([H])C4([H])C([H])(N(C([H])([H])[H])C([H])([H])C([H])([H])C314)C2([H])[H]

$$$$
90:2:0
     RDKit          3D

 49 54  0  0  1  0  0  0  0  0999 V2000
    6.3829   -0.9136    1.2496 C   0  0  0  0  0  0  0  0  0  0  0  0
    5.3043   -1.5268    2.0600 N   0  0  2  0  0  0  0  0  0  0  0  0
    5.5095   -2.9791    2.2561 C   0  0  0  0  0  0  0  0  0  0  0  0
    5.0449   -3.7834    1.0409 C   0  0  0  0  0  0  0  0  0  0  0  0
    3.5967   -3.4214    0.6316 C   0  0  2  0  0  0  0  0  0  0  0  0
    2.6933   -3.7232    1.7914 C   0  0  0  0  0  0  0  0  0  0  0  0
    2.3909   -2.8662    2.8691 C   0  0  0  0  0  0  0  0  0  0  0  0
    1.5465   -3.3831    3.8687 C   0  0  0  0  0  0  0  0  0  0  0  0
    1.0403   -4.6986    3.7207 C   0  0  0  0  0  0  0  0  0  0  0  0
    1.3016   -5.4711    2.5651 C   0  0  0  0  0  0  0  0  0  0  0  0
    0.6196   -6.6304    2.3659 O   0  0  0  0  0  0  0  0  0  0  0  0
    2.1736   -4.9724    1.5631 C   0  0  0  0  0  0  0  0  0  0  0  0
    2.4490   -5.4689    0.3179 O   0  0  0  0  0  0  0  0  0  0  0  0
    3.0786   -4.4182   -0.4426 C   0  0  1  0  0  0  0  0  0  0  0  0
    2.0611   -3.8109   -1.4403 C   0  0  0  0  0  0  0  0  0  0  0  0
    2.6595   -3.0302   -2.6435 C   0  0  1  0  0  0  0  0  0  0  0  0
    1.6484   -2.6542   -3.4096 F   0  0  0  0  0  0  0  0  0  0  0  0
    3.5613   -1.8105   -2.3584 C   0  0  2  0  0  0  0  0  0  0  0  0
    3.4449   -0.7261   -3.4358 C   0  0  0  0  0  0  0  0  0  0  0  0
    3.7749   -1.2376   -4.7146 O   0  0  0  0  0  0  0  0  0  0  0  0
    4.9670   -2.1305   -1.9109 C   0  0  0  0  0  0  0  0  0  0  0  0
    4.0577   -1.3788   -0.9781 C   0  0  2  0  0  0  0  0  0  0  0  0
    3.4952   -1.9173    0.3372 C   0  0  2  0  0  0  0  0  0  0  0  0
    3.9324   -1.1591    1.6104 C   0  0  1  0  0  0  0  0  0  0  0  0
    2.9174   -1.4325    2.7492 C   0  0  0  0  0  0  0  0  0  0  0  0
    6.4516   -1.3475    0.2546 H   0  0  0  0  0  0  0  0  0  0  0  0
    7.3482   -1.0563    1.7350 H   0  0  0  0  0  0  0  0  0  0  0  0
    6.2024    0.1526    1.1451 H   0  0  0  0  0  0  0  0  0  0  0  0
    6.5623   -3.1803    2.4303 H   0  0  0  0  0  0  0  0  0  0  0  0
    4.9898   -3.3089    3.1576 H   0  0  0  0  0  0  0  0  0  0  0  0
    5.7488   -3.6172    0.2270 H   0  0  0  0  0  0  0  0  0  0  0  0
    5.1161   -4.8455    1.2803 H   0  0  0  0  0  0  0  0  0  0  0  0
    1.2691   -2.7700    4.7097 H   0  0  0  0  0  0  0  0  0  0  0  0
    0.3768   -5.0852    4.4753 H   0  0  0  0  0  0  0  0  0  0  0  0
    3.9141   -4.8564   -0.9886 H   0  0  0  0  0  0  0  0  0  0  0  0
    1.4605   -4.6218   -1.8652 H   0  0  0  0  0  0  0  0  0  0  0  0
    1.3345   -3.1988   -0.9164 H   0  0  0  0  0  0  0  0  0  0  0  0
    3.2137   -3.7147   -3.2903 H   0  0  0  0  0  0  0  0  0  0  0  0
    2.4519   -0.2723   -3.4482 H   0  0  0  0  0  0  0  0  0  0  0  0
    4.1432    0.0826   -3.2235 H   0  0  0  0  0  0  0  0  0  0  0  0
    2.9507   -1.4684   -5.1307 H   0  0  0  0  0  0  0  0  0  0  0  0
    5.1697   -3.1857   -1.7711 H   0  0  0  0  0  0  0  0  0  0  0  0
    5.7742   -1.5567   -2.3572 H   0  0  0  0  0  0  0  0  0  0  0  0
    4.2500   -0.3110   -0.9213 H   0  0  0  0  0  0  0  0  0  0  0  0
    2.4419   -1.6926    0.2664 H   0  0  0  0  0  0  0  0  0  0  0  0
    3.9177   -0.0811    1.4263 H   0  0  0  0  0  0  0  0  0  0  0  0
    2.0535   -0.7928    2.5650 H   0  0  0  0  0  0  0  0  0  0  0  0
    3.3329   -1.1205    3.7065 H   0  0  0  0  0  0  0  0  0  0  0  0
    5.3948   -1.1153    2.9729 H   0  0  0  0  0  0  0  0  0  0  0  0
  1  2  1  0
  1 26  1  0
  1 27  1  0
  1 28  1  0
  2 24  1  0
  2  3  1  0
  2 49  1  1
  3  4  1  0
  3 29  1  0
  3 30  1  0
  5  4  1  1
  4 31  1  0
  4 32  1  0
  5 14  1  0
  5 23  1  0
  5  6  1  0
  6 12  2  0
  6  7  1  0
  7 25  1  0
  7  8  2  0
  8  9  1  0
  8 33  1  0
  9 10  2  0
  9 34  1  0
 10 11  1  0
 10 12  1  0
 12 13  1  0
 13 14  1  0
 14 15  1  0
 14 35  1  6
 15 16  1  0
 15 36  1  0
 15 37  1  0
 16 17  1  0
 16 18  1  0
 16 38  1  6
 18 22  1  0
 18 19  1  6
 18 21  1  0
 19 20  1  0
 19 39  1  0
 19 40  1  0
 20 41  1  0
 21 22  1  0
 21 42  1  0
 21 43  1  0
 22 23  1  0
 22 44  1  1
 23 24  1  0
 23 45  1  6
 24 25  1  0
 24 46  1  6
 25 47  1  0
 25 48  1  0
M  CHG  2   2   1  11  -1
M  END
>  <i_m_ct_stereo_status>  (333) 
1

>  <s_m_source_file>  (333) 
/var/tmp/pbs.5076255.sched01/tmpo_pg7vmn/129owyy42_r.sdf

>  <i_m_source_file_index>  (333) 
2

>  <i_lp_mmshare_version>  (333) 
48012

>  <i_f3d_flags>  (333) 
0

>  <s_epik_input>  (333) 
W0NIMl0xW0NIMl1OKFtDSDNdKVtDQEhdKFtDSDJdMilbQ0BIXTNbQ0BASF0oW0NIMl00KVtDQF00KFtDSDJdW09IXSlbQ0BIXShGKVtDSDJdW0NAQEhdNU9jNmMoW09IXSlbY0hdW2NIXWMyYzZbQ0BdMTM1

>  <s_epik_cmdline>  (333) 
J2VwaWtfcHl0aG9uJywgJy1waHQnLCAnMi4wJywgJy1waCcsICc3LjAnLCAnLXRuJywgJzgnLCAnLW1hJywgJzIwMCcsICctaW1hZScsICc8aW5maWxlLm1hZT4nLCAnLW9tYWUnLCAnPG91dGZpbGUubWFlPic=

>  <r_epik_Ionization_Penalty>  (333) 
2.42535

>  <r_epik_Ionization_Penalty_Charging>  (333) 
2.42535

>  <r_epik_Ionization_Penalty_Neutral>  (333) 
1.05049e-07

>  <r_epik_State_Penalty>  (333) 
2.58157

>  <r_epik_Charging_Adjusted_Penalty>  (333) 
5.00692

>  <i_epik_Tot_Q>  (333) 
0

>  <i_epik_Tot_abs_Q>  (333) 
2

>  <s_lp_Force_Field>  (333) 
OPLS3e

>  <r_lp_Energy>  (333) 
61.6883

>  <b_lp_Chiralities_Consistent>  (333) 
1

>  <s_lp_Variant>  (333) 
90:0-3

>  <s_i_glide_gridfile>  (333) 
pfpi4k_grid

>  <i_i_glide_lignum>  (333) 
2

>  <i_i_glide_rotatable_bonds>  (333) 
2

>  <r_i_docking_score>  (333) 
-3.8057

>  <r_i_glide_ligand_efficiency>  (333) 
-0.152228

>  <r_i_glide_ligand_efficiency_sa>  (333) 
-0.445118

>  <r_i_glide_ligand_efficiency_ln>  (333) 
-0.902066

>  <r_i_glide_gscore>  (333) 
-3.8057

>  <r_i_glide_lipo>  (333) 
-0.346089

>  <r_i_glide_hbond>  (333) 
-0.608

>  <r_i_glide_metal>  (333) 
-0

>  <r_i_glide_rewards>  (333) 
-1.20746

>  <r_i_glide_evdw>  (333) 
-16.1753

>  <r_i_glide_ecoul>  (333) 
-6.63095

>  <r_i_glide_erotb>  (333) 
0.159249

>  <r_i_glide_esite>  (333) 
0

>  <r_i_glide_emodel>  (333) 
-28.7235

>  <r_i_glide_energy>  (333) 
-22.8063

>  <r_i_glide_einternal>  (333) 
0.930517

>  <r_i_glide_intrahb_reward>  (333) 
-0

>  <i_i_glide_confnum>  (333) 
5

>  <i_i_glide_posenum>  (333) 
1

>  <r_i_glide_eff_state_penalty>  (333) 
0

>  <ligand_id>  (333) 
90

>  <original_smiles>  (333) 
CN1CCC23c4c5ccc(O)c4OC2CC(F)C2(CO)CC2C3C1C5

>  <smiles>  (333) 
[H]OC([H])([H])C12C([H])([H])C1([H])C1([H])C34c5c(c([O-])c([H])c([H])c5C([H])([H])C1([H])[N+]([H])(C([H])([H])[H])C([H])([H])C3([H])[H])OC4([H])C([H])([H])C2([H])F

$$$$
90:2:1
     RDKit          3D

 49 54  0  0  1  0  0  0  0  0999 V2000
    6.9544   -1.1099    0.5176 C   0  0  0  0  0  0  0  0  0  0  0  0
    5.8764   -1.4550    1.4697 N   0  0  2  0  0  0  0  0  0  0  0  0
    5.9156   -2.8754    1.8857 C   0  0  0  0  0  0  0  0  0  0  0  0
    5.2384   -3.7811    0.8520 C   0  0  0  0  0  0  0  0  0  0  0  0
    3.8115   -3.2886    0.4874 C   0  0  2  0  0  0  0  0  0  0  0  0
    2.9630   -3.2803    1.7299 C   0  0  0  0  0  0  0  0  0  0  0  0
    2.8839   -2.2402    2.6776 C   0  0  0  0  0  0  0  0  0  0  0  0
    2.0763   -2.4871    3.7975 C   0  0  0  0  0  0  0  0  0  0  0  0
    1.3900   -3.7222    3.9106 C   0  0  0  0  0  0  0  0  0  0  0  0
    1.4484   -4.6986    2.8800 C   0  0  0  0  0  0  0  0  0  0  0  0
    0.6725   -5.8253    2.9492 O   0  0  0  0  0  0  0  0  0  0  0  0
    2.2566   -4.4588    1.7389 C   0  0  0  0  0  0  0  0  0  0  0  0
    2.3759   -5.1845    0.5869 O   0  0  0  0  0  0  0  0  0  0  0  0
    3.0875   -4.3647   -0.3671 C   0  0  1  0  0  0  0  0  0  0  0  0
    2.0798   -3.7871   -1.3863 C   0  0  0  0  0  0  0  0  0  0  0  0
    2.6434   -3.2397   -2.7323 C   0  0  1  0  0  0  0  0  0  0  0  0
    1.5804   -2.8241   -3.3996 F   0  0  0  0  0  0  0  0  0  0  0  0
    3.7014   -2.1197   -2.7124 C   0  0  2  0  0  0  0  0  0  0  0  0
    3.6509   -1.2343   -3.9798 C   0  0  0  0  0  0  0  0  0  0  0  0
    3.7871    0.1423   -3.7033 O   0  0  0  0  0  0  0  0  0  0  0  0
    5.0898   -2.6080   -2.3260 C   0  0  0  0  0  0  0  0  0  0  0  0
    4.4044   -1.6005   -1.4496 C   0  0  2  0  0  0  0  0  0  0  0  0
    3.8697   -1.8427   -0.0434 C   0  0  2  0  0  0  0  0  0  0  0  0
    4.5208   -0.9750    1.0650 C   0  0  1  0  0  0  0  0  0  0  0  0
    3.5836   -0.9298    2.2971 C   0  0  0  0  0  0  0  0  0  0  0  0
    6.8800   -1.7071   -0.3932 H   0  0  0  0  0  0  0  0  0  0  0  0
    7.9377   -1.3005    0.9544 H   0  0  0  0  0  0  0  0  0  0  0  0
    6.8996   -0.0549    0.2465 H   0  0  0  0  0  0  0  0  0  0  0  0
    6.9484   -3.1975    2.0259 H   0  0  0  0  0  0  0  0  0  0  0  0
    5.4421   -2.9940    2.8611 H   0  0  0  0  0  0  0  0  0  0  0  0
    5.8869   -3.8406   -0.0223 H   0  0  0  0  0  0  0  0  0  0  0  0
    5.2023   -4.7982    1.2461 H   0  0  0  0  0  0  0  0  0  0  0  0
    1.9695   -1.7191    4.5504 H   0  0  0  0  0  0  0  0  0  0  0  0
    0.7702   -3.8905    4.7695 H   0  0  0  0  0  0  0  0  0  0  0  0
    3.8112   -5.0025   -0.8733 H   0  0  0  0  0  0  0  0  0  0  0  0
    1.3956   -4.5948   -1.6465 H   0  0  0  0  0  0  0  0  0  0  0  0
    1.4388   -3.0595   -0.9108 H   0  0  0  0  0  0  0  0  0  0  0  0
    3.0285   -4.0515   -3.3472 H   0  0  0  0  0  0  0  0  0  0  0  0
    4.4555   -1.5145   -4.6530 H   0  0  0  0  0  0  0  0  0  0  0  0
    2.7329   -1.3370   -4.5521 H   0  0  0  0  0  0  0  0  0  0  0  0
    3.0253    0.4339   -3.2166 H   0  0  0  0  0  0  0  0  0  0  0  0
    5.1716   -3.6489   -2.0153 H   0  0  0  0  0  0  0  0  0  0  0  0
    5.9256   -2.2620   -2.9206 H   0  0  0  0  0  0  0  0  0  0  0  0
    4.7793   -0.5823   -1.5402 H   0  0  0  0  0  0  0  0  0  0  0  0
    2.8475   -1.4762   -0.1140 H   0  0  0  0  0  0  0  0  0  0  0  0
    4.6291    0.0568    0.7103 H   0  0  0  0  0  0  0  0  0  0  0  0
    2.7947   -0.2070    2.0835 H   0  0  0  0  0  0  0  0  0  0  0  0
    4.1181   -0.5428    3.1653 H   0  0  0  0  0  0  0  0  0  0  0  0
    6.1002   -0.9279    2.3034 H   0  0  0  0  0  0  0  0  0  0  0  0
  1  2  1  0
  1 26  1  0
  1 27  1  0
  1 28  1  0
  2 24  1  0
  2  3  1  0
  2 49  1  1
  3  4  1  0
  3 29  1  0
  3 30  1  0
  5  4  1  1
  4 31  1  0
  4 32  1  0
  5 14  1  0
  5 23  1  0
  5  6  1  0
  6 12  2  0
  6  7  1  0
  7 25  1  0
  7  8  2  0
  8  9  1  0
  8 33  1  0
  9 10  2  0
  9 34  1  0
 10 11  1  0
 10 12  1  0
 12 13  1  0
 13 14  1  0
 14 15  1  0
 14 35  1  6
 15 16  1  0
 15 36  1  0
 15 37  1  0
 16 17  1  0
 16 18  1  0
 16 38  1  6
 18 22  1  0
 18 19  1  6
 18 21  1  0
 19 20  1  0
 19 39  1  0
 19 40  1  0
 20 41  1  0
 21 22  1  0
 21 42  1  0
 21 43  1  0
 22 23  1  0
 22 44  1  6
 23 24  1  0
 23 45  1  6
 24 25  1  0
 24 46  1  6
 25 47  1  0
 25 48  1  0
M  CHG  2   2   1  11  -1
M  END
>  <i_m_ct_stereo_status>  (334) 
1

>  <s_m_source_file>  (334) 
/var/tmp/pbs.5076255.sched01/tmpo_pg7vmn/129owyy42_r.sdf

>  <i_m_source_file_index>  (334) 
2

>  <i_lp_mmshare_version>  (334) 
48012

>  <i_f3d_flags>  (334) 
0

>  <s_epik_input>  (334) 
W0NIMl0xW0NIMl1OKFtDSDNdKVtDQEhdKFtDSDJdMilbQ0BIXTNbQ0BASF0oW0NIMl00KVtDQF00KFtDSDJdW09IXSlbQ0BIXShGKVtDSDJdW0NAQEhdNU9jNmMoW09IXSlbY0hdW2NIXWMyYzZbQ0BdMTM1

>  <s_epik_cmdline>  (334) 
J2VwaWtfcHl0aG9uJywgJy1waHQnLCAnMi4wJywgJy1waCcsICc3LjAnLCAnLXRuJywgJzgnLCAnLW1hJywgJzIwMCcsICctaW1hZScsICc8aW5maWxlLm1hZT4nLCAnLW9tYWUnLCAnPG91dGZpbGUubWFlPic=

>  <r_epik_Ionization_Penalty>  (334) 
2.42535

>  <r_epik_Ionization_Penalty_Charging>  (334) 
2.42535

>  <r_epik_Ionization_Penalty_Neutral>  (334) 
1.05049e-07

>  <r_epik_State_Penalty>  (334) 
2.58157

>  <r_epik_Charging_Adjusted_Penalty>  (334) 
5.00692

>  <i_epik_Tot_Q>  (334) 
0

>  <i_epik_Tot_abs_Q>  (334) 
2

>  <s_lp_Force_Field>  (334) 
OPLS3e

>  <r_lp_Energy>  (334) 
61.6883

>  <b_lp_Chiralities_Consistent>  (334) 
1

>  <s_lp_Variant>  (334) 
90:0-3

>  <s_i_glide_gridfile>  (334) 
pfpi4k_grid

>  <i_i_glide_lignum>  (334) 
2

>  <i_i_glide_rotatable_bonds>  (334) 
2

>  <r_i_docking_score>  (334) 
-2.95172

>  <r_i_glide_ligand_efficiency>  (334) 
-0.118069

>  <r_i_glide_ligand_efficiency_sa>  (334) 
-0.345235

>  <r_i_glide_ligand_efficiency_ln>  (334) 
-0.699645

>  <r_i_glide_gscore>  (334) 
-2.95172

>  <r_i_glide_lipo>  (334) 
-0.453634

>  <r_i_glide_hbond>  (334) 
-0.165484

>  <r_i_glide_metal>  (334) 
-0

>  <r_i_glide_rewards>  (334) 
-1.18714

>  <r_i_glide_evdw>  (334) 
-17.8286

>  <r_i_glide_ecoul>  (334) 
-2.75517

>  <r_i_glide_erotb>  (334) 
0.159249

>  <r_i_glide_esite>  (334) 
0

>  <r_i_glide_emodel>  (334) 
-23.5736

>  <r_i_glide_energy>  (334) 
-20.5838

>  <r_i_glide_einternal>  (334) 
4.0424

>  <r_i_glide_intrahb_reward>  (334) 
-0

>  <i_i_glide_confnum>  (334) 
5

>  <i_i_glide_posenum>  (334) 
31

>  <r_i_glide_eff_state_penalty>  (334) 
0

>  <ligand_id>  (334) 
90

>  <original_smiles>  (334) 
CN1CCC23c4c5ccc(O)c4OC2CC(F)C2(CO)CC2C3C1C5

>  <smiles>  (334) 
[H]OC([H])([H])C12C([H])([H])C1([H])C1([H])C34c5c(c([O-])c([H])c([H])c5C([H])([H])C1([H])[N+]([H])(C([H])([H])[H])C([H])([H])C3([H])[H])OC4([H])C([H])([H])C2([H])F

$$$$
90:2:2
     RDKit          3D

 49 54  0  0  1  0  0  0  0  0999 V2000
    8.0088   -2.9569   -0.3903 C   0  0  0  0  0  0  0  0  0  0  0  0
    7.1227   -2.8910    0.7850 N   0  0  2  0  0  0  0  0  0  0  0  0
    6.7561   -4.2220    1.3103 C   0  0  0  0  0  0  0  0  0  0  0  0
    5.5691   -4.8066    0.5497 C   0  0  0  0  0  0  0  0  0  0  0  0
    4.3766   -3.8207    0.4671 C   0  0  2  0  0  0  0  0  0  0  0  0
    3.8990   -3.4918    1.8598 C   0  0  0  0  0  0  0  0  0  0  0  0
    4.4450   -2.5111    2.7089 C   0  0  0  0  0  0  0  0  0  0  0  0
    3.8951   -2.4362    4.0020 C   0  0  0  0  0  0  0  0  0  0  0  0
    2.8486   -3.3237    4.3594 C   0  0  0  0  0  0  0  0  0  0  0  0
    2.2899   -4.2487    3.4198 C   0  0  0  0  0  0  0  0  0  0  0  0
    1.2253   -5.0402    3.7810 O   0  0  0  0  0  0  0  0  0  0  0  0
    2.8239   -4.3180    2.1152 C   0  0  0  0  0  0  0  0  0  0  0  0
    2.4235   -5.0546    1.0353 O   0  0  0  0  0  0  0  0  0  0  0  0
    3.1396   -4.5564   -0.1119 C   0  0  1  0  0  0  0  0  0  0  0  0
    2.1972   -3.6513   -0.9207 C   0  0  0  0  0  0  0  0  0  0  0  0
    2.5799   -3.3775   -2.3968 C   0  0  1  0  0  0  0  0  0  0  0  0
    1.6153   -2.6534   -2.9299 F   0  0  0  0  0  0  0  0  0  0  0  0
    3.9353   -2.7312   -2.7029 C   0  0  2  0  0  0  0  0  0  0  0  0
    3.8720   -1.8747   -3.9597 C   0  0  0  0  0  0  0  0  0  0  0  0
    3.3510   -0.5911   -3.7219 O   0  0  0  0  0  0  0  0  0  0  0  0
    5.1225   -3.6620   -2.6141 C   0  0  0  0  0  0  0  0  0  0  0  0
    5.0526   -2.4774   -1.6970 C   0  0  2  0  0  0  0  0  0  0  0  0
    4.8172   -2.4984   -0.1921 C   0  0  2  0  0  0  0  0  0  0  0  0
    5.9805   -1.9424    0.6633 C   0  0  1  0  0  0  0  0  0  0  0  0
    5.4517   -1.5579    2.0647 C   0  0  0  0  0  0  0  0  0  0  0  0
    7.5206   -3.4632   -1.2222 H   0  0  0  0  0  0  0  0  0  0  0  0
    8.9207   -3.5104   -0.1660 H   0  0  0  0  0  0  0  0  0  0  0  0
    8.3165   -1.9669   -0.7238 H   0  0  0  0  0  0  0  0  0  0  0  0
    7.6149   -4.8908    1.2678 H   0  0  0  0  0  0  0  0  0  0  0  0
    6.5184   -4.1637    2.3675 H   0  0  0  0  0  0  0  0  0  0  0  0
    5.9187   -5.1029   -0.4335 H   0  0  0  0  0  0  0  0  0  0  0  0
    5.2739   -5.7386    1.0291 H   0  0  0  0  0  0  0  0  0  0  0  0
    4.2642   -1.6842    4.7030 H   0  0  0  0  0  0  0  0  0  0  0  0
    2.4490   -3.2733    5.3493 H   0  0  0  0  0  0  0  0  0  0  0  0
    3.4175   -5.4195   -0.7092 H   0  0  0  0  0  0  0  0  0  0  0  0
    1.2416   -4.1631   -0.9805 H   0  0  0  0  0  0  0  0  0  0  0  0
    2.0015   -2.7339   -0.3636 H   0  0  0  0  0  0  0  0  0  0  0  0
    2.4656   -4.2481   -3.0216 H   0  0  0  0  0  0  0  0  0  0  0  0
    4.8748   -1.6875   -4.3179 H   0  0  0  0  0  0  0  0  0  0  0  0
    3.3166   -2.3871   -4.7447 H   0  0  0  0  0  0  0  0  0  0  0  0
    2.4799   -0.6882   -3.3700 H   0  0  0  0  0  0  0  0  0  0  0  0
    4.8931   -4.6533   -2.2396 H   0  0  0  0  0  0  0  0  0  0  0  0
    5.8557   -3.6128   -3.4181 H   0  0  0  0  0  0  0  0  0  0  0  0
    5.6655   -1.6298   -1.9985 H   0  0  0  0  0  0  0  0  0  0  0  0
    4.0094   -1.7762   -0.0594 H   0  0  0  0  0  0  0  0  0  0  0  0
    6.3660   -1.0220    0.2174 H   0  0  0  0  0  0  0  0  0  0  0  0
    4.9473   -0.5972    1.9710 H   0  0  0  0  0  0  0  0  0  0  0  0
    6.2718   -1.3876    2.7605 H   0  0  0  0  0  0  0  0  0  0  0  0
    7.7096   -2.4869    1.5054 H   0  0  0  0  0  0  0  0  0  0  0  0
  1  2  1  0
  1 26  1  0
  1 27  1  0
  1 28  1  0
  2 24  1  0
  2  3  1  0
  2 49  1  1
  3  4  1  0
  3 29  1  0
  3 30  1  0
  5  4  1  1
  4 31  1  0
  4 32  1  0
  5 14  1  0
  5 23  1  0
  5  6  1  0
  6 12  2  0
  6  7  1  0
  7 25  1  0
  7  8  2  0
  8  9  1  0
  8 33  1  0
  9 10  2  0
  9 34  1  0
 10 11  1  0
 10 12  1  0
 12 13  1  0
 13 14  1  0
 14 15  1  0
 14 35  1  6
 15 16  1  0
 15 36  1  0
 15 37  1  0
 16 17  1  0
 16 18  1  0
 16 38  1  6
 18 22  1  0
 18 19  1  6
 18 21  1  0
 19 20  1  0
 19 39  1  0
 19 40  1  0
 20 41  1  0
 21 22  1  0
 21 42  1  0
 21 43  1  0
 22 23  1  0
 22 44  1  6
 23 24  1  0
 23 45  1  6
 24 25  1  0
 24 46  1  6
 25 47  1  0
 25 48  1  0
M  CHG  2   2   1  11  -1
M  END
>  <i_m_ct_stereo_status>  (335) 
1

>  <s_m_source_file>  (335) 
/var/tmp/pbs.5076255.sched01/tmpo_pg7vmn/129owyy42_r.sdf

>  <i_m_source_file_index>  (335) 
2

>  <i_lp_mmshare_version>  (335) 
48012

>  <i_f3d_flags>  (335) 
0

>  <s_epik_input>  (335) 
W0NIMl0xW0NIMl1OKFtDSDNdKVtDQEhdKFtDSDJdMilbQ0BIXTNbQ0BASF0oW0NIMl00KVtDQF00KFtDSDJdW09IXSlbQ0BIXShGKVtDSDJdW0NAQEhdNU9jNmMoW09IXSlbY0hdW2NIXWMyYzZbQ0BdMTM1

>  <s_epik_cmdline>  (335) 
J2VwaWtfcHl0aG9uJywgJy1waHQnLCAnMi4wJywgJy1waCcsICc3LjAnLCAnLXRuJywgJzgnLCAnLW1hJywgJzIwMCcsICctaW1hZScsICc8aW5maWxlLm1hZT4nLCAnLW9tYWUnLCAnPG91dGZpbGUubWFlPic=

>  <r_epik_Ionization_Penalty>  (335) 
2.42535

>  <r_epik_Ionization_Penalty_Charging>  (335) 
2.42535

>  <r_epik_Ionization_Penalty_Neutral>  (335) 
1.05049e-07

>  <r_epik_State_Penalty>  (335) 
2.58157

>  <r_epik_Charging_Adjusted_Penalty>  (335) 
5.00692

>  <i_epik_Tot_Q>  (335) 
0

>  <i_epik_Tot_abs_Q>  (335) 
2

>  <s_lp_Force_Field>  (335) 
OPLS3e

>  <r_lp_Energy>  (335) 
61.6883

>  <b_lp_Chiralities_Consistent>  (335) 
1

>  <s_lp_Variant>  (335) 
90:0-3

>  <s_i_glide_gridfile>  (335) 
pfpi4k_grid

>  <i_i_glide_lignum>  (335) 
2

>  <i_i_glide_rotatable_bonds>  (335) 
2

>  <r_i_docking_score>  (335) 
-2.57744

>  <r_i_glide_ligand_efficiency>  (335) 
-0.103098

>  <r_i_glide_ligand_efficiency_sa>  (335) 
-0.301459

>  <r_i_glide_ligand_efficiency_ln>  (335) 
-0.610931

>  <r_i_glide_gscore>  (335) 
-2.57744

>  <r_i_glide_lipo>  (335) 
-0.802477

>  <r_i_glide_hbond>  (335) 
0

>  <r_i_glide_metal>  (335) 
-0

>  <r_i_glide_rewards>  (335) 
-1.06737

>  <r_i_glide_evdw>  (335) 
-18.3962

>  <r_i_glide_ecoul>  (335) 
0.353146

>  <r_i_glide_erotb>  (335) 
0.159249

>  <r_i_glide_esite>  (335) 
0

>  <r_i_glide_emodel>  (335) 
-22.4494

>  <r_i_glide_energy>  (335) 
-18.0431

>  <r_i_glide_einternal>  (335) 
0.0681341

>  <r_i_glide_intrahb_reward>  (335) 
-0

>  <i_i_glide_confnum>  (335) 
4

>  <i_i_glide_posenum>  (335) 
14

>  <r_i_glide_eff_state_penalty>  (335) 
0

>  <ligand_id>  (335) 
90

>  <original_smiles>  (335) 
CN1CCC23c4c5ccc(O)c4OC2CC(F)C2(CO)CC2C3C1C5

>  <smiles>  (335) 
[H]OC([H])([H])C12C([H])([H])C1([H])C1([H])C34c5c(c([O-])c([H])c([H])c5C([H])([H])C1([H])[N+]([H])(C([H])([H])[H])C([H])([H])C3([H])[H])OC4([H])C([H])([H])C2([H])F

$$$$
91:0:0
     RDKit          3D

 46 49  0  0  1  0  0  0  0  0999 V2000
    3.2985   -6.5663    2.1288 C   0  0  0  0  0  0  0  0  0  0  0  0
    4.1404   -5.2984    2.3745 C   0  0  2  0  0  0  0  0  0  0  0  0
    3.9089   -4.8014    3.8147 C   0  0  0  0  0  0  0  0  0  0  0  0
    4.7350   -3.5475    4.1254 C   0  0  0  0  0  0  0  0  0  0  0  0
    4.4750   -2.4024    3.1207 C   0  0  2  0  0  0  0  0  0  0  0  0
    3.0607   -1.7782    3.2996 C   0  0  1  0  0  0  0  0  0  0  0  0
    2.8973   -1.2562    4.6056 O   0  0  0  0  0  0  0  0  0  0  0  0
    2.8404   -0.6226    2.3219 C   0  0  0  0  0  0  0  0  0  0  0  0
    3.0235   -1.1100    0.8851 C   0  0  0  0  0  0  0  0  0  0  0  0
    4.4246   -1.7249    0.6646 C   0  0  2  0  0  0  0  0  0  0  0  0
    4.6842   -2.2365   -0.7794 C   0  0  2  0  0  0  0  0  0  0  0  0
    4.5055   -1.1318   -1.8396 C   0  0  0  0  0  0  0  0  0  0  0  0
    3.7850   -3.4501   -1.1070 C   0  0  0  0  0  0  0  0  0  0  0  0
    3.9534   -4.6128   -0.1137 C   0  0  0  0  0  0  0  0  0  0  0  0
    3.8645   -4.1506    1.3560 C   0  0  2  0  0  0  0  0  0  0  0  0
    4.7395   -2.8766    1.6510 C   0  0  2  0  0  0  0  0  0  0  0  0
    6.2597   -3.1372    1.4651 C   0  0  0  0  0  0  0  0  0  0  0  0
    6.7858   -3.2432    0.0159 C   0  0  0  0  0  0  0  0  0  0  0  0
    7.8689   -3.7913   -0.1785 O   0  0  0  0  0  0  0  0  0  0  0  0
    6.0467   -2.6363   -0.9345 O   0  0  0  0  0  0  0  0  0  0  0  0
    2.2311   -6.3446    2.1148 H   0  0  0  0  0  0  0  0  0  0  0  0
    3.4725   -7.3069    2.9120 H   0  0  0  0  0  0  0  0  0  0  0  0
    3.5612   -7.0450    1.1846 H   0  0  0  0  0  0  0  0  0  0  0  0
    5.1823   -5.6087    2.2960 H   0  0  0  0  0  0  0  0  0  0  0  0
    2.8502   -4.5908    3.9726 H   0  0  0  0  0  0  0  0  0  0  0  0
    4.1695   -5.5823    4.5299 H   0  0  0  0  0  0  0  0  0  0  0  0
    4.5400   -3.2152    5.1473 H   0  0  0  0  0  0  0  0  0  0  0  0
    5.7919   -3.8163    4.1108 H   0  0  0  0  0  0  0  0  0  0  0  0
    5.1848   -1.6120    3.3603 H   0  0  0  0  0  0  0  0  0  0  0  0
    2.2861   -2.5249    3.1412 H   0  0  0  0  0  0  0  0  0  0  0  0
    2.0209   -0.9299    4.6761 H   0  0  0  0  0  0  0  0  0  0  0  0
    1.8364   -0.2127    2.4396 H   0  0  0  0  0  0  0  0  0  0  0  0
    3.5380    0.1895    2.5343 H   0  0  0  0  0  0  0  0  0  0  0  0
    2.2394   -1.8325    0.6655 H   0  0  0  0  0  0  0  0  0  0  0  0
    2.8676   -0.2584    0.2256 H   0  0  0  0  0  0  0  0  0  0  0  0
    5.1270   -0.9095    0.8473 H   0  0  0  0  0  0  0  0  0  0  0  0
    3.4667   -0.8016   -1.9211 H   0  0  0  0  0  0  0  0  0  0  0  0
    4.8028   -1.4896   -2.8260 H   0  0  0  0  0  0  0  0  0  0  0  0
    5.1144   -0.2574   -1.6101 H   0  0  0  0  0  0  0  0  0  0  0  0
    2.7371   -3.1397   -1.1095 H   0  0  0  0  0  0  0  0  0  0  0  0
    3.9801   -3.8081   -2.1170 H   0  0  0  0  0  0  0  0  0  0  0  0
    3.1675   -5.3397   -0.3218 H   0  0  0  0  0  0  0  0  0  0  0  0
    4.8868   -5.1387   -0.3010 H   0  0  0  0  0  0  0  0  0  0  0  0
    2.8190   -3.8863    1.4935 H   0  0  0  0  0  0  0  0  0  0  0  0
    6.8006   -2.2915    1.8848 H   0  0  0  0  0  0  0  0  0  0  0  0
    6.5883   -4.0151    2.0166 H   0  0  0  0  0  0  0  0  0  0  0  0
  1  2  1  0
  1 21  1  0
  1 22  1  0
  1 23  1  0
  2 15  1  0
  2  3  1  0
  2 24  1  1
  3  4  1  0
  3 25  1  0
  3 26  1  0
  4  5  1  0
  4 27  1  0
  4 28  1  0
  5 16  1  0
  5  6  1  0
  5 29  1  1
  6  7  1  0
  6  8  1  0
  6 30  1  6
  7 31  1  0
  8  9  1  0
  8 32  1  0
  8 33  1  0
  9 10  1  0
  9 34  1  0
  9 35  1  0
 10 16  1  0
 10 11  1  0
 10 36  1  1
 11 20  1  0
 11 12  1  6
 11 13  1  0
 12 37  1  0
 12 38  1  0
 12 39  1  0
 13 14  1  0
 13 40  1  0
 13 41  1  0
 14 15  1  0
 14 42  1  0
 14 43  1  0
 15 16  1  0
 15 44  1  1
 16 17  1  1
 17 18  1  0
 17 45  1  0
 17 46  1  0
 18 19  2  0
 18 20  1  0
M  END
>  <i_m_ct_stereo_status>  (336) 
1

>  <s_m_source_file>  (336) 
/var/tmp/pbs.5076255.sched01/tmpo_pg7vmn/129owyy42_r.sdf

>  <i_m_source_file_index>  (336) 
3

>  <i_lp_mmshare_version>  (336) 
48012

>  <i_f3d_flags>  (336) 
0

>  <s_epik_input>  (336) 
W0NAQF0xMjNbQ0BASF00W0NIMl1bQ0gyXVtDQEBIXShbQ0gzXSlbQ0BASF0yW0NIMl1bQ0gyXVtDQF0oW0NIM10pKE9DKD1PKVtDSDJdMylbQ0BIXTFbQ0gyXVtDSDJdW0NAQEhdNFtPSF0=

>  <s_epik_cmdline>  (336) 
J2VwaWtfcHl0aG9uJywgJy1waHQnLCAnMi4wJywgJy1waCcsICc3LjAnLCAnLXRuJywgJzgnLCAnLW1hJywgJzIwMCcsICctaW1hZScsICc8aW5maWxlLm1hZT4nLCAnLW9tYWUnLCAnPG91dGZpbGUubWFlPic=

>  <r_lp_tautomer_probability>  (336) 
1

>  <r_epik_Ionization_Penalty>  (336) 
1.61183e-06

>  <r_epik_Ionization_Penalty_Charging>  (336) 
0

>  <r_epik_Ionization_Penalty_Neutral>  (336) 
1.61183e-06

>  <r_epik_State_Penalty>  (336) 
-0

>  <r_epik_Charging_Adjusted_Penalty>  (336) 
0

>  <i_epik_Tot_Q>  (336) 
0

>  <i_epik_Tot_abs_Q>  (336) 
0

>  <s_epik_Chemistry_Notes>  (336) 
This compound has an ester and may undergo hydrolysis at high or low pH.

>  <s_lp_Force_Field>  (336) 
OPLS3e

>  <r_lp_Energy>  (336) 
41.6405

>  <b_lp_Chiralities_Consistent>  (336) 
1

>  <s_lp_Variant>  (336) 
91:0-1

>  <s_i_glide_gridfile>  (336) 
pfpi4k_grid

>  <i_i_glide_lignum>  (336) 
3

>  <i_i_glide_rotatable_bonds>  (336) 
1

>  <r_i_docking_score>  (336) 
-3.16328

>  <r_i_glide_ligand_efficiency>  (336) 
-0.158164

>  <r_i_glide_ligand_efficiency_sa>  (336) 
-0.429324

>  <r_i_glide_ligand_efficiency_ln>  (336) 
-0.791666

>  <r_i_glide_gscore>  (336) 
-3.16328

>  <r_i_glide_lipo>  (336) 
-0.193271

>  <r_i_glide_hbond>  (336) 
0

>  <r_i_glide_metal>  (336) 
-0

>  <r_i_glide_rewards>  (336) 
-1.66688

>  <r_i_glide_evdw>  (336) 
-20.0749

>  <r_i_glide_ecoul>  (336) 
-1.99593

>  <r_i_glide_erotb>  (336) 
0

>  <r_i_glide_esite>  (336) 
0

>  <r_i_glide_emodel>  (336) 
-26.0763

>  <r_i_glide_energy>  (336) 
-22.0708

>  <r_i_glide_einternal>  (336) 
0.354855

>  <r_i_glide_intrahb_reward>  (336) 
-0

>  <i_i_glide_confnum>  (336) 
1

>  <i_i_glide_posenum>  (336) 
28

>  <r_i_glide_eff_state_penalty>  (336) 
0

>  <ligand_id>  (336) 
91

>  <original_smiles>  (336) 
CC1CCC2C(O)CCC3C4(C)CCC1C23CC(=O)O4

>  <smiles>  (336) 
[H]OC1([H])C([H])([H])C([H])([H])C2([H])C3(C([H])([H])[H])OC(=O)C([H])([H])C24C1([H])C([H])([H])C([H])([H])C([H])(C([H])([H])[H])C4([H])C([H])([H])C3([H])[H]

$$$$
91:0:1
     RDKit          3D

 46 49  0  0  1  0  0  0  0  0999 V2000
    3.2788   -6.5530    2.1373 C   0  0  0  0  0  0  0  0  0  0  0  0
    4.1275   -5.2882    2.3778 C   0  0  2  0  0  0  0  0  0  0  0  0
    3.9024   -4.7878    3.8174 C   0  0  0  0  0  0  0  0  0  0  0  0
    4.7359   -3.5381    4.1251 C   0  0  0  0  0  0  0  0  0  0  0  0
    4.4798   -2.3911    3.1221 C   0  0  2  0  0  0  0  0  0  0  0  0
    3.0657   -1.7628    3.3084 C   0  0  1  0  0  0  0  0  0  0  0  0
    2.8791   -1.2749    4.6289 O   0  0  0  0  0  0  0  0  0  0  0  0
    2.8519   -0.6060    2.3294 C   0  0  0  0  0  0  0  0  0  0  0  0
    3.0363   -1.1008    0.8931 C   0  0  0  0  0  0  0  0  0  0  0  0
    4.4261   -1.7200    0.6631 C   0  0  2  0  0  0  0  0  0  0  0  0
    4.6739   -2.2342   -0.7827 C   0  0  2  0  0  0  0  0  0  0  0  0
    4.4944   -1.1310   -1.8440 C   0  0  0  0  0  0  0  0  0  0  0  0
    3.7678   -3.4446   -1.1053 C   0  0  0  0  0  0  0  0  0  0  0  0
    3.9354   -4.6059   -0.1099 C   0  0  0  0  0  0  0  0  0  0  0  0
    3.8513   -4.1404    1.3586 C   0  0  2  0  0  0  0  0  0  0  0  0
    4.7346   -2.8698    1.6499 C   0  0  2  0  0  0  0  0  0  0  0  0
    6.2519   -3.1403    1.4587 C   0  0  0  0  0  0  0  0  0  0  0  0
    6.7727   -3.2497    0.0053 C   0  0  0  0  0  0  0  0  0  0  0  0
    7.8551   -3.8002   -0.1864 O   0  0  0  0  0  0  0  0  0  0  0  0
    6.0341   -2.6402   -0.9408 O   0  0  0  0  0  0  0  0  0  0  0  0
    2.2125   -6.3267    2.1271 H   0  0  0  0  0  0  0  0  0  0  0  0
    3.4529   -7.2925    2.9216 H   0  0  0  0  0  0  0  0  0  0  0  0
    3.5364   -7.0345    1.1930 H   0  0  0  0  0  0  0  0  0  0  0  0
    5.1668   -5.6037    2.2961 H   0  0  0  0  0  0  0  0  0  0  0  0
    2.8449   -4.5722    3.9785 H   0  0  0  0  0  0  0  0  0  0  0  0
    4.1623   -5.5685    4.5328 H   0  0  0  0  0  0  0  0  0  0  0  0
    4.5451   -3.2052    5.1470 H   0  0  0  0  0  0  0  0  0  0  0  0
    5.7910   -3.8134    4.1068 H   0  0  0  0  0  0  0  0  0  0  0  0
    5.1985   -1.6070    3.3544 H   0  0  0  0  0  0  0  0  0  0  0  0
    2.2956   -2.5085    3.1372 H   0  0  0  0  0  0  0  0  0  0  0  0
    3.4922   -0.5914    4.7851 H   0  0  0  0  0  0  0  0  0  0  0  0
    1.8464   -0.1993    2.4465 H   0  0  0  0  0  0  0  0  0  0  0  0
    3.5481    0.2089    2.5328 H   0  0  0  0  0  0  0  0  0  0  0  0
    2.2453   -1.8173    0.6750 H   0  0  0  0  0  0  0  0  0  0  0  0
    2.8748   -0.2549    0.2252 H   0  0  0  0  0  0  0  0  0  0  0  0
    5.1336   -0.9077    0.8391 H   0  0  0  0  0  0  0  0  0  0  0  0
    3.4564   -0.7973   -1.9227 H   0  0  0  0  0  0  0  0  0  0  0  0
    4.7868   -1.4923   -2.8308 H   0  0  0  0  0  0  0  0  0  0  0  0
    5.1074   -0.2585   -1.6182 H   0  0  0  0  0  0  0  0  0  0  0  0
    2.7212   -3.1305   -1.1041 H   0  0  0  0  0  0  0  0  0  0  0  0
    3.9581   -3.8058   -2.1151 H   0  0  0  0  0  0  0  0  0  0  0  0
    3.1448   -5.3294   -0.3161 H   0  0  0  0  0  0  0  0  0  0  0  0
    4.8650   -5.1369   -0.2997 H   0  0  0  0  0  0  0  0  0  0  0  0
    2.8079   -3.8730    1.4996 H   0  0  0  0  0  0  0  0  0  0  0  0
    6.7985   -2.2958    1.8715 H   0  0  0  0  0  0  0  0  0  0  0  0
    6.5798   -4.0177    2.0094 H   0  0  0  0  0  0  0  0  0  0  0  0
  1  2  1  0
  1 21  1  0
  1 22  1  0
  1 23  1  0
  2 15  1  0
  2  3  1  0
  2 24  1  1
  3  4  1  0
  3 25  1  0
  3 26  1  0
  4  5  1  0
  4 27  1  0
  4 28  1  0
  5 16  1  0
  5  6  1  0
  5 29  1  1
  6  7  1  0
  6  8  1  0
  6 30  1  6
  7 31  1  0
  8  9  1  0
  8 32  1  0
  8 33  1  0
  9 10  1  0
  9 34  1  0
  9 35  1  0
 10 16  1  0
 10 11  1  0
 10 36  1  1
 11 20  1  0
 11 12  1  6
 11 13  1  0
 12 37  1  0
 12 38  1  0
 12 39  1  0
 13 14  1  0
 13 40  1  0
 13 41  1  0
 14 15  1  0
 14 42  1  0
 14 43  1  0
 15 16  1  0
 15 44  1  1
 16 17  1  1
 17 18  1  0
 17 45  1  0
 17 46  1  0
 18 19  2  0
 18 20  1  0
M  END
>  <i_m_ct_stereo_status>  (337) 
1

>  <s_m_source_file>  (337) 
/var/tmp/pbs.5076255.sched01/tmpo_pg7vmn/129owyy42_r.sdf

>  <i_m_source_file_index>  (337) 
3

>  <i_lp_mmshare_version>  (337) 
48012

>  <i_f3d_flags>  (337) 
0

>  <s_epik_input>  (337) 
W0NAQF0xMjNbQ0BASF00W0NIMl1bQ0gyXVtDQEBIXShbQ0gzXSlbQ0BASF0yW0NIMl1bQ0gyXVtDQF0oW0NIM10pKE9DKD1PKVtDSDJdMylbQ0BIXTFbQ0gyXVtDSDJdW0NAQEhdNFtPSF0=

>  <s_epik_cmdline>  (337) 
J2VwaWtfcHl0aG9uJywgJy1waHQnLCAnMi4wJywgJy1waCcsICc3LjAnLCAnLXRuJywgJzgnLCAnLW1hJywgJzIwMCcsICctaW1hZScsICc8aW5maWxlLm1hZT4nLCAnLW9tYWUnLCAnPG91dGZpbGUubWFlPic=

>  <r_lp_tautomer_probability>  (337) 
1

>  <r_epik_Ionization_Penalty>  (337) 
1.61183e-06

>  <r_epik_Ionization_Penalty_Charging>  (337) 
0

>  <r_epik_Ionization_Penalty_Neutral>  (337) 
1.61183e-06

>  <r_epik_State_Penalty>  (337) 
-0

>  <r_epik_Charging_Adjusted_Penalty>  (337) 
0

>  <i_epik_Tot_Q>  (337) 
0

>  <i_epik_Tot_abs_Q>  (337) 
0

>  <s_epik_Chemistry_Notes>  (337) 
This compound has an ester and may undergo hydrolysis at high or low pH.

>  <s_lp_Force_Field>  (337) 
OPLS3e

>  <r_lp_Energy>  (337) 
41.6405

>  <b_lp_Chiralities_Consistent>  (337) 
1

>  <s_lp_Variant>  (337) 
91:0-1

>  <s_i_glide_gridfile>  (337) 
pfpi4k_grid

>  <i_i_glide_lignum>  (337) 
3

>  <i_i_glide_rotatable_bonds>  (337) 
1

>  <r_i_docking_score>  (337) 
-3.11572

>  <r_i_glide_ligand_efficiency>  (337) 
-0.155786

>  <r_i_glide_ligand_efficiency_sa>  (337) 
-0.422868

>  <r_i_glide_ligand_efficiency_ln>  (337) 
-0.779762

>  <r_i_glide_gscore>  (337) 
-3.11572

>  <r_i_glide_lipo>  (337) 
-0.196717

>  <r_i_glide_hbond>  (337) 
0

>  <r_i_glide_metal>  (337) 
-0

>  <r_i_glide_rewards>  (337) 
-1.66668

>  <r_i_glide_evdw>  (337) 
-20.1244

>  <r_i_glide_ecoul>  (337) 
-1.64068

>  <r_i_glide_erotb>  (337) 
0

>  <r_i_glide_esite>  (337) 
0

>  <r_i_glide_emodel>  (337) 
-25.8244

>  <r_i_glide_energy>  (337) 
-21.7651

>  <r_i_glide_einternal>  (337) 
0.0102283

>  <r_i_glide_intrahb_reward>  (337) 
-0

>  <i_i_glide_confnum>  (337) 
1

>  <i_i_glide_posenum>  (337) 
32

>  <r_i_glide_eff_state_penalty>  (337) 
0

>  <ligand_id>  (337) 
91

>  <original_smiles>  (337) 
CC1CCC2C(O)CCC3C4(C)CCC1C23CC(=O)O4

>  <smiles>  (337) 
[H]OC1([H])C([H])([H])C([H])([H])C2([H])C3(C([H])([H])[H])OC(=O)C([H])([H])C24C1([H])C([H])([H])C([H])([H])C([H])(C([H])([H])[H])C4([H])C([H])([H])C3([H])[H]

$$$$
91:0:2
     RDKit          3D

 46 49  0  0  1  0  0  0  0  0999 V2000
    3.3491   -6.1961    1.1402 C   0  0  0  0  0  0  0  0  0  0  0  0
    4.3515   -5.0645    1.3798 C   0  0  2  0  0  0  0  0  0  0  0  0
    4.3989   -4.7556    2.8853 C   0  0  0  0  0  0  0  0  0  0  0  0
    5.4169   -3.6532    3.1688 C   0  0  0  0  0  0  0  0  0  0  0  0
    5.1604   -2.3520    2.3926 C   0  0  2  0  0  0  0  0  0  0  0  0
    3.9093   -1.6219    2.9220 C   0  0  1  0  0  0  0  0  0  0  0  0
    4.0746   -1.2302    4.2824 O   0  0  0  0  0  0  0  0  0  0  0  0
    3.6575   -0.3392    2.1505 C   0  0  0  0  0  0  0  0  0  0  0  0
    3.5271   -0.6541    0.6582 C   0  0  0  0  0  0  0  0  0  0  0  0
    4.7717   -1.3486    0.0692 C   0  0  2  0  0  0  0  0  0  0  0  0
    4.7044   -1.7134   -1.4673 C   0  0  2  0  0  0  0  0  0  0  0  0
    4.4614   -0.5697   -2.4556 C   0  0  0  0  0  0  0  0  0  0  0  0
    3.6021   -2.7419   -1.7095 C   0  0  0  0  0  0  0  0  0  0  0  0
    3.8152   -4.0107   -0.9091 C   0  0  0  0  0  0  0  0  0  0  0  0
    4.0565   -3.7582    0.5877 C   0  0  2  0  0  0  0  0  0  0  0  0
    5.1130   -2.6267    0.8512 C   0  0  2  0  0  0  0  0  0  0  0  0
    6.5582   -2.9913    0.3899 C   0  0  0  0  0  0  0  0  0  0  0  0
    6.8506   -2.9281   -1.1267 C   0  0  0  0  0  0  0  0  0  0  0  0
    7.8773   -3.4608   -1.5593 O   0  0  0  0  0  0  0  0  0  0  0  0
    5.9718   -2.2348   -1.9104 O   0  0  0  0  0  0  0  0  0  0  0  0
    2.3359   -5.8666    1.3651 H   0  0  0  0  0  0  0  0  0  0  0  0
    3.5807   -7.0402    1.7857 H   0  0  0  0  0  0  0  0  0  0  0  0
    3.3953   -6.5484    0.1125 H   0  0  0  0  0  0  0  0  0  0  0  0
    5.3281   -5.4451    1.0663 H   0  0  0  0  0  0  0  0  0  0  0  0
    3.4110   -4.4890    3.2658 H   0  0  0  0  0  0  0  0  0  0  0  0
    4.7296   -5.6423    3.4233 H   0  0  0  0  0  0  0  0  0  0  0  0
    5.4969   -3.4633    4.2375 H   0  0  0  0  0  0  0  0  0  0  0  0
    6.3556   -4.0723    2.8792 H   0  0  0  0  0  0  0  0  0  0  0  0
    6.0000   -1.6906    2.5979 H   0  0  0  0  0  0  0  0  0  0  0  0
    3.0242   -2.2564    2.8499 H   0  0  0  0  0  0  0  0  0  0  0  0
    3.2749   -0.8578    4.5635 H   0  0  0  0  0  0  0  0  0  0  0  0
    2.7490    0.1516    2.4995 H   0  0  0  0  0  0  0  0  0  0  0  0
    4.4804    0.3559    2.3127 H   0  0  0  0  0  0  0  0  0  0  0  0
    2.6174   -1.2325    0.4943 H   0  0  0  0  0  0  0  0  0  0  0  0
    3.4637    0.2903    0.1602 H   0  0  0  0  0  0  0  0  0  0  0  0
    5.5763   -0.6278    0.2174 H   0  0  0  0  0  0  0  0  0  0  0  0
    3.4558   -0.1146   -2.3747 H   0  0  0  0  0  0  0  0  0  0  0  0
    4.5955   -0.9229   -3.4895 H   0  0  0  0  0  0  0  0  0  0  0  0
    5.2502    0.1658   -2.3302 H   0  0  0  0  0  0  0  0  0  0  0  0
    2.6181   -2.3226   -1.4795 H   0  0  0  0  0  0  0  0  0  0  0  0
    3.5788   -2.9785   -2.7699 H   0  0  0  0  0  0  0  0  0  0  0  0
    2.9116   -4.6033   -1.0152 H   0  0  0  0  0  0  0  0  0  0  0  0
    4.6385   -4.5891   -1.3270 H   0  0  0  0  0  0  0  0  0  0  0  0
    3.0874   -3.4118    0.9595 H   0  0  0  0  0  0  0  0  0  0  0  0
    7.2623   -2.2818    0.8026 H   0  0  0  0  0  0  0  0  0  0  0  0
    6.8549   -3.9820    0.6841 H   0  0  0  0  0  0  0  0  0  0  0  0
  1  2  1  0
  1 21  1  0
  1 22  1  0
  1 23  1  0
  2 15  1  0
  2  3  1  0
  2 24  1  6
  3  4  1  0
  3 25  1  0
  3 26  1  0
  4  5  1  0
  4 27  1  0
  4 28  1  0
  5 16  1  0
  5  6  1  0
  5 29  1  6
  6  7  1  0
  6  8  1  0
  6 30  1  1
  7 31  1  0
  8  9  1  0
  8 32  1  0
  8 33  1  0
  9 10  1  0
  9 34  1  0
  9 35  1  0
 10 16  1  0
 10 11  1  0
 10 36  1  6
 11 20  1  0
 11 12  1  6
 11 13  1  0
 12 37  1  0
 12 38  1  0
 12 39  1  0
 13 14  1  0
 13 40  1  0
 13 41  1  0
 14 15  1  0
 14 42  1  0
 14 43  1  0
 15 16  1  0
 15 44  1  1
 16 17  1  6
 17 18  1  0
 17 45  1  0
 17 46  1  0
 18 19  2  0
 18 20  1  0
M  END
>  <i_m_ct_stereo_status>  (338) 
1

>  <s_m_source_file>  (338) 
/var/tmp/pbs.5076255.sched01/tmpo_pg7vmn/129owyy42_r.sdf

>  <i_m_source_file_index>  (338) 
3

>  <i_lp_mmshare_version>  (338) 
48012

>  <i_f3d_flags>  (338) 
0

>  <s_epik_input>  (338) 
W0NAQF0xMjNbQ0BASF00W0NIMl1bQ0gyXVtDQEBIXShbQ0gzXSlbQ0BASF0yW0NIMl1bQ0gyXVtDQF0oW0NIM10pKE9DKD1PKVtDSDJdMylbQ0BIXTFbQ0gyXVtDSDJdW0NAQEhdNFtPSF0=

>  <s_epik_cmdline>  (338) 
J2VwaWtfcHl0aG9uJywgJy1waHQnLCAnMi4wJywgJy1waCcsICc3LjAnLCAnLXRuJywgJzgnLCAnLW1hJywgJzIwMCcsICctaW1hZScsICc8aW5maWxlLm1hZT4nLCAnLW9tYWUnLCAnPG91dGZpbGUubWFlPic=

>  <r_lp_tautomer_probability>  (338) 
1

>  <r_epik_Ionization_Penalty>  (338) 
1.61183e-06

>  <r_epik_Ionization_Penalty_Charging>  (338) 
0

>  <r_epik_Ionization_Penalty_Neutral>  (338) 
1.61183e-06

>  <r_epik_State_Penalty>  (338) 
-0

>  <r_epik_Charging_Adjusted_Penalty>  (338) 
0

>  <i_epik_Tot_Q>  (338) 
0

>  <i_epik_Tot_abs_Q>  (338) 
0

>  <s_epik_Chemistry_Notes>  (338) 
This compound has an ester and may undergo hydrolysis at high or low pH.

>  <s_lp_Force_Field>  (338) 
OPLS3e

>  <r_lp_Energy>  (338) 
41.6405

>  <b_lp_Chiralities_Consistent>  (338) 
1

>  <s_lp_Variant>  (338) 
91:0-1

>  <s_i_glide_gridfile>  (338) 
pfpi4k_grid

>  <i_i_glide_lignum>  (338) 
3

>  <i_i_glide_rotatable_bonds>  (338) 
1

>  <r_i_docking_score>  (338) 
-2.85588

>  <r_i_glide_ligand_efficiency>  (338) 
-0.142794

>  <r_i_glide_ligand_efficiency_sa>  (338) 
-0.387602

>  <r_i_glide_ligand_efficiency_ln>  (338) 
-0.714731

>  <r_i_glide_gscore>  (338) 
-2.85588

>  <r_i_glide_lipo>  (338) 
-0.330778

>  <r_i_glide_hbond>  (338) 
-0.00553739

>  <r_i_glide_metal>  (338) 
-0

>  <r_i_glide_rewards>  (338) 
-1.511

>  <r_i_glide_evdw>  (338) 
-17.3279

>  <r_i_glide_ecoul>  (338) 
-0.944096

>  <r_i_glide_erotb>  (338) 
0

>  <r_i_glide_esite>  (338) 
-0.000550263

>  <r_i_glide_emodel>  (338) 
-20.4193

>  <r_i_glide_energy>  (338) 
-18.272

>  <r_i_glide_einternal>  (338) 
0.398882

>  <r_i_glide_intrahb_reward>  (338) 
-0

>  <i_i_glide_confnum>  (338) 
1

>  <i_i_glide_posenum>  (338) 
7

>  <r_i_glide_eff_state_penalty>  (338) 
0

>  <ligand_id>  (338) 
91

>  <original_smiles>  (338) 
CC1CCC2C(O)CCC3C4(C)CCC1C23CC(=O)O4

>  <smiles>  (338) 
[H]OC1([H])C([H])([H])C([H])([H])C2([H])C3(C([H])([H])[H])OC(=O)C([H])([H])C24C1([H])C([H])([H])C([H])([H])C([H])(C([H])([H])[H])C4([H])C([H])([H])C3([H])[H]

$$$$
92:0:0
     RDKit          3D

 86 93  0  0  1  0  0  0  0  0999 V2000
    2.6779  -10.2718    2.2207 C   0  0  0  0  0  0  0  0  0  0  0  0
    2.2823   -8.9162    2.8531 C   0  0  0  0  0  0  0  0  0  0  0  0
    0.7361   -8.9638    2.9423 C   0  0  0  0  0  0  0  0  0  0  0  0
    2.8098   -8.7823    4.3178 C   0  0  0  0  0  0  0  0  0  0  0  0
    4.1670   -8.0620    4.4733 C   0  0  0  0  0  0  0  0  0  0  0  0
    4.4510   -6.9254    3.4517 C   0  0  1  0  0  0  0  0  0  0  0  0
    4.3101   -7.4215    1.9915 C   0  0  2  0  0  0  0  0  0  0  0  0
    5.2323   -8.6176    1.6388 C   0  0  0  0  0  0  0  0  0  0  0  0
    4.7112   -6.2845    0.9804 C   0  0  0  0  0  0  0  0  0  0  0  0
    4.1000   -4.8740    1.2098 C   0  0  0  0  0  0  0  0  0  0  0  0
    4.0072   -4.4690    2.7252 C   0  0  2  0  0  0  0  0  0  0  0  0
    5.5183   -4.1425    3.0287 C   0  0  0  0  0  0  0  0  0  0  0  0
    3.4225   -5.7511    3.4625 C   0  0  2  0  0  0  0  0  0  0  0  0
    2.9134   -5.5338    4.7895 O   0  0  0  0  0  0  0  0  0  0  0  0
    3.0477   -4.2936    5.4101 C   0  0  1  0  0  0  0  0  0  0  0  0
    4.3506   -4.0884    5.8768 O   0  0  0  0  0  0  0  0  0  0  0  0
    2.4285   -3.1635    4.5051 C   0  0  1  0  0  0  0  0  0  0  0  0
    0.8941   -3.4878    4.5539 C   0  0  0  0  0  0  0  0  0  0  0  0
    2.7396   -1.7523    5.1188 C   0  0  2  0  0  0  0  0  0  0  0  0
    1.5749   -0.9355    5.8366 C   0  0  1  0  0  0  0  0  0  0  0  0
    2.1324   -0.2281    6.9228 O   0  0  0  0  0  0  0  0  0  0  0  0
    0.7862    0.1208    5.0015 C   0  0  0  0  0  0  0  0  0  0  0  0
    1.7585    0.7641    4.0377 C   0  0  2  0  0  0  0  0  0  0  0  0
    1.5171    1.7722    2.9135 C   0  0  0  0  0  0  0  0  0  0  0  0
    0.1496    1.7230    2.2261 C   0  0  0  0  0  0  0  0  0  0  0  0
    1.8087    3.2433    3.2329 C   0  0  0  0  0  0  0  0  0  0  0  0
    2.7287    1.0385    2.2672 C   0  0  0  0  0  0  0  0  0  0  0  0
    2.4345   -0.2284    3.0888 C   0  0  2  0  0  0  0  0  0  0  0  0
    1.5678   -1.2167    2.2789 C   0  0  0  0  0  0  0  0  0  0  0  0
    2.2257   -2.5706    1.9435 C   0  0  1  0  0  0  0  0  0  0  0  0
    2.8941   -2.3292    0.7160 O   0  0  0  0  0  0  0  0  0  0  0  0
    3.1356   -3.1546    3.0662 C   0  0  2  0  0  0  0  0  0  0  0  0
    4.0342   -2.0605    3.2035 O   0  0  0  0  0  0  0  0  0  0  0  0
    3.4559   -1.0113    3.9533 C   0  0  2  0  0  0  0  0  0  0  0  0
    4.6880   -0.2048    4.4105 C   0  0  0  0  0  0  0  0  0  0  0  0
    2.2997   -6.4093    2.6297 C   0  0  0  0  0  0  0  0  0  0  0  0
    1.1933   -5.9007    2.3811 O   0  0  0  0  0  0  0  0  0  0  0  0
    2.7751   -7.7029    1.9843 C   0  0  2  0  0  0  0  0  0  0  0  0
    1.9911  -11.0731    2.5042 H   0  0  0  0  0  0  0  0  0  0  0  0
    3.6525  -10.6384    2.5214 H   0  0  0  0  0  0  0  0  0  0  0  0
    2.6602  -10.2221    1.1277 H   0  0  0  0  0  0  0  0  0  0  0  0
    0.3181   -8.1162    3.4831 H   0  0  0  0  0  0  0  0  0  0  0  0
    0.3927   -9.8485    3.4805 H   0  0  0  0  0  0  0  0  0  0  0  0
    0.2700   -8.9822    1.9513 H   0  0  0  0  0  0  0  0  0  0  0  0
    2.0770   -8.2371    4.9194 H   0  0  0  0  0  0  0  0  0  0  0  0
    2.8703   -9.7649    4.7746 H   0  0  0  0  0  0  0  0  0  0  0  0
    4.2148   -7.6637    5.4839 H   0  0  0  0  0  0  0  0  0  0  0  0
    4.9701   -8.8005    4.4500 H   0  0  0  0  0  0  0  0  0  0  0  0
    5.4709   -6.6089    3.6735 H   0  0  0  0  0  0  0  0  0  0  0  0
    4.9085   -9.1046    0.7162 H   0  0  0  0  0  0  0  0  0  0  0  0
    5.2915   -9.3758    2.4101 H   0  0  0  0  0  0  0  0  0  0  0  0
    6.2645   -8.2936    1.4903 H   0  0  0  0  0  0  0  0  0  0  0  0
    5.7985   -6.1741    0.9810 H   0  0  0  0  0  0  0  0  0  0  0  0
    4.4694   -6.6004   -0.0359 H   0  0  0  0  0  0  0  0  0  0  0  0
    4.7024   -4.1525    0.6592 H   0  0  0  0  0  0  0  0  0  0  0  0
    3.1249   -4.8412    0.7222 H   0  0  0  0  0  0  0  0  0  0  0  0
    5.7485   -3.8413    4.0466 H   0  0  0  0  0  0  0  0  0  0  0  0
    5.8685   -3.3097    2.4117 H   0  0  0  0  0  0  0  0  0  0  0  0
    6.2194   -4.9321    2.7797 H   0  0  0  0  0  0  0  0  0  0  0  0
    2.4687   -4.3911    6.3346 H   0  0  0  0  0  0  0  0  0  0  0  0
    4.5697   -4.8025    6.4696 H   0  0  0  0  0  0  0  0  0  0  0  0
    0.2367   -2.7389    4.1467 H   0  0  0  0  0  0  0  0  0  0  0  0
    0.5557   -3.6094    5.5832 H   0  0  0  0  0  0  0  0  0  0  0  0
    0.6279   -4.4204    4.0830 H   0  0  0  0  0  0  0  0  0  0  0  0
    3.4950   -1.8887    5.8984 H   0  0  0  0  0  0  0  0  0  0  0  0
    0.8674   -1.6000    6.3212 H   0  0  0  0  0  0  0  0  0  0  0  0
    2.7871    0.3701    6.5933 H   0  0  0  0  0  0  0  0  0  0  0  0
   -0.0353   -0.3501    4.4774 H   0  0  0  0  0  0  0  0  0  0  0  0
    0.3175    0.8651    5.6476 H   0  0  0  0  0  0  0  0  0  0  0  0
    2.5124    1.2575    4.6374 H   0  0  0  0  0  0  0  0  0  0  0  0
    0.1861    2.1365    1.2207 H   0  0  0  0  0  0  0  0  0  0  0  0
   -0.5949    2.2881    2.7920 H   0  0  0  0  0  0  0  0  0  0  0  0
   -0.2428    0.7135    2.1394 H   0  0  0  0  0  0  0  0  0  0  0  0
    1.8082    3.8594    2.3330 H   0  0  0  0  0  0  0  0  0  0  0  0
    2.7932    3.3666    3.6787 H   0  0  0  0  0  0  0  0  0  0  0  0
    1.0848    3.6618    3.9326 H   0  0  0  0  0  0  0  0  0  0  0  0
    2.6380    0.9176    1.1899 H   0  0  0  0  0  0  0  0  0  0  0  0
    3.6849    1.4751    2.5309 H   0  0  0  0  0  0  0  0  0  0  0  0
    0.6178   -1.3769    2.7500 H   0  0  0  0  0  0  0  0  0  0  0  0
    1.2538   -0.7630    1.3416 H   0  0  0  0  0  0  0  0  0  0  0  0
    1.4421   -3.2882    1.7513 H   0  0  0  0  0  0  0  0  0  0  0  0
    2.3082   -1.8530    0.1320 H   0  0  0  0  0  0  0  0  0  0  0  0
    4.4491    0.6078    5.0946 H   0  0  0  0  0  0  0  0  0  0  0  0
    5.2175    0.2216    3.5590 H   0  0  0  0  0  0  0  0  0  0  0  0
    5.3977   -0.8497    4.9261 H   0  0  0  0  0  0  0  0  0  0  0  0
    2.3917   -7.7732    0.9624 H   0  0  0  0  0  0  0  0  0  0  0  0
  1  2  1  0
  1 39  1  0
  1 40  1  0
  1 41  1  0
  2 38  1  0
  2  3  1  0
  2  4  1  0
  3 42  1  0
  3 43  1  0
  3 44  1  0
  4  5  1  0
  4 45  1  0
  4 46  1  0
  5  6  1  0
  5 47  1  0
  5 48  1  0
  6 13  1  0
  6  7  1  0
  6 49  1  6
  7 38  1  0
  7  8  1  1
  7  9  1  0
  8 50  1  0
  8 51  1  0
  8 52  1  0
  9 10  1  0
  9 53  1  0
  9 54  1  0
 10 11  1  0
 10 55  1  0
 10 56  1  0
 11 32  1  0
 11 12  1  1
 11 13  1  0
 12 57  1  0
 12 58  1  0
 12 59  1  0
 13 14  1  1
 13 36  1  0
 14 15  1  0
 15 16  1  0
 15 17  1  0
 15 60  1  1
 16 61  1  0
 17 32  1  0
 17 18  1  6
 17 19  1  0
 18 62  1  0
 18 63  1  0
 18 64  1  0
 19 34  1  0
 19 20  1  0
 19 65  1  1
 20 21  1  0
 20 22  1  0
 20 66  1  1
 21 67  1  0
 22 23  1  0
 22 68  1  0
 22 69  1  0
 23 28  1  0
 23 24  1  0
 23 70  1  1
 24 25  1  0
 24 26  1  0
 24 27  1  0
 25 71  1  0
 25 72  1  0
 25 73  1  0
 26 74  1  0
 26 75  1  0
 26 76  1  0
 28 27  1  6
 27 77  1  0
 27 78  1  0
 28 34  1  0
 28 29  1  0
 29 30  1  0
 29 79  1  0
 29 80  1  0
 30 31  1  0
 30 32  1  0
 30 81  1  6
 31 82  1  0
 32 33  1  1
 33 34  1  0
 34 35  1  1
 35 83  1  0
 35 84  1  0
 35 85  1  0
 36 37  2  0
 36 38  1  0
 38 86  1  6
M  END
>  <i_m_ct_stereo_status>  (339) 
1

>  <s_m_source_file>  (339) 
/var/tmp/pbs.5076255.sched01/tmpo_pg7vmn/129owyy42_r.sdf

>  <i_m_source_file_index>  (339) 
4

>  <i_lp_mmshare_version>  (339) 
48012

>  <i_f3d_flags>  (339) 
0

>  <s_epik_input>  (339) 
W0NIMl0xW0NIMl1DKFtDSDNdKShbQ0gzXSlbQ0BASF0oQzI9TylbQ0BAXShbQ0BIXTFbQ0BdMjM0KShbQ0gzXSlbQ0gyXVtDSDJdW0NAQF0zKFtDSDNdKVtDQF01NltDQEBdKFtDSDNdKShbQ0BASF0oTzQpW09IXSlbQ0BIXTdbQ0BdKE82KShbQ0gzXSlbQ0BAXTgoW0NIMl1bQ0BIXTVbT0hdKVtDQEBIXShDKFtDSDNdKShbQ0gzXSlbQ0gyXTgpW0NIMl1bQ0BASF03W09IXQ==

>  <s_epik_cmdline>  (339) 
J2VwaWtfcHl0aG9uJywgJy1waHQnLCAnMi4wJywgJy1waCcsICc3LjAnLCAnLXRuJywgJzgnLCAnLW1hJywgJzIwMCcsICctaW1hZScsICc8aW5maWxlLm1hZT4nLCAnLW9tYWUnLCAnPG91dGZpbGUubWFlPic=

>  <r_lp_tautomer_probability>  (339) 
1

>  <r_epik_Ionization_Penalty>  (339) 
4.51384e-07

>  <r_epik_Ionization_Penalty_Charging>  (339) 
0

>  <r_epik_Ionization_Penalty_Neutral>  (339) 
4.51384e-07

>  <r_epik_State_Penalty>  (339) 
-0

>  <r_epik_Charging_Adjusted_Penalty>  (339) 
0

>  <i_epik_Tot_Q>  (339) 
0

>  <i_epik_Tot_abs_Q>  (339) 
0

>  <s_epik_Chemistry_Notes>  (339) 
This compound contains an acetal/aminal-like group ( X-CH(R)-Y where X, Y are N, S, or O) that may be acid/base labile, releasing an aldehyde.

>  <s_lp_Force_Field>  (339) 
OPLS3e

>  <r_lp_Energy>  (339) 
151.463

>  <b_lp_Chiralities_Consistent>  (339) 
1

>  <s_lp_Variant>  (339) 
92:0-1

>  <s_i_glide_gridfile>  (339) 
pfpi4k_grid

>  <i_i_glide_lignum>  (339) 
4

>  <i_i_glide_rotatable_bonds>  (339) 
3

>  <r_i_docking_score>  (339) 
-2.15602

>  <r_i_glide_ligand_efficiency>  (339) 
-0.0567374

>  <r_i_glide_ligand_efficiency_sa>  (339) 
-0.19075

>  <r_i_glide_ligand_efficiency_ln>  (339) 
-0.464902

>  <r_i_glide_gscore>  (339) 
-2.15602

>  <r_i_glide_lipo>  (339) 
-0.274668

>  <r_i_glide_hbond>  (339) 
-0.00275558

>  <r_i_glide_metal>  (339) 
-0

>  <r_i_glide_rewards>  (339) 
0

>  <r_i_glide_evdw>  (339) 
-21.6082

>  <r_i_glide_ecoul>  (339) 
-5.27153

>  <r_i_glide_erotb>  (339) 
0

>  <r_i_glide_esite>  (339) 
-0.00746001

>  <r_i_glide_emodel>  (339) 
-29.8699

>  <r_i_glide_energy>  (339) 
-26.8797

>  <r_i_glide_einternal>  (339) 
0.848431

>  <r_i_glide_intrahb_reward>  (339) 
-0

>  <i_i_glide_confnum>  (339) 
2

>  <i_i_glide_posenum>  (339) 
31

>  <r_i_glide_eff_state_penalty>  (339) 
0

>  <ligand_id>  (339) 
92

>  <original_smiles>  (339) 
CC1(C)CCC2C3(C)CCC4(C)C2(OC(O)C2(C)C5C(O)CC6C(C)(C)CC67CC(O)C24OC57C)C(=O)C13

>  <smiles>  (339) 
[H]OC1([H])OC23C(=O)C4([H])C(C([H])([H])[H])(C([H])([H])[H])C([H])([H])C([H])([H])C2([H])C4(C([H])([H])[H])C([H])([H])C([H])([H])C3(C([H])([H])[H])C23OC4(C([H])([H])[H])C([H])(C([H])(O[H])C([H])([H])C5([H])C(C([H])([H])[H])(C([H])([H])[H])C([H])([H])C54C([H])([H])C2([H])O[H])C13C([H])([H])[H]

$$$$
92:0:1
     RDKit          3D

 86 93  0  0  1  0  0  0  0  0999 V2000
    5.1764   -0.6152   -1.6747 C   0  0  0  0  0  0  0  0  0  0  0  0
    5.1620   -2.0859   -1.2700 C   0  0  0  0  0  0  0  0  0  0  0  0
    4.7912   -2.8205   -2.5767 C   0  0  0  0  0  0  0  0  0  0  0  0
    6.5693   -2.5750   -0.8260 C   0  0  0  0  0  0  0  0  0  0  0  0
    6.8600   -2.4994    0.6906 C   0  0  0  0  0  0  0  0  0  0  0  0
    5.6394   -2.7384    1.6274 C   0  0  1  0  0  0  0  0  0  0  0  0
    4.4724   -1.7769    1.2897 C   0  0  2  0  0  0  0  0  0  0  0  0
    4.8444   -0.2719    1.3948 C   0  0  0  0  0  0  0  0  0  0  0  0
    3.2838   -1.9669    2.3082 C   0  0  0  0  0  0  0  0  0  0  0  0
    2.8102   -3.4227    2.5917 C   0  0  0  0  0  0  0  0  0  0  0  0
    3.9863   -4.4610    2.6719 C   0  0  2  0  0  0  0  0  0  0  0  0
    4.5808   -4.1153    4.0919 C   0  0  0  0  0  0  0  0  0  0  0  0
    4.9443   -4.1236    1.4457 C   0  0  2  0  0  0  0  0  0  0  0  0
    5.8935   -5.1327    1.0845 O   0  0  0  0  0  0  0  0  0  0  0  0
    6.0309   -6.2807    1.8486 C   0  0  1  0  0  0  0  0  0  0  0  0
    6.7545   -6.0251    3.0248 O   0  0  0  0  0  0  0  0  0  0  0  0
    4.6380   -7.0071    2.0170 C   0  0  1  0  0  0  0  0  0  0  0  0
    4.3486   -7.5324    0.5766 C   0  0  0  0  0  0  0  0  0  0  0  0
    4.7766   -8.1926    3.0412 C   0  0  2  0  0  0  0  0  0  0  0  0
    4.7837   -9.6949    2.5126 C   0  0  1  0  0  0  0  0  0  0  0  0
    5.6581  -10.4403    3.3320 O   0  0  0  0  0  0  0  0  0  0  0  0
    3.4391  -10.4789    2.4994 C   0  0  0  0  0  0  0  0  0  0  0  0
    2.6354  -10.0387    3.6912 C   0  0  2  0  0  0  0  0  0  0  0  0
    1.2102  -10.3875    4.1031 C   0  0  0  0  0  0  0  0  0  0  0  0
    0.2250  -10.7072    2.9815 C   0  0  0  0  0  0  0  0  0  0  0  0
    1.0820  -11.4749    5.1422 C   0  0  0  0  0  0  0  0  0  0  0  0
    1.2458   -8.9708    4.7395 C   0  0  0  0  0  0  0  0  0  0  0  0
    2.3393   -8.5427    3.7399 C   0  0  2  0  0  0  0  0  0  0  0  0
    1.7137   -7.8624    2.4918 C   0  0  0  0  0  0  0  0  0  0  0  0
    2.0939   -6.3829    2.2599 C   0  0  1  0  0  0  0  0  0  0  0  0
    1.1366   -5.6935    3.0429 O   0  0  0  0  0  0  0  0  0  0  0  0
    3.5626   -6.0169    2.6612 C   0  0  2  0  0  0  0  0  0  0  0  0
    3.5284   -6.4588    4.0125 O   0  0  0  0  0  0  0  0  0  0  0  0
    3.6793   -7.8563    4.0969 C   0  0  2  0  0  0  0  0  0  0  0  0
    4.1667   -8.0800    5.5489 C   0  0  0  0  0  0  0  0  0  0  0  0
    4.0860   -3.8144    0.1976 C   0  0  0  0  0  0  0  0  0  0  0  0
    3.2871   -4.5929   -0.2932 O   0  0  0  0  0  0  0  0  0  0  0  0
    4.1110   -2.3223   -0.1297 C   0  0  2  0  0  0  0  0  0  0  0  0
    5.4400   -0.4387   -2.7178 H   0  0  0  0  0  0  0  0  0  0  0  0
    5.8604   -0.0793   -1.0483 H   0  0  0  0  0  0  0  0  0  0  0  0
    4.2086   -0.1434   -1.5752 H   0  0  0  0  0  0  0  0  0  0  0  0
    4.8463   -3.9045   -2.4645 H   0  0  0  0  0  0  0  0  0  0  0  0
    5.4868   -2.5651   -3.3781 H   0  0  0  0  0  0  0  0  0  0  0  0
    3.7857   -2.5592   -2.9152 H   0  0  0  0  0  0  0  0  0  0  0  0
    6.7020   -3.6042   -1.1439 H   0  0  0  0  0  0  0  0  0  0  0  0
    7.3445   -2.0283   -1.3591 H   0  0  0  0  0  0  0  0  0  0  0  0
    7.6311   -3.2369    0.9152 H   0  0  0  0  0  0  0  0  0  0  0  0
    7.3316   -1.5477    0.9249 H   0  0  0  0  0  0  0  0  0  0  0  0
    6.0191   -2.5717    2.6322 H   0  0  0  0  0  0  0  0  0  0  0  0
    4.1019    0.3547    0.8938 H   0  0  0  0  0  0  0  0  0  0  0  0
    5.8217   -0.0267    0.9918 H   0  0  0  0  0  0  0  0  0  0  0  0
    4.8984    0.0516    2.4366 H   0  0  0  0  0  0  0  0  0  0  0  0
    3.5631   -1.5236    3.2658 H   0  0  0  0  0  0  0  0  0  0  0  0
    2.4215   -1.3841    1.9666 H   0  0  0  0  0  0  0  0  0  0  0  0
    2.2344   -3.4147    3.5178 H   0  0  0  0  0  0  0  0  0  0  0  0
    2.0810   -3.6941    1.8302 H   0  0  0  0  0  0  0  0  0  0  0  0
    5.4461   -4.6929    4.3917 H   0  0  0  0  0  0  0  0  0  0  0  0
    3.8379   -4.2876    4.8738 H   0  0  0  0  0  0  0  0  0  0  0  0
    4.8423   -3.0699    4.2299 H   0  0  0  0  0  0  0  0  0  0  0  0
    6.7086   -6.9284    1.2825 H   0  0  0  0  0  0  0  0  0  0  0  0
    7.6474   -5.8031    2.7773 H   0  0  0  0  0  0  0  0  0  0  0  0
    3.5338   -8.2256    0.4893 H   0  0  0  0  0  0  0  0  0  0  0  0
    5.1886   -8.0995    0.1936 H   0  0  0  0  0  0  0  0  0  0  0  0
    4.1895   -6.7568   -0.1565 H   0  0  0  0  0  0  0  0  0  0  0  0
    5.7323   -8.0880    3.5490 H   0  0  0  0  0  0  0  0  0  0  0  0
    5.2409   -9.7796    1.5284 H   0  0  0  0  0  0  0  0  0  0  0  0
    5.6715  -11.3267    3.0090 H   0  0  0  0  0  0  0  0  0  0  0  0
    2.9065  -10.2950    1.5735 H   0  0  0  0  0  0  0  0  0  0  0  0
    3.6011  -11.5565    2.5213 H   0  0  0  0  0  0  0  0  0  0  0  0
    3.2233  -10.3175    4.5680 H   0  0  0  0  0  0  0  0  0  0  0  0
   -0.8029  -10.5401    3.2895 H   0  0  0  0  0  0  0  0  0  0  0  0
    0.3232  -11.7509    2.6739 H   0  0  0  0  0  0  0  0  0  0  0  0
    0.3939  -10.1164    2.0826 H   0  0  0  0  0  0  0  0  0  0  0  0
    0.0846  -11.5293    5.5771 H   0  0  0  0  0  0  0  0  0  0  0  0
    1.7719  -11.2334    5.9507 H   0  0  0  0  0  0  0  0  0  0  0  0
    1.3447  -12.4654    4.7712 H   0  0  0  0  0  0  0  0  0  0  0  0
    0.2966   -8.4387    4.6538 H   0  0  0  0  0  0  0  0  0  0  0  0
    1.5838   -8.9830    5.7774 H   0  0  0  0  0  0  0  0  0  0  0  0
    1.9082   -8.4366    1.5994 H   0  0  0  0  0  0  0  0  0  0  0  0
    0.6247   -7.9241    2.5377 H   0  0  0  0  0  0  0  0  0  0  0  0
    1.9076   -6.1326    1.2150 H   0  0  0  0  0  0  0  0  0  0  0  0
    1.3302   -5.9000    3.9458 H   0  0  0  0  0  0  0  0  0  0  0  0
    4.4249   -9.1167    5.7641 H   0  0  0  0  0  0  0  0  0  0  0  0
    3.4160   -7.7620    6.2695 H   0  0  0  0  0  0  0  0  0  0  0  0
    5.0664   -7.4928    5.7449 H   0  0  0  0  0  0  0  0  0  0  0  0
    3.1227   -1.9833   -0.4349 H   0  0  0  0  0  0  0  0  0  0  0  0
  1  2  1  0
  1 39  1  0
  1 40  1  0
  1 41  1  0
  2 38  1  0
  2  3  1  0
  2  4  1  0
  3 42  1  0
  3 43  1  0
  3 44  1  0
  4  5  1  0
  4 45  1  0
  4 46  1  0
  5  6  1  0
  5 47  1  0
  5 48  1  0
  6 13  1  0
  6  7  1  0
  6 49  1  1
  7 38  1  0
  7  8  1  6
  7  9  1  0
  8 50  1  0
  8 51  1  0
  8 52  1  0
  9 10  1  0
  9 53  1  0
  9 54  1  0
 10 11  1  0
 10 55  1  0
 10 56  1  0
 11 32  1  0
 11 12  1  1
 11 13  1  0
 12 57  1  0
 12 58  1  0
 12 59  1  0
 13 14  1  6
 13 36  1  0
 14 15  1  0
 15 16  1  0
 15 17  1  0
 15 60  1  6
 16 61  1  0
 17 32  1  0
 17 18  1  6
 17 19  1  0
 18 62  1  0
 18 63  1  0
 18 64  1  0
 19 34  1  0
 19 20  1  0
 19 65  1  1
 20 21  1  0
 20 22  1  0
 20 66  1  6
 21 67  1  0
 22 23  1  0
 22 68  1  0
 22 69  1  0
 23 28  1  0
 23 24  1  0
 23 70  1  1
 24 25  1  0
 24 26  1  0
 24 27  1  0
 25 71  1  0
 25 72  1  0
 25 73  1  0
 26 74  1  0
 26 75  1  0
 26 76  1  0
 28 27  1  1
 27 77  1  0
 27 78  1  0
 28 34  1  0
 28 29  1  0
 29 30  1  0
 29 79  1  0
 29 80  1  0
 30 31  1  0
 30 32  1  0
 30 81  1  6
 31 82  1  0
 32 33  1  1
 33 34  1  0
 34 35  1  1
 35 83  1  0
 35 84  1  0
 35 85  1  0
 36 37  2  0
 36 38  1  0
 38 86  1  6
M  END
>  <i_m_ct_stereo_status>  (340) 
1

>  <s_m_source_file>  (340) 
/var/tmp/pbs.5076255.sched01/tmpo_pg7vmn/129owyy42_r.sdf

>  <i_m_source_file_index>  (340) 
4

>  <i_lp_mmshare_version>  (340) 
48012

>  <i_f3d_flags>  (340) 
0

>  <s_epik_input>  (340) 
W0NIMl0xW0NIMl1DKFtDSDNdKShbQ0gzXSlbQ0BASF0oQzI9TylbQ0BAXShbQ0BIXTFbQ0BdMjM0KShbQ0gzXSlbQ0gyXVtDSDJdW0NAQF0zKFtDSDNdKVtDQF01NltDQEBdKFtDSDNdKShbQ0BASF0oTzQpW09IXSlbQ0BIXTdbQ0BdKE82KShbQ0gzXSlbQ0BAXTgoW0NIMl1bQ0BIXTVbT0hdKVtDQEBIXShDKFtDSDNdKShbQ0gzXSlbQ0gyXTgpW0NIMl1bQ0BASF03W09IXQ==

>  <s_epik_cmdline>  (340) 
J2VwaWtfcHl0aG9uJywgJy1waHQnLCAnMi4wJywgJy1waCcsICc3LjAnLCAnLXRuJywgJzgnLCAnLW1hJywgJzIwMCcsICctaW1hZScsICc8aW5maWxlLm1hZT4nLCAnLW9tYWUnLCAnPG91dGZpbGUubWFlPic=

>  <r_lp_tautomer_probability>  (340) 
1

>  <r_epik_Ionization_Penalty>  (340) 
4.51384e-07

>  <r_epik_Ionization_Penalty_Charging>  (340) 
0

>  <r_epik_Ionization_Penalty_Neutral>  (340) 
4.51384e-07

>  <r_epik_State_Penalty>  (340) 
-0

>  <r_epik_Charging_Adjusted_Penalty>  (340) 
0

>  <i_epik_Tot_Q>  (340) 
0

>  <i_epik_Tot_abs_Q>  (340) 
0

>  <s_epik_Chemistry_Notes>  (340) 
This compound contains an acetal/aminal-like group ( X-CH(R)-Y where X, Y are N, S, or O) that may be acid/base labile, releasing an aldehyde.

>  <s_lp_Force_Field>  (340) 
OPLS3e

>  <r_lp_Energy>  (340) 
151.463

>  <b_lp_Chiralities_Consistent>  (340) 
1

>  <s_lp_Variant>  (340) 
92:0-1

>  <s_i_glide_gridfile>  (340) 
pfpi4k_grid

>  <i_i_glide_lignum>  (340) 
4

>  <i_i_glide_rotatable_bonds>  (340) 
3

>  <r_i_docking_score>  (340) 
-2.02806

>  <r_i_glide_ligand_efficiency>  (340) 
-0.0533701

>  <r_i_glide_ligand_efficiency_sa>  (340) 
-0.179429

>  <r_i_glide_ligand_efficiency_ln>  (340) 
-0.43731

>  <r_i_glide_gscore>  (340) 
-2.02806

>  <r_i_glide_lipo>  (340) 
-0.643522

>  <r_i_glide_hbond>  (340) 
0

>  <r_i_glide_metal>  (340) 
-0

>  <r_i_glide_rewards>  (340) 
-0.101092

>  <r_i_glide_evdw>  (340) 
-24.4964

>  <r_i_glide_ecoul>  (340) 
-0.390855

>  <r_i_glide_erotb>  (340) 
0

>  <r_i_glide_esite>  (340) 
0

>  <r_i_glide_emodel>  (340) 
-27.3844

>  <r_i_glide_energy>  (340) 
-24.8873

>  <r_i_glide_einternal>  (340) 
0.838629

>  <r_i_glide_intrahb_reward>  (340) 
-0

>  <i_i_glide_confnum>  (340) 
1

>  <i_i_glide_posenum>  (340) 
9

>  <r_i_glide_eff_state_penalty>  (340) 
0

>  <ligand_id>  (340) 
92

>  <original_smiles>  (340) 
CC1(C)CCC2C3(C)CCC4(C)C2(OC(O)C2(C)C5C(O)CC6C(C)(C)CC67CC(O)C24OC57C)C(=O)C13

>  <smiles>  (340) 
[H]OC1([H])OC23C(=O)C4([H])C(C([H])([H])[H])(C([H])([H])[H])C([H])([H])C([H])([H])C2([H])C4(C([H])([H])[H])C([H])([H])C([H])([H])C3(C([H])([H])[H])C23OC4(C([H])([H])[H])C([H])(C([H])(O[H])C([H])([H])C5([H])C(C([H])([H])[H])(C([H])([H])[H])C([H])([H])C54C([H])([H])C2([H])O[H])C13C([H])([H])[H]

$$$$
92:0:2
     RDKit          3D

 86 93  0  0  1  0  0  0  0  0999 V2000
    2.0943  -10.3753    2.9254 C   0  0  0  0  0  0  0  0  0  0  0  0
    1.6234   -8.9866    3.4271 C   0  0  0  0  0  0  0  0  0  0  0  0
    0.1088   -8.9486    3.1040 C   0  0  0  0  0  0  0  0  0  0  0  0
    1.7498   -8.8475    4.9793 C   0  0  0  0  0  0  0  0  0  0  0  0
    3.0555   -8.1972    5.4850 C   0  0  0  0  0  0  0  0  0  0  0  0
    3.6613   -7.0979    4.5706 C   0  0  1  0  0  0  0  0  0  0  0  0
    3.8843   -7.6145    3.1281 C   0  0  2  0  0  0  0  0  0  0  0  0
    4.7991   -8.8628    3.0393 C   0  0  0  0  0  0  0  0  0  0  0  0
    4.6031   -6.5192    2.2569 C   0  0  0  0  0  0  0  0  0  0  0  0
    4.0340   -5.0751    2.3098 C   0  0  0  0  0  0  0  0  0  0  0  0
    3.5653   -4.6378    3.7443 C   0  0  2  0  0  0  0  0  0  0  0  0
    4.9665   -4.3832    4.4326 C   0  0  0  0  0  0  0  0  0  0  0  0
    2.7327   -5.8737    4.3000 C   0  0  2  0  0  0  0  0  0  0  0  0
    1.8990   -5.5978    5.4403 O   0  0  0  0  0  0  0  0  0  0  0  0
    1.9447   -4.3548    6.0749 C   0  0  1  0  0  0  0  0  0  0  0  0
    3.0942   -4.2140    6.8499 O   0  0  0  0  0  0  0  0  0  0  0  0
    1.6511   -3.2106    5.0307 C   0  0  1  0  0  0  0  0  0  0  0  0
    0.1472   -3.4513    4.6793 C   0  0  0  0  0  0  0  0  0  0  0  0
    1.8679   -1.8094    5.7004 C   0  0  2  0  0  0  0  0  0  0  0  0
    0.6024   -0.9185    6.0781 C   0  0  1  0  0  0  0  0  0  0  0  0
    0.8807   -0.2258    7.2746 O   0  0  0  0  0  0  0  0  0  0  0  0
    0.1277    0.1636    5.0604 C   0  0  0  0  0  0  0  0  0  0  0  0
    1.3570    0.7345    4.3848 C   0  0  2  0  0  0  0  0  0  0  0  0
    1.4784    1.7337    3.2339 C   0  0  0  0  0  0  0  0  0  0  0  0
    0.3379    1.7424    2.2155 C   0  0  0  0  0  0  0  0  0  0  0  0
    1.7502    3.1935    3.6100 C   0  0  0  0  0  0  0  0  0  0  0  0
    2.7817    0.9323    2.9360 C   0  0  0  0  0  0  0  0  0  0  0  0
    2.2051   -0.3086    3.6526 C   0  0  2  0  0  0  0  0  0  0  0  0
    1.5232   -1.2654    2.6467 C   0  0  0  0  0  0  0  0  0  0  0  0
    2.1593   -2.6663    2.5026 C   0  0  1  0  0  0  0  0  0  0  0  0
    3.1470   -2.4892    1.5045 O   0  0  0  0  0  0  0  0  0  0  0  0
    2.7081   -3.2740    3.8300 C   0  0  2  0  0  0  0  0  0  0  0  0
    3.6006   -2.2323    4.2032 O   0  0  0  0  0  0  0  0  0  0  0  0
    2.9085   -1.1328    4.7636 C   0  0  2  0  0  0  0  0  0  0  0  0
    4.0179   -0.3836    5.5261 C   0  0  0  0  0  0  0  0  0  0  0  0
    1.8406   -6.4893    3.2019 C   0  0  0  0  0  0  0  0  0  0  0  0
    0.8621   -5.9296    2.6762 O   0  0  0  0  0  0  0  0  0  0  0  0
    2.3949   -7.8175    2.7119 C   0  0  2  0  0  0  0  0  0  0  0  0
    1.3115  -11.1366    3.0100 H   0  0  0  0  0  0  0  0  0  0  0  0
    2.9293  -10.7857    3.4812 H   0  0  0  0  0  0  0  0  0  0  0  0
    2.3814  -10.3346    1.8690 H   0  0  0  0  0  0  0  0  0  0  0  0
   -0.3881   -8.0687    3.5097 H   0  0  0  0  0  0  0  0  0  0  0  0
   -0.4151   -9.8017    3.5376 H   0  0  0  0  0  0  0  0  0  0  0  0
   -0.0790   -8.9615    2.0237 H   0  0  0  0  0  0  0  0  0  0  0  0
    0.9134   -8.2537    5.3615 H   0  0  0  0  0  0  0  0  0  0  0  0
    1.6354   -9.8226    5.4403 H   0  0  0  0  0  0  0  0  0  0  0  0
    2.8578   -7.7820    6.4690 H   0  0  0  0  0  0  0  0  0  0  0  0
    3.7929   -8.9786    5.6789 H   0  0  0  0  0  0  0  0  0  0  0  0
    4.6048   -6.8310    5.0533 H   0  0  0  0  0  0  0  0  0  0  0  0
    4.7058   -9.3479    2.0647 H   0  0  0  0  0  0  0  0  0  0  0  0
    4.6097   -9.6089    3.8011 H   0  0  0  0  0  0  0  0  0  0  0  0
    5.8504   -8.5956    3.1678 H   0  0  0  0  0  0  0  0  0  0  0  0
    5.6564   -6.4667    2.5448 H   0  0  0  0  0  0  0  0  0  0  0  0
    4.6219   -6.8414    1.2151 H   0  0  0  0  0  0  0  0  0  0  0  0
    4.8011   -4.3984    1.9356 H   0  0  0  0  0  0  0  0  0  0  0  0
    3.2265   -4.9996    1.5800 H   0  0  0  0  0  0  0  0  0  0  0  0
    4.9668   -4.0659    5.4727 H   0  0  0  0  0  0  0  0  0  0  0  0
    5.5112   -3.5849    3.9179 H   0  0  0  0  0  0  0  0  0  0  0  0
    5.6622   -5.2143    4.3769 H   0  0  0  0  0  0  0  0  0  0  0  0
    1.1460   -4.4041    6.8211 H   0  0  0  0  0  0  0  0  0  0  0  0
    3.8302   -4.1387    6.2621 H   0  0  0  0  0  0  0  0  0  0  0  0
   -0.3342   -2.6762    4.1061 H   0  0  0  0  0  0  0  0  0  0  0  0
   -0.4561   -3.5356    5.5839 H   0  0  0  0  0  0  0  0  0  0  0  0
   -0.0272   -4.3816    4.1646 H   0  0  0  0  0  0  0  0  0  0  0  0
    2.3786   -1.9699    6.6561 H   0  0  0  0  0  0  0  0  0  0  0  0
   -0.2436   -1.5348    6.3566 H   0  0  0  0  0  0  0  0  0  0  0  0
    1.6383    0.3243    7.1388 H   0  0  0  0  0  0  0  0  0  0  0  0
   -0.5524   -0.2705    4.3406 H   0  0  0  0  0  0  0  0  0  0  0  0
   -0.4524    0.9441    5.5552 H   0  0  0  0  0  0  0  0  0  0  0  0
    1.9529    1.1979    5.1590 H   0  0  0  0  0  0  0  0  0  0  0  0
    0.6599    2.1398    1.2615 H   0  0  0  0  0  0  0  0  0  0  0  0
   -0.4962    2.3555    2.5600 H   0  0  0  0  0  0  0  0  0  0  0  0
   -0.0729    0.7577    2.0239 H   0  0  0  0  0  0  0  0  0  0  0  0
    2.0089    3.7912    2.7344 H   0  0  0  0  0  0  0  0  0  0  0  0
    2.5876    3.2777    4.3005 H   0  0  0  0  0  0  0  0  0  0  0  0
    0.8918    3.6611    4.0933 H   0  0  0  0  0  0  0  0  0  0  0  0
    2.9626    0.7959    1.8725 H   0  0  0  0  0  0  0  0  0  0  0  0
    3.6620    1.3511    3.4239 H   0  0  0  0  0  0  0  0  0  0  0  0
    0.4751   -1.3608    2.8553 H   0  0  0  0  0  0  0  0  0  0  0  0
    1.4860   -0.8188    1.6546 H   0  0  0  0  0  0  0  0  0  0  0  0
    1.4215   -3.3467    2.0866 H   0  0  0  0  0  0  0  0  0  0  0  0
    2.7557   -2.0489    0.7595 H   0  0  0  0  0  0  0  0  0  0  0  0
    3.6530    0.4545    6.1192 H   0  0  0  0  0  0  0  0  0  0  0  0
    4.7759   -0.0002    4.8421 H   0  0  0  0  0  0  0  0  0  0  0  0
    4.5303   -1.0525    6.2160 H   0  0  0  0  0  0  0  0  0  0  0  0
    2.2941   -7.8867    1.6245 H   0  0  0  0  0  0  0  0  0  0  0  0
  1  2  1  0
  1 39  1  0
  1 40  1  0
  1 41  1  0
  2 38  1  0
  2  3  1  0
  2  4  1  0
  3 42  1  0
  3 43  1  0
  3 44  1  0
  4  5  1  0
  4 45  1  0
  4 46  1  0
  5  6  1  0
  5 47  1  0
  5 48  1  0
  6 13  1  0
  6  7  1  0
  6 49  1  1
  7 38  1  0
  7  8  1  1
  7  9  1  0
  8 50  1  0
  8 51  1  0
  8 52  1  0
  9 10  1  0
  9 53  1  0
  9 54  1  0
 10 11  1  0
 10 55  1  0
 10 56  1  0
 11 32  1  0
 11 12  1  1
 11 13  1  0
 12 57  1  0
 12 58  1  0
 12 59  1  0
 13 14  1  1
 13 36  1  0
 14 15  1  0
 15 16  1  0
 15 17  1  0
 15 60  1  1
 16 61  1  0
 17 32  1  0
 17 18  1  6
 17 19  1  0
 18 62  1  0
 18 63  1  0
 18 64  1  0
 19 34  1  0
 19 20  1  0
 19 65  1  1
 20 21  1  0
 20 22  1  0
 20 66  1  1
 21 67  1  0
 22 23  1  0
 22 68  1  0
 22 69  1  0
 23 28  1  0
 23 24  1  0
 23 70  1  1
 24 25  1  0
 24 26  1  0
 24 27  1  0
 25 71  1  0
 25 72  1  0
 25 73  1  0
 26 74  1  0
 26 75  1  0
 26 76  1  0
 28 27  1  6
 27 77  1  0
 27 78  1  0
 28 34  1  0
 28 29  1  0
 29 30  1  0
 29 79  1  0
 29 80  1  0
 30 31  1  0
 30 32  1  0
 30 81  1  6
 31 82  1  0
 32 33  1  1
 33 34  1  0
 34 35  1  1
 35 83  1  0
 35 84  1  0
 35 85  1  0
 36 37  2  0
 36 38  1  0
 38 86  1  6
M  END
>  <i_m_ct_stereo_status>  (341) 
1

>  <s_m_source_file>  (341) 
/var/tmp/pbs.5076255.sched01/tmpo_pg7vmn/129owyy42_r.sdf

>  <i_m_source_file_index>  (341) 
4

>  <i_lp_mmshare_version>  (341) 
48012

>  <i_f3d_flags>  (341) 
0

>  <s_epik_input>  (341) 
W0NIMl0xW0NIMl1DKFtDSDNdKShbQ0gzXSlbQ0BASF0oQzI9TylbQ0BAXShbQ0BIXTFbQ0BdMjM0KShbQ0gzXSlbQ0gyXVtDSDJdW0NAQF0zKFtDSDNdKVtDQF01NltDQEBdKFtDSDNdKShbQ0BASF0oTzQpW09IXSlbQ0BIXTdbQ0BdKE82KShbQ0gzXSlbQ0BAXTgoW0NIMl1bQ0BIXTVbT0hdKVtDQEBIXShDKFtDSDNdKShbQ0gzXSlbQ0gyXTgpW0NIMl1bQ0BASF03W09IXQ==

>  <s_epik_cmdline>  (341) 
J2VwaWtfcHl0aG9uJywgJy1waHQnLCAnMi4wJywgJy1waCcsICc3LjAnLCAnLXRuJywgJzgnLCAnLW1hJywgJzIwMCcsICctaW1hZScsICc8aW5maWxlLm1hZT4nLCAnLW9tYWUnLCAnPG91dGZpbGUubWFlPic=

>  <r_lp_tautomer_probability>  (341) 
1

>  <r_epik_Ionization_Penalty>  (341) 
4.51384e-07

>  <r_epik_Ionization_Penalty_Charging>  (341) 
0

>  <r_epik_Ionization_Penalty_Neutral>  (341) 
4.51384e-07

>  <r_epik_State_Penalty>  (341) 
-0

>  <r_epik_Charging_Adjusted_Penalty>  (341) 
0

>  <i_epik_Tot_Q>  (341) 
0

>  <i_epik_Tot_abs_Q>  (341) 
0

>  <s_epik_Chemistry_Notes>  (341) 
This compound contains an acetal/aminal-like group ( X-CH(R)-Y where X, Y are N, S, or O) that may be acid/base labile, releasing an aldehyde.

>  <s_lp_Force_Field>  (341) 
OPLS3e

>  <r_lp_Energy>  (341) 
151.463

>  <b_lp_Chiralities_Consistent>  (341) 
1

>  <s_lp_Variant>  (341) 
92:0-1

>  <s_i_glide_gridfile>  (341) 
pfpi4k_grid

>  <i_i_glide_lignum>  (341) 
4

>  <i_i_glide_rotatable_bonds>  (341) 
3

>  <r_i_docking_score>  (341) 
-1.83581

>  <r_i_glide_ligand_efficiency>  (341) 
-0.0483107

>  <r_i_glide_ligand_efficiency_sa>  (341) 
-0.162419

>  <r_i_glide_ligand_efficiency_ln>  (341) 
-0.395854

>  <r_i_glide_gscore>  (341) 
-1.83581

>  <r_i_glide_lipo>  (341) 
-0.0872368

>  <r_i_glide_hbond>  (341) 
0

>  <r_i_glide_metal>  (341) 
-0

>  <r_i_glide_rewards>  (341) 
0

>  <r_i_glide_evdw>  (341) 
-20.9355

>  <r_i_glide_ecoul>  (341) 
-4.61496

>  <r_i_glide_erotb>  (341) 
0

>  <r_i_glide_esite>  (341) 
-0.00955234

>  <r_i_glide_emodel>  (341) 
-28.1951

>  <r_i_glide_energy>  (341) 
-25.5504

>  <r_i_glide_einternal>  (341) 
0.369357

>  <r_i_glide_intrahb_reward>  (341) 
-0

>  <i_i_glide_confnum>  (341) 
2

>  <i_i_glide_posenum>  (341) 
23

>  <r_i_glide_eff_state_penalty>  (341) 
0

>  <ligand_id>  (341) 
92

>  <original_smiles>  (341) 
CC1(C)CCC2C3(C)CCC4(C)C2(OC(O)C2(C)C5C(O)CC6C(C)(C)CC67CC(O)C24OC57C)C(=O)C13

>  <smiles>  (341) 
[H]OC1([H])OC23C(=O)C4([H])C(C([H])([H])[H])(C([H])([H])[H])C([H])([H])C([H])([H])C2([H])C4(C([H])([H])[H])C([H])([H])C([H])([H])C3(C([H])([H])[H])C23OC4(C([H])([H])[H])C([H])(C([H])(O[H])C([H])([H])C5([H])C(C([H])([H])[H])(C([H])([H])[H])C([H])([H])C54C([H])([H])C2([H])O[H])C13C([H])([H])[H]

$$$$
93:0:0
     RDKit          3D

 92100  0  0  1  0  0  0  0  0999 V2000
   -2.4397    4.7623    9.9300 C   0  0  0  0  0  0  0  0  0  0  0  0
   -1.5069    4.1834    9.1532 C   0  0  0  0  0  0  0  0  0  0  0  0
   -0.6887    4.9159    8.2060 C   0  0  0  0  0  0  0  0  0  0  0  0
   -0.8612    6.0751    7.8117 O   0  0  0  0  0  0  0  0  0  0  0  0
    0.2692    4.0993    7.7789 O   0  0  0  0  0  0  0  0  0  0  0  0
    0.3347    2.8271    8.4212 C   0  0  2  0  0  0  0  0  0  0  0  0
   -1.0055    2.7652    9.1905 C   0  0  2  0  0  0  0  0  0  0  0  0
   -1.8769    1.9687    8.4048 O   0  0  0  0  0  0  0  0  0  0  0  0
   -0.9161    2.1242   10.5818 C   0  0  0  0  0  0  0  0  0  0  0  0
    0.0558    0.9438   10.5060 C   0  0  0  0  0  0  0  0  0  0  0  0
    1.5453    1.2490   10.0975 C   0  0  1  0  0  0  0  0  0  0  0  0
    2.2975    1.3440   11.4783 C   0  0  0  0  0  0  0  0  0  0  0  0
    1.9856   -0.0922    9.3300 C   0  0  2  0  0  0  0  0  0  0  0  0
    3.1773   -1.0383    9.7519 C   0  0  0  0  0  0  0  0  0  0  0  0
    4.4653   -0.5384    9.0373 C   0  0  0  0  0  0  0  0  0  0  0  0
    3.8056    0.7277    8.5993 C   0  0  2  0  0  0  0  0  0  0  0  0
    2.5375    0.3550    8.1641 O   0  0  0  0  0  0  0  0  0  0  0  0
    4.1650    1.9683    7.9070 C   0  0  1  0  0  0  0  0  0  0  0  0
    4.1450    2.3282    6.3984 C   0  0  1  0  0  0  0  0  0  0  0  0
    4.3196    1.2651    5.2039 C   0  0  1  0  0  0  0  0  0  0  0  0
    4.3773   -0.1992    5.6369 C   0  0  0  0  0  0  0  0  0  0  0  0
    3.6059    1.4097    3.8042 C   0  0  0  0  0  0  0  0  0  0  0  0
    2.3082    0.6799    3.5645 N   0  0  2  0  0  0  0  0  0  0  0  0
    2.1817    0.1986    2.1652 C   0  0  0  0  0  0  0  0  0  0  0  0
    3.0226   -1.0726    1.9139 C   0  0  0  0  0  0  0  0  0  0  0  0
    1.0415    1.2507    4.1587 C   0  0  1  0  0  0  0  0  0  0  0  0
    1.4311    1.6824    5.5283 C   0  0  0  0  0  0  0  0  0  0  0  0
    1.9262    2.9280    5.6885 C   0  0  0  0  0  0  0  0  0  0  0  0
    1.7751    4.0316    4.6872 C   0  0  2  0  0  0  0  0  0  0  0  0
    2.0096    5.1988    5.4300 O   0  0  0  0  0  0  0  0  0  0  0  0
    3.1402    4.9161    6.2825 C   0  0  1  0  0  0  0  0  0  0  0  0
    4.3717    5.2628    5.4079 C   0  0  0  0  0  0  0  0  0  0  0  0
    3.0022    5.9607    7.4260 C   0  0  0  0  0  0  0  0  0  0  0  0
    4.2341    6.2530    8.3293 C   0  0  0  0  0  0  0  0  0  0  0  0
    2.9780    3.3646    6.6627 C   0  0  2  0  0  0  0  0  0  0  0  0
    2.9418    2.8994    8.1794 C   0  0  1  0  0  0  0  0  0  0  0  0
    1.6714    2.6550    9.2168 C   0  0  1  0  0  0  0  0  0  0  0  0
    1.7804    3.8347   10.2558 C   0  0  0  0  0  0  0  0  0  0  0  0
    0.5851    3.8792    3.7769 C   0  0  2  0  0  0  0  0  0  0  0  0
   -0.7155    3.2411    4.1704 C   0  0  0  0  0  0  0  0  0  0  0  0
    0.3421    2.4185    3.4397 C   0  0  2  0  0  0  0  0  0  0  0  0
   -0.2039    2.1248    2.1857 O   0  0  0  0  0  0  0  0  0  0  0  0
   -2.9872    4.1973   10.6703 H   0  0  0  0  0  0  0  0  0  0  0  0
   -2.6608    5.8171    9.8331 H   0  0  0  0  0  0  0  0  0  0  0  0
    0.3229    2.0342    7.6821 H   0  0  0  0  0  0  0  0  0  0  0  0
   -2.2627    2.5322    7.7527 H   0  0  0  0  0  0  0  0  0  0  0  0
   -0.6731    2.8189   11.3865 H   0  0  0  0  0  0  0  0  0  0  0  0
   -1.9031    1.7604   10.8710 H   0  0  0  0  0  0  0  0  0  0  0  0
    0.0326    0.4326   11.4647 H   0  0  0  0  0  0  0  0  0  0  0  0
   -0.4225    0.2427    9.8168 H   0  0  0  0  0  0  0  0  0  0  0  0
    3.3247    1.7027   11.4334 H   0  0  0  0  0  0  0  0  0  0  0  0
    2.3229    0.3894   12.0019 H   0  0  0  0  0  0  0  0  0  0  0  0
    1.7980    2.0190   12.1696 H   0  0  0  0  0  0  0  0  0  0  0  0
    1.1535   -0.7083    9.0015 H   0  0  0  0  0  0  0  0  0  0  0  0
    3.2930   -1.1310   10.8292 H   0  0  0  0  0  0  0  0  0  0  0  0
    2.9544   -2.0377    9.3747 H   0  0  0  0  0  0  0  0  0  0  0  0
    5.2932   -0.3862    9.7358 H   0  0  0  0  0  0  0  0  0  0  0  0
    4.7449   -1.2239    8.2397 H   0  0  0  0  0  0  0  0  0  0  0  0
    3.8773    1.1829    9.5773 H   0  0  0  0  0  0  0  0  0  0  0  0
    5.0703    2.4132    8.3282 H   0  0  0  0  0  0  0  0  0  0  0  0
    5.0217    2.9702    6.3329 H   0  0  0  0  0  0  0  0  0  0  0  0
    5.3594    1.4257    4.9102 H   0  0  0  0  0  0  0  0  0  0  0  0
    3.4363   -0.5384    6.0671 H   0  0  0  0  0  0  0  0  0  0  0  0
    5.1808   -0.3406    6.3572 H   0  0  0  0  0  0  0  0  0  0  0  0
    4.6082   -0.8417    4.7896 H   0  0  0  0  0  0  0  0  0  0  0  0
    3.6095    2.4126    3.4194 H   0  0  0  0  0  0  0  0  0  0  0  0
    4.3202    0.9378    3.1434 H   0  0  0  0  0  0  0  0  0  0  0  0
    1.1627   -0.0803    1.9208 H   0  0  0  0  0  0  0  0  0  0  0  0
    2.4566    0.9873    1.4664 H   0  0  0  0  0  0  0  0  0  0  0  0
    2.9633   -1.3601    0.8600 H   0  0  0  0  0  0  0  0  0  0  0  0
    2.6611   -1.9220    2.5048 H   0  0  0  0  0  0  0  0  0  0  0  0
    4.0875   -0.9543    2.1305 H   0  0  0  0  0  0  0  0  0  0  0  0
    0.3080    0.4545    4.2375 H   0  0  0  0  0  0  0  0  0  0  0  0
    1.5940    0.8872    6.2197 H   0  0  0  0  0  0  0  0  0  0  0  0
    2.5923    4.0131    3.9832 H   0  0  0  0  0  0  0  0  0  0  0  0
    5.2956    5.2996    5.9770 H   0  0  0  0  0  0  0  0  0  0  0  0
    4.2321    6.2352    4.9303 H   0  0  0  0  0  0  0  0  0  0  0  0
    4.5502    4.5312    4.6237 H   0  0  0  0  0  0  0  0  0  0  0  0
    2.7245    6.9015    6.9521 H   0  0  0  0  0  0  0  0  0  0  0  0
    2.1242    5.7402    8.0119 H   0  0  0  0  0  0  0  0  0  0  0  0
    3.9840    7.0558    9.0229 H   0  0  0  0  0  0  0  0  0  0  0  0
    5.0910    6.6042    7.7548 H   0  0  0  0  0  0  0  0  0  0  0  0
    4.6055    5.4349    8.9434 H   0  0  0  0  0  0  0  0  0  0  0  0
    3.4989    3.6584    8.6748 H   0  0  0  0  0  0  0  0  0  0  0  0
    2.7468    3.8621   10.7640 H   0  0  0  0  0  0  0  0  0  0  0  0
    1.0558    3.8110   11.0571 H   0  0  0  0  0  0  0  0  0  0  0  0
    1.6599    4.8245    9.8290 H   0  0  0  0  0  0  0  0  0  0  0  0
    0.5490    4.5811    2.9470 H   0  0  0  0  0  0  0  0  0  0  0  0
   -0.8765    3.1022    5.2343 H   0  0  0  0  0  0  0  0  0  0  0  0
   -1.5795    3.6177    3.6163 H   0  0  0  0  0  0  0  0  0  0  0  0
   -0.1461    2.9144    1.6279 H   0  0  0  0  0  0  0  0  0  0  0  0
    2.4095   -0.1706    4.0930 H   0  0  0  0  0  0  0  0  0  0  0  0
  1  2  2  0
  1 43  1  0
  1 44  1  0
  2  7  1  0
  2  3  1  0
  3  4  2  0
  3  5  1  0
  5  6  1  0
  6 37  1  0
  6  7  1  0
  6 45  1  6
  7  8  1  6
  7  9  1  0
  8 46  1  0
  9 10  1  0
  9 47  1  0
  9 48  1  0
 10 11  1  0
 10 49  1  0
 10 50  1  0
 11 37  1  0
 11 12  1  1
 11 13  1  0
 12 51  1  0
 12 52  1  0
 12 53  1  0
 13 17  1  0
 13 14  1  0
 13 54  1  6
 14 15  1  0
 14 55  1  0
 14 56  1  0
 15 16  1  0
 15 57  1  0
 15 58  1  0
 16 17  1  0
 16 18  1  0
 16 59  1  1
 18 36  1  0
 18 19  1  0
 18 60  1  1
 19 35  1  0
 19 20  1  0
 19 61  1  1
 20 21  1  0
 20 22  1  0
 20 62  1  6
 21 63  1  0
 21 64  1  0
 21 65  1  0
 22 23  1  0
 22 66  1  0
 22 67  1  0
 23 24  1  0
 23 26  1  0
 23 92  1  1
 24 25  1  0
 24 68  1  0
 24 69  1  0
 25 70  1  0
 25 71  1  0
 25 72  1  0
 26 41  1  0
 26 27  1  0
 26 73  1  1
 27 28  2  0
 27 74  1  0
 35 28  1  6
 28 29  1  0
 29 30  1  0
 29 39  1  0
 29 75  1  6
 30 31  1  0
 31 32  1  6
 31 33  1  0
 31 35  1  0
 32 76  1  0
 32 77  1  0
 32 78  1  0
 33 34  1  0
 33 79  1  0
 33 80  1  0
 34 81  1  0
 34 82  1  0
 34 83  1  0
 35 36  1  0
 36 37  1  0
 36 84  1  1
 37 38  1  1
 38 85  1  0
 38 86  1  0
 38 87  1  0
 39 41  1  0
 39 40  1  0
 39 88  1  6
 40 41  1  0
 40 89  1  0
 40 90  1  0
 41 42  1  6
 42 91  1  0
M  CHG  1  23   1
M  END
>  <i_m_ct_stereo_status>  (342) 
1

>  <s_m_source_file>  (342) 
/var/tmp/pbs.5076255.sched01/tmpo_pg7vmn/129owyy42_r.sdf

>  <i_m_source_file_index>  (342) 
5

>  <i_lp_mmshare_version>  (342) 
48012

>  <i_f3d_flags>  (342) 
0

>  <s_epik_input>  (342) 
Tz1DKE8xKUMoPVtDSDJdKVtDQF0oW09IXSkoW0NIMl1bQ0gyXTIpW0NAQEhdMVtDQEBdKFtDQEBIXTM0KShbQ0gzXSlbQ0BdMihbQ0gzXSlbQ0BASF0oTzUpW0NIMl1bQ0gyXVtDQEhdNVtDQEhdM1tDQEhdKFtDQF00NjcpW0NAQEhdKFtDSDNdKVtDSDJdTihbQ0gyXVtDSDNdKVtDSF04W0NAXTkoW09IXSlbQ0BASF0oW0NIMl05KVtDQEhdKEM2PVtDSF04KU9bQ0BAXTcoW0NIM10pW0NIMl1bQ0gzXQ==

>  <s_epik_cmdline>  (342) 
J2VwaWtfcHl0aG9uJywgJy1waHQnLCAnMi4wJywgJy1waCcsICc3LjAnLCAnLXRuJywgJzgnLCAnLW1hJywgJzIwMCcsICctaW1hZScsICc8aW5maWxlLm1hZT4nLCAnLW9tYWUnLCAnPG91dGZpbGUubWFlPic=

>  <r_epik_Ionization_Penalty>  (342) 
0.0164944

>  <r_epik_Ionization_Penalty_Charging>  (342) 
0.016477

>  <r_epik_Ionization_Penalty_Neutral>  (342) 
1.73994e-05

>  <r_epik_State_Penalty>  (342) 
0.0130076

>  <r_epik_Charging_Adjusted_Penalty>  (342) 
0.0294847

>  <i_epik_Tot_Q>  (342) 
1

>  <i_epik_Tot_abs_Q>  (342) 
1

>  <s_epik_Chemistry_Notes>  (342) 
This compound has an ester and may undergo hydrolysis at high or low pH.

>  <s_lp_Force_Field>  (342) 
OPLS3e

>  <r_lp_Energy>  (342) 
220.155

>  <b_lp_Chiralities_Consistent>  (342) 
1

>  <s_lp_Variant>  (342) 
93:0-1

>  <s_i_glide_gridfile>  (342) 
pfpi4k_grid

>  <i_i_glide_lignum>  (342) 
5

>  <i_i_glide_rotatable_bonds>  (342) 
4

>  <r_i_docking_score>  (342) 
-2.20524

>  <r_i_glide_ligand_efficiency>  (342) 
-0.0525056

>  <r_i_glide_ligand_efficiency_sa>  (342) 
-0.182511

>  <r_i_glide_ligand_efficiency_ln>  (342) 
-0.465469

>  <r_i_glide_gscore>  (342) 
-2.20524

>  <r_i_glide_lipo>  (342) 
-0.0114473

>  <r_i_glide_hbond>  (342) 
-0.16

>  <r_i_glide_metal>  (342) 
-0

>  <r_i_glide_rewards>  (342) 
0

>  <r_i_glide_evdw>  (342) 
-17.4421

>  <r_i_glide_ecoul>  (342) 
-7.71787

>  <r_i_glide_erotb>  (342) 
0

>  <r_i_glide_esite>  (342) 
-0.00400338

>  <r_i_glide_emodel>  (342) 
-27.4217

>  <r_i_glide_energy>  (342) 
-25.16

>  <r_i_glide_einternal>  (342) 
2.70633

>  <r_i_glide_intrahb_reward>  (342) 
-0

>  <i_i_glide_confnum>  (342) 
2

>  <i_i_glide_posenum>  (342) 
4

>  <r_i_glide_eff_state_penalty>  (342) 
0

>  <ligand_id>  (342) 
93

>  <original_smiles>  (342) 
C=C1C(=O)OC2C1(O)CCC1(C)C3CCC(O3)C3C4C(C)CN(CC)C5C=C6C(OC(C)(CC)C64C3C21C)C1CC15O

>  <smiles>  (342) 
[H]OC12C(=C([H])[H])C(=O)OC1([H])C1(C([H])([H])[H])C3([H])C([H])(C4([H])OC([H])(C([H])([H])C4([H])[H])C1(C([H])([H])[H])C([H])([H])C2([H])[H])C1([H])C([H])(C([H])([H])[H])C([H])([H])[N+]([H])(C([H])([H])C([H])([H])[H])C2([H])C([H])=C4C([H])(OC(C([H])([H])[H])(C([H])([H])C([H])([H])[H])C413)C1([H])C([H])([H])C12O[H]

$$$$
93:0:1
     RDKit          3D

 92100  0  0  1  0  0  0  0  0999 V2000
    1.1677    5.0879    3.2857 C   0  0  0  0  0  0  0  0  0  0  0  0
    1.4626    3.7977    3.5361 C   0  0  0  0  0  0  0  0  0  0  0  0
    2.7407    3.3600    4.0383 C   0  0  0  0  0  0  0  0  0  0  0  0
    3.7422    4.0568    4.1957 O   0  0  0  0  0  0  0  0  0  0  0  0
    2.6633    2.0654    4.3282 O   0  0  0  0  0  0  0  0  0  0  0  0
    1.3534    1.5097    4.2728 C   0  0  2  0  0  0  0  0  0  0  0  0
    0.5680    2.5937    3.4927 C   0  0  2  0  0  0  0  0  0  0  0  0
    0.4782    2.1369    2.1416 O   0  0  0  0  0  0  0  0  0  0  0  0
   -0.8694    2.8204    3.9714 C   0  0  0  0  0  0  0  0  0  0  0  0
   -1.4718    1.4775    4.3750 C   0  0  0  0  0  0  0  0  0  0  0  0
   -0.7525    0.6754    5.5297 C   0  0  1  0  0  0  0  0  0  0  0  0
   -1.6064    1.0319    6.8064 C   0  0  0  0  0  0  0  0  0  0  0  0
   -1.0208   -0.8491    5.1070 C   0  0  2  0  0  0  0  0  0  0  0  0
   -1.7943   -1.9125    5.9716 C   0  0  0  0  0  0  0  0  0  0  0  0
   -0.7513   -2.6555    6.8718 C   0  0  0  0  0  0  0  0  0  0  0  0
    0.3133   -1.6612    6.5522 C   0  0  2  0  0  0  0  0  0  0  0  0
    0.1998   -1.4446    5.1861 O   0  0  0  0  0  0  0  0  0  0  0  0
    1.6938   -1.3671    6.9544 C   0  0  1  0  0  0  0  0  0  0  0  0
    3.0270   -1.8972    6.3669 C   0  0  1  0  0  0  0  0  0  0  0  0
    3.1933   -3.3179    5.6183 C   0  0  1  0  0  0  0  0  0  0  0  0
    1.9023   -4.1130    5.3875 C   0  0  0  0  0  0  0  0  0  0  0  0
    4.2148   -3.5787    4.4302 C   0  0  0  0  0  0  0  0  0  0  0  0
    3.6984   -3.4728    3.0004 N   0  0  2  0  0  0  0  0  0  0  0  0
    4.3625   -4.4573    2.0936 C   0  0  0  0  0  0  0  0  0  0  0  0
    3.6615   -4.6104    0.7225 C   0  0  0  0  0  0  0  0  0  0  0  0
    3.4772   -2.1072    2.3964 C   0  0  1  0  0  0  0  0  0  0  0  0
    2.8256   -1.3114    3.4874 C   0  0  0  0  0  0  0  0  0  0  0  0
    3.6057   -0.6608    4.3720 C   0  0  0  0  0  0  0  0  0  0  0  0
    5.0683   -0.3912    4.1453 C   0  0  2  0  0  0  0  0  0  0  0  0
    5.3704    0.6506    5.0237 O   0  0  0  0  0  0  0  0  0  0  0  0
    4.7220    0.3095    6.2588 C   0  0  1  0  0  0  0  0  0  0  0  0
    5.7261   -0.5627    7.0498 C   0  0  0  0  0  0  0  0  0  0  0  0
    4.5483    1.6591    6.9961 C   0  0  0  0  0  0  0  0  0  0  0  0
    5.8305    2.4946    7.1678 C   0  0  0  0  0  0  0  0  0  0  0  0
    3.3723   -0.4431    5.8387 C   0  0  2  0  0  0  0  0  0  0  0  0
    1.9691    0.0652    6.3936 C   0  0  1  0  0  0  0  0  0  0  0  0
    0.8564    1.0936    5.6982 C   0  0  1  0  0  0  0  0  0  0  0  0
    0.8893    2.3578    6.6346 C   0  0  0  0  0  0  0  0  0  0  0  0
    5.4547   -0.3252    2.6958 C   0  0  2  0  0  0  0  0  0  0  0  0
    4.5646    0.1446    1.5906 C   0  0  0  0  0  0  0  0  0  0  0  0
    4.7032   -1.3387    1.8544 C   0  0  2  0  0  0  0  0  0  0  0  0
    5.4395   -1.8934    0.7780 O   0  0  0  0  0  0  0  0  0  0  0  0
    0.1854    5.3818    2.9490 H   0  0  0  0  0  0  0  0  0  0  0  0
    1.9182    5.8591    3.3877 H   0  0  0  0  0  0  0  0  0  0  0  0
    1.3426    0.6071    3.6679 H   0  0  0  0  0  0  0  0  0  0  0  0
    0.2421    2.8817    1.5796 H   0  0  0  0  0  0  0  0  0  0  0  0
   -0.9631    3.5635    4.7535 H   0  0  0  0  0  0  0  0  0  0  0  0
   -1.4678    3.2326    3.1602 H   0  0  0  0  0  0  0  0  0  0  0  0
   -2.5250    1.6333    4.6216 H   0  0  0  0  0  0  0  0  0  0  0  0
   -1.4944    0.9118    3.4394 H   0  0  0  0  0  0  0  0  0  0  0  0
   -1.1910    0.7018    7.7576 H   0  0  0  0  0  0  0  0  0  0  0  0
   -2.6257    0.6541    6.7455 H   0  0  0  0  0  0  0  0  0  0  0  0
   -1.7262    2.1081    6.9199 H   0  0  0  0  0  0  0  0  0  0  0  0
   -1.3269   -0.9875    4.0783 H   0  0  0  0  0  0  0  0  0  0  0  0
   -2.6601   -1.5053    6.4774 H   0  0  0  0  0  0  0  0  0  0  0  0
   -2.1759   -2.6578    5.2866 H   0  0  0  0  0  0  0  0  0  0  0  0
   -0.9436   -2.6812    7.9448 H   0  0  0  0  0  0  0  0  0  0  0  0
   -0.6078   -3.6672    6.5018 H   0  0  0  0  0  0  0  0  0  0  0  0
   -0.0898   -0.9039    7.2115 H   0  0  0  0  0  0  0  0  0  0  0  0
    1.7946   -1.3819    8.0445 H   0  0  0  0  0  0  0  0  0  0  0  0
    3.6256   -1.9927    7.2706 H   0  0  0  0  0  0  0  0  0  0  0  0
    3.6669   -3.9237    6.3966 H   0  0  0  0  0  0  0  0  0  0  0  0
    1.2294   -3.6153    4.6915 H   0  0  0  0  0  0  0  0  0  0  0  0
    1.3980   -4.2733    6.3370 H   0  0  0  0  0  0  0  0  0  0  0  0
    2.1182   -5.1044    4.9885 H   0  0  0  0  0  0  0  0  0  0  0  0
    5.1839   -3.1194    4.5853 H   0  0  0  0  0  0  0  0  0  0  0  0
    4.4600   -4.6372    4.5539 H   0  0  0  0  0  0  0  0  0  0  0  0
    5.4254   -4.2273    1.9605 H   0  0  0  0  0  0  0  0  0  0  0  0
    4.3168   -5.4406    2.5672 H   0  0  0  0  0  0  0  0  0  0  0  0
    4.1215   -5.4342    0.1613 H   0  0  0  0  0  0  0  0  0  0  0  0
    3.7537   -3.7146    0.0975 H   0  0  0  0  0  0  0  0  0  0  0  0
    2.5958   -4.8424    0.8373 H   0  0  0  0  0  0  0  0  0  0  0  0
    2.7505   -2.1798    1.5916 H   0  0  0  0  0  0  0  0  0  0  0  0
    1.8069   -1.5930    3.6939 H   0  0  0  0  0  0  0  0  0  0  0  0
    5.6737   -1.2078    4.5110 H   0  0  0  0  0  0  0  0  0  0  0  0
    5.4345   -0.6466    8.0959 H   0  0  0  0  0  0  0  0  0  0  0  0
    6.7269   -0.1301    7.0174 H   0  0  0  0  0  0  0  0  0  0  0  0
    5.8165   -1.5705    6.6504 H   0  0  0  0  0  0  0  0  0  0  0  0
    3.8578    2.2863    6.4520 H   0  0  0  0  0  0  0  0  0  0  0  0
    4.1142    1.4987    7.9820 H   0  0  0  0  0  0  0  0  0  0  0  0
    5.5976    3.4636    7.6152 H   0  0  0  0  0  0  0  0  0  0  0  0
    6.3134    2.6917    6.2082 H   0  0  0  0  0  0  0  0  0  0  0  0
    6.5544    2.0029    7.8192 H   0  0  0  0  0  0  0  0  0  0  0  0
    2.2356    0.5255    7.3365 H   0  0  0  0  0  0  0  0  0  0  0  0
    0.6661    2.1138    7.6755 H   0  0  0  0  0  0  0  0  0  0  0  0
    0.1859    3.1381    6.3720 H   0  0  0  0  0  0  0  0  0  0  0  0
    1.8523    2.8571    6.6539 H   0  0  0  0  0  0  0  0  0  0  0  0
    6.5218   -0.3041    2.5087 H   0  0  0  0  0  0  0  0  0  0  0  0
    3.6660    0.6933    1.8931 H   0  0  0  0  0  0  0  0  0  0  0  0
    5.0895    0.5471    0.7289 H   0  0  0  0  0  0  0  0  0  0  0  0
    4.8724   -1.9026    0.0191 H   0  0  0  0  0  0  0  0  0  0  0  0
    2.7565   -3.8275    3.0813 H   0  0  0  0  0  0  0  0  0  0  0  0
  1  2  2  0
  1 43  1  0
  1 44  1  0
  2  7  1  0
  2  3  1  0
  3  4  2  0
  3  5  1  0
  5  6  1  0
  6 37  1  0
  6  7  1  0
  6 45  1  6
  7  8  1  6
  7  9  1  0
  8 46  1  0
  9 10  1  0
  9 47  1  0
  9 48  1  0
 10 11  1  0
 10 49  1  0
 10 50  1  0
 11 37  1  0
 11 12  1  1
 11 13  1  0
 12 51  1  0
 12 52  1  0
 12 53  1  0
 13 17  1  0
 13 14  1  0
 13 54  1  6
 14 15  1  0
 14 55  1  0
 14 56  1  0
 15 16  1  0
 15 57  1  0
 15 58  1  0
 16 17  1  0
 16 18  1  0
 16 59  1  1
 18 36  1  0
 18 19  1  0
 18 60  1  1
 19 35  1  0
 19 20  1  0
 19 61  1  1
 20 21  1  0
 20 22  1  0
 20 62  1  1
 21 63  1  0
 21 64  1  0
 21 65  1  0
 22 23  1  0
 22 66  1  0
 22 67  1  0
 23 24  1  0
 23 26  1  0
 23 92  1  1
 24 25  1  0
 24 68  1  0
 24 69  1  0
 25 70  1  0
 25 71  1  0
 25 72  1  0
 26 41  1  0
 26 27  1  0
 26 73  1  6
 27 28  2  0
 27 74  1  0
 35 28  1  6
 28 29  1  0
 29 30  1  0
 29 39  1  0
 29 75  1  1
 30 31  1  0
 31 32  1  1
 31 33  1  0
 31 35  1  0
 32 76  1  0
 32 77  1  0
 32 78  1  0
 33 34  1  0
 33 79  1  0
 33 80  1  0
 34 81  1  0
 34 82  1  0
 34 83  1  0
 35 36  1  0
 36 37  1  0
 36 84  1  1
 37 38  1  1
 38 85  1  0
 38 86  1  0
 38 87  1  0
 39 41  1  0
 39 40  1  0
 39 88  1  1
 40 41  1  0
 40 89  1  0
 40 90  1  0
 41 42  1  6
 42 91  1  0
M  CHG  1  23   1
M  END
>  <i_m_ct_stereo_status>  (343) 
1

>  <s_m_source_file>  (343) 
/var/tmp/pbs.5076255.sched01/tmpo_pg7vmn/129owyy42_r.sdf

>  <i_m_source_file_index>  (343) 
5

>  <i_lp_mmshare_version>  (343) 
48012

>  <i_f3d_flags>  (343) 
0

>  <s_epik_input>  (343) 
Tz1DKE8xKUMoPVtDSDJdKVtDQF0oW09IXSkoW0NIMl1bQ0gyXTIpW0NAQEhdMVtDQEBdKFtDQEBIXTM0KShbQ0gzXSlbQ0BdMihbQ0gzXSlbQ0BASF0oTzUpW0NIMl1bQ0gyXVtDQEhdNVtDQEhdM1tDQEhdKFtDQF00NjcpW0NAQEhdKFtDSDNdKVtDSDJdTihbQ0gyXVtDSDNdKVtDSF04W0NAXTkoW09IXSlbQ0BASF0oW0NIMl05KVtDQEhdKEM2PVtDSF04KU9bQ0BAXTcoW0NIM10pW0NIMl1bQ0gzXQ==

>  <s_epik_cmdline>  (343) 
J2VwaWtfcHl0aG9uJywgJy1waHQnLCAnMi4wJywgJy1waCcsICc3LjAnLCAnLXRuJywgJzgnLCAnLW1hJywgJzIwMCcsICctaW1hZScsICc8aW5maWxlLm1hZT4nLCAnLW9tYWUnLCAnPG91dGZpbGUubWFlPic=

>  <r_epik_Ionization_Penalty>  (343) 
0.0164944

>  <r_epik_Ionization_Penalty_Charging>  (343) 
0.016477

>  <r_epik_Ionization_Penalty_Neutral>  (343) 
1.73994e-05

>  <r_epik_State_Penalty>  (343) 
0.0130076

>  <r_epik_Charging_Adjusted_Penalty>  (343) 
0.0294847

>  <i_epik_Tot_Q>  (343) 
1

>  <i_epik_Tot_abs_Q>  (343) 
1

>  <s_epik_Chemistry_Notes>  (343) 
This compound has an ester and may undergo hydrolysis at high or low pH.

>  <s_lp_Force_Field>  (343) 
OPLS3e

>  <r_lp_Energy>  (343) 
220.155

>  <b_lp_Chiralities_Consistent>  (343) 
1

>  <s_lp_Variant>  (343) 
93:0-1

>  <s_i_glide_gridfile>  (343) 
pfpi4k_grid

>  <i_i_glide_lignum>  (343) 
5

>  <i_i_glide_rotatable_bonds>  (343) 
4

>  <r_i_docking_score>  (343) 
-2.0139

>  <r_i_glide_ligand_efficiency>  (343) 
-0.04795

>  <r_i_glide_ligand_efficiency_sa>  (343) 
-0.166675

>  <r_i_glide_ligand_efficiency_ln>  (343) 
-0.425082

>  <r_i_glide_gscore>  (343) 
-2.0139

>  <r_i_glide_lipo>  (343) 
-0.339328

>  <r_i_glide_hbond>  (343) 
0

>  <r_i_glide_metal>  (343) 
-0

>  <r_i_glide_rewards>  (343) 
0

>  <r_i_glide_evdw>  (343) 
-19.8717

>  <r_i_glide_ecoul>  (343) 
-4.42819

>  <r_i_glide_erotb>  (343) 
0

>  <r_i_glide_esite>  (343) 
-0.0167595

>  <r_i_glide_emodel>  (343) 
-27.5083

>  <r_i_glide_energy>  (343) 
-24.2998

>  <r_i_glide_einternal>  (343) 
0.276779

>  <r_i_glide_intrahb_reward>  (343) 
-0

>  <i_i_glide_confnum>  (343) 
2

>  <i_i_glide_posenum>  (343) 
5

>  <r_i_glide_eff_state_penalty>  (343) 
0

>  <ligand_id>  (343) 
93

>  <original_smiles>  (343) 
C=C1C(=O)OC2C1(O)CCC1(C)C3CCC(O3)C3C4C(C)CN(CC)C5C=C6C(OC(C)(CC)C64C3C21C)C1CC15O

>  <smiles>  (343) 
[H]OC12C(=C([H])[H])C(=O)OC1([H])C1(C([H])([H])[H])C3([H])C([H])(C4([H])OC([H])(C([H])([H])C4([H])[H])C1(C([H])([H])[H])C([H])([H])C2([H])[H])C1([H])C([H])(C([H])([H])[H])C([H])([H])[N+]([H])(C([H])([H])C([H])([H])[H])C2([H])C([H])=C4C([H])(OC(C([H])([H])[H])(C([H])([H])C([H])([H])[H])C413)C1([H])C([H])([H])C12O[H]

$$$$
93:0:2
     RDKit          3D

 92100  0  0  1  0  0  0  0  0999 V2000
   -2.3163    4.1879   11.2308 C   0  0  0  0  0  0  0  0  0  0  0  0
   -1.5318    3.9701   10.1678 C   0  0  0  0  0  0  0  0  0  0  0  0
   -1.4017    4.9116    9.0758 C   0  0  0  0  0  0  0  0  0  0  0  0
   -2.1140    5.9034    8.8586 O   0  0  0  0  0  0  0  0  0  0  0  0
   -0.3907    4.5117    8.3216 O   0  0  0  0  0  0  0  0  0  0  0  0
    0.3520    3.3957    8.8195 C   0  0  2  0  0  0  0  0  0  0  0  0
   -0.5568    2.8593    9.9458 C   0  0  2  0  0  0  0  0  0  0  0  0
   -1.2703    1.7570    9.4363 O   0  0  0  0  0  0  0  0  0  0  0  0
    0.1738    2.3646   11.1982 C   0  0  0  0  0  0  0  0  0  0  0  0
    1.4439    1.6444   10.7443 C   0  0  0  0  0  0  0  0  0  0  0  0
    2.5066    2.4790    9.9353 C   0  0  1  0  0  0  0  0  0  0  0  0
    3.5517    2.9042   11.0294 C   0  0  0  0  0  0  0  0  0  0  0  0
    3.1517    1.3666    8.9691 C   0  0  2  0  0  0  0  0  0  0  0  0
    4.6738    0.9566    8.9425 C   0  0  0  0  0  0  0  0  0  0  0  0
    5.3977    1.8744    7.9163 C   0  0  0  0  0  0  0  0  0  0  0  0
    4.2080    2.7878    7.7900 C   0  0  2  0  0  0  0  0  0  0  0  0
    3.0981    1.9508    7.7359 O   0  0  0  0  0  0  0  0  0  0  0  0
    3.8564    4.0501    7.1228 C   0  0  1  0  0  0  0  0  0  0  0  0
    3.2271    4.2917    5.7246 C   0  0  1  0  0  0  0  0  0  0  0  0
    3.4126    3.3112    4.4684 C   0  0  1  0  0  0  0  0  0  0  0  0
    4.1304    1.9811    4.7525 C   0  0  0  0  0  0  0  0  0  0  0  0
    2.3178    3.1121    3.3430 C   0  0  0  0  0  0  0  0  0  0  0  0
    1.3792    1.9321    3.4471 N   0  0  2  0  0  0  0  0  0  0  0  0
    1.0330    1.3606    2.1236 C   0  0  0  0  0  0  0  0  0  0  0  0
    2.1746    0.4971    1.5451 C   0  0  0  0  0  0  0  0  0  0  0  0
    0.2390    2.0046    4.4404 C   0  0  1  0  0  0  0  0  0  0  0  0
    0.8456    2.6070    5.6660 C   0  0  0  0  0  0  0  0  0  0  0  0
    0.8544    3.9610    5.7633 C   0  0  0  0  0  0  0  0  0  0  0  0
    0.0023    4.8590    4.9258 C   0  0  2  0  0  0  0  0  0  0  0  0
   -0.0425    6.0727    5.6284 O   0  0  0  0  0  0  0  0  0  0  0  0
    1.3051    6.2843    6.0861 C   0  0  1  0  0  0  0  0  0  0  0  0
    2.0392    7.0413    4.9464 C   0  0  0  0  0  0  0  0  0  0  0  0
    1.1612    7.2338    7.3022 C   0  0  0  0  0  0  0  0  0  0  0  0
    0.3762    8.5292    7.0393 C   0  0  0  0  0  0  0  0  0  0  0  0
    1.8998    4.8226    6.3973 C   0  0  2  0  0  0  0  0  0  0  0  0
    2.5299    4.4936    7.8247 C   0  0  1  0  0  0  0  0  0  0  0  0
    1.8275    3.8004    9.1634 C   0  0  1  0  0  0  0  0  0  0  0  0
    1.7910    4.9699   10.2163 C   0  0  0  0  0  0  0  0  0  0  0  0
   -1.2573    4.2293    4.4103 C   0  0  2  0  0  0  0  0  0  0  0  0
   -2.0441    3.1671    5.1316 C   0  0  0  0  0  0  0  0  0  0  0  0
   -1.0323    2.7762    4.0557 C   0  0  2  0  0  0  0  0  0  0  0  0
   -1.7728    2.3219    2.9453 O   0  0  0  0  0  0  0  0  0  0  0  0
   -2.3522    3.5141   12.0772 H   0  0  0  0  0  0  0  0  0  0  0  0
   -2.9512    5.0635   11.2589 H   0  0  0  0  0  0  0  0  0  0  0  0
    0.4108    2.6196    8.0650 H   0  0  0  0  0  0  0  0  0  0  0  0
   -1.7997    1.4321   10.1460 H   0  0  0  0  0  0  0  0  0  0  0  0
    0.3663    3.1318   11.9468 H   0  0  0  0  0  0  0  0  0  0  0  0
   -0.4588    1.6512   11.7355 H   0  0  0  0  0  0  0  0  0  0  0  0
    1.9116    1.2026   11.6225 H   0  0  0  0  0  0  0  0  0  0  0  0
    1.0772    0.7834   10.1838 H   0  0  0  0  0  0  0  0  0  0  0  0
    4.3048    3.6226   10.7074 H   0  0  0  0  0  0  0  0  0  0  0  0
    4.0864    2.0532   11.4461 H   0  0  0  0  0  0  0  0  0  0  0  0
    3.0719    3.3710   11.8891 H   0  0  0  0  0  0  0  0  0  0  0  0
    2.5545    0.4661    8.8639 H   0  0  0  0  0  0  0  0  0  0  0  0
    5.1421    0.9594    9.9232 H   0  0  0  0  0  0  0  0  0  0  0  0
    4.7394   -0.0701    8.5777 H   0  0  0  0  0  0  0  0  0  0  0  0
    6.2779    2.3548    8.3422 H   0  0  0  0  0  0  0  0  0  0  0  0
    5.6556    1.3038    7.0291 H   0  0  0  0  0  0  0  0  0  0  0  0
    4.4070    3.2711    8.7374 H   0  0  0  0  0  0  0  0  0  0  0  0
    4.6304    4.8014    7.2698 H   0  0  0  0  0  0  0  0  0  0  0  0
    3.7462    5.2076    5.4387 H   0  0  0  0  0  0  0  0  0  0  0  0
    4.1696    3.8372    3.8947 H   0  0  0  0  0  0  0  0  0  0  0  0
    3.5633    1.3274    5.4068 H   0  0  0  0  0  0  0  0  0  0  0  0
    5.0965    2.1718    5.2114 H   0  0  0  0  0  0  0  0  0  0  0  0
    4.3244    1.4395    3.8296 H   0  0  0  0  0  0  0  0  0  0  0  0
    1.8366    4.0253    3.0262 H   0  0  0  0  0  0  0  0  0  0  0  0
    2.9254    2.9190    2.4670 H   0  0  0  0  0  0  0  0  0  0  0  0
    0.1674    0.7033    2.1813 H   0  0  0  0  0  0  0  0  0  0  0  0
    0.7580    2.1518    1.4284 H   0  0  0  0  0  0  0  0  0  0  0  0
    1.9218    0.1669    0.5440 H   0  0  0  0  0  0  0  0  0  0  0  0
    2.3485   -0.3957    2.1477 H   0  0  0  0  0  0  0  0  0  0  0  0
    3.1214    1.0276    1.4433 H   0  0  0  0  0  0  0  0  0  0  0  0
   -0.0703    0.9845    4.6775 H   0  0  0  0  0  0  0  0  0  0  0  0
    1.4881    1.9670    6.2130 H   0  0  0  0  0  0  0  0  0  0  0  0
    0.5204    5.1252    4.0114 H   0  0  0  0  0  0  0  0  0  0  0  0
    2.9677    7.4793    5.3025 H   0  0  0  0  0  0  0  0  0  0  0  0
    1.4180    7.8480    4.5551 H   0  0  0  0  0  0  0  0  0  0  0  0
    2.2764    6.4050    4.0978 H   0  0  0  0  0  0  0  0  0  0  0  0
    0.6418    6.7209    8.0987 H   0  0  0  0  0  0  0  0  0  0  0  0
    2.1433    7.5019    7.6857 H   0  0  0  0  0  0  0  0  0  0  0  0
    0.2480    9.0863    7.9653 H   0  0  0  0  0  0  0  0  0  0  0  0
   -0.6203    8.3232    6.6480 H   0  0  0  0  0  0  0  0  0  0  0  0
    0.8925    9.1817    6.3378 H   0  0  0  0  0  0  0  0  0  0  0  0
    2.8735    5.4677    8.1550 H   0  0  0  0  0  0  0  0  0  0  0  0
    2.7808    5.3770   10.4128 H   0  0  0  0  0  0  0  0  0  0  0  0
    1.4046    4.6972   11.1884 H   0  0  0  0  0  0  0  0  0  0  0  0
    1.1843    5.8131    9.9117 H   0  0  0  0  0  0  0  0  0  0  0  0
   -1.7985    4.8054    3.6737 H   0  0  0  0  0  0  0  0  0  0  0  0
   -1.8022    3.0317    6.1854 H   0  0  0  0  0  0  0  0  0  0  0  0
   -3.1041    3.1665    4.8953 H   0  0  0  0  0  0  0  0  0  0  0  0
   -1.3035    2.5336    2.1544 H   0  0  0  0  0  0  0  0  0  0  0  0
    1.9587    1.2070    3.8576 H   0  0  0  0  0  0  0  0  0  0  0  0
  1  2  2  0
  1 43  1  0
  1 44  1  0
  2  7  1  0
  2  3  1  0
  3  4  2  0
  3  5  1  0
  5  6  1  0
  6 37  1  0
  6  7  1  0
  6 45  1  6
  7  8  1  6
  7  9  1  0
  8 46  1  0
  9 10  1  0
  9 47  1  0
  9 48  1  0
 10 11  1  0
 10 49  1  0
 10 50  1  0
 11 37  1  0
 11 12  1  1
 11 13  1  0
 12 51  1  0
 12 52  1  0
 12 53  1  0
 13 17  1  0
 13 14  1  0
 13 54  1  6
 14 15  1  0
 14 55  1  0
 14 56  1  0
 15 16  1  0
 15 57  1  0
 15 58  1  0
 16 17  1  0
 16 18  1  0
 16 59  1  1
 18 36  1  0
 18 19  1  0
 18 60  1  1
 19 35  1  0
 19 20  1  0
 19 61  1  6
 20 21  1  0
 20 22  1  0
 20 62  1  6
 21 63  1  0
 21 64  1  0
 21 65  1  0
 22 23  1  0
 22 66  1  0
 22 67  1  0
 23 24  1  0
 23 26  1  0
 23 92  1  1
 24 25  1  0
 24 68  1  0
 24 69  1  0
 25 70  1  0
 25 71  1  0
 25 72  1  0
 26 41  1  0
 26 27  1  0
 26 73  1  1
 27 28  2  0
 27 74  1  0
 35 28  1  6
 28 29  1  0
 29 30  1  0
 29 39  1  0
 29 75  1  6
 30 31  1  0
 31 32  1  6
 31 33  1  0
 31 35  1  0
 32 76  1  0
 32 77  1  0
 32 78  1  0
 33 34  1  0
 33 79  1  0
 33 80  1  0
 34 81  1  0
 34 82  1  0
 34 83  1  0
 35 36  1  0
 36 37  1  0
 36 84  1  1
 37 38  1  1
 38 85  1  0
 38 86  1  0
 38 87  1  0
 39 41  1  0
 39 40  1  0
 39 88  1  6
 40 41  1  0
 40 89  1  0
 40 90  1  0
 41 42  1  6
 42 91  1  0
M  CHG  1  23   1
M  END
>  <i_m_ct_stereo_status>  (344) 
1

>  <s_m_source_file>  (344) 
/var/tmp/pbs.5076255.sched01/tmpo_pg7vmn/129owyy42_r.sdf

>  <i_m_source_file_index>  (344) 
5

>  <i_lp_mmshare_version>  (344) 
48012

>  <i_f3d_flags>  (344) 
0

>  <s_epik_input>  (344) 
Tz1DKE8xKUMoPVtDSDJdKVtDQF0oW09IXSkoW0NIMl1bQ0gyXTIpW0NAQEhdMVtDQEBdKFtDQEBIXTM0KShbQ0gzXSlbQ0BdMihbQ0gzXSlbQ0BASF0oTzUpW0NIMl1bQ0gyXVtDQEhdNVtDQEhdM1tDQEhdKFtDQF00NjcpW0NAQEhdKFtDSDNdKVtDSDJdTihbQ0gyXVtDSDNdKVtDSF04W0NAXTkoW09IXSlbQ0BASF0oW0NIMl05KVtDQEhdKEM2PVtDSF04KU9bQ0BAXTcoW0NIM10pW0NIMl1bQ0gzXQ==

>  <s_epik_cmdline>  (344) 
J2VwaWtfcHl0aG9uJywgJy1waHQnLCAnMi4wJywgJy1waCcsICc3LjAnLCAnLXRuJywgJzgnLCAnLW1hJywgJzIwMCcsICctaW1hZScsICc8aW5maWxlLm1hZT4nLCAnLW9tYWUnLCAnPG91dGZpbGUubWFlPic=

>  <r_epik_Ionization_Penalty>  (344) 
0.0164944

>  <r_epik_Ionization_Penalty_Charging>  (344) 
0.016477

>  <r_epik_Ionization_Penalty_Neutral>  (344) 
1.73994e-05

>  <r_epik_State_Penalty>  (344) 
0.0130076

>  <r_epik_Charging_Adjusted_Penalty>  (344) 
0.0294847

>  <i_epik_Tot_Q>  (344) 
1

>  <i_epik_Tot_abs_Q>  (344) 
1

>  <s_epik_Chemistry_Notes>  (344) 
This compound has an ester and may undergo hydrolysis at high or low pH.

>  <s_lp_Force_Field>  (344) 
OPLS3e

>  <r_lp_Energy>  (344) 
220.155

>  <b_lp_Chiralities_Consistent>  (344) 
1

>  <s_lp_Variant>  (344) 
93:0-1

>  <s_i_glide_gridfile>  (344) 
pfpi4k_grid

>  <i_i_glide_lignum>  (344) 
5

>  <i_i_glide_rotatable_bonds>  (344) 
4

>  <r_i_docking_score>  (344) 
-1.91613

>  <r_i_glide_ligand_efficiency>  (344) 
-0.0456221

>  <r_i_glide_ligand_efficiency_sa>  (344) 
-0.158584

>  <r_i_glide_ligand_efficiency_ln>  (344) 
-0.404445

>  <r_i_glide_gscore>  (344) 
-1.91613

>  <r_i_glide_lipo>  (344) 
0

>  <r_i_glide_hbond>  (344) 
0

>  <r_i_glide_metal>  (344) 
-0

>  <r_i_glide_rewards>  (344) 
0

>  <r_i_glide_evdw>  (344) 
-20.358

>  <r_i_glide_ecoul>  (344) 
-5.78814

>  <r_i_glide_erotb>  (344) 
0

>  <r_i_glide_esite>  (344) 
-0.030006

>  <r_i_glide_emodel>  (344) 
-28.8613

>  <r_i_glide_energy>  (344) 
-26.1461

>  <r_i_glide_einternal>  (344) 
1.07446

>  <r_i_glide_intrahb_reward>  (344) 
-0

>  <i_i_glide_confnum>  (344) 
2

>  <i_i_glide_posenum>  (344) 
36

>  <r_i_glide_eff_state_penalty>  (344) 
0

>  <ligand_id>  (344) 
93

>  <original_smiles>  (344) 
C=C1C(=O)OC2C1(O)CCC1(C)C3CCC(O3)C3C4C(C)CN(CC)C5C=C6C(OC(C)(CC)C64C3C21C)C1CC15O

>  <smiles>  (344) 
[H]OC12C(=C([H])[H])C(=O)OC1([H])C1(C([H])([H])[H])C3([H])C([H])(C4([H])OC([H])(C([H])([H])C4([H])[H])C1(C([H])([H])[H])C([H])([H])C2([H])[H])C1([H])C([H])(C([H])([H])[H])C([H])([H])[N+]([H])(C([H])([H])C([H])([H])[H])C2([H])C([H])=C4C([H])(OC(C([H])([H])[H])(C([H])([H])C([H])([H])[H])C413)C1([H])C([H])([H])C12O[H]

$$$$
93:1:0
     RDKit          3D

 91 99  0  0  1  0  0  0  0  0999 V2000
   -0.2823    4.4882    3.6869 C   0  0  0  0  0  0  0  0  0  0  0  0
    0.6055    3.5198    3.9832 C   0  0  0  0  0  0  0  0  0  0  0  0
    1.7891    3.7528    4.7897 C   0  0  0  0  0  0  0  0  0  0  0  0
    2.2283    4.8436    5.1711 O   0  0  0  0  0  0  0  0  0  0  0  0
    2.3452    2.5734    5.0546 O   0  0  0  0  0  0  0  0  0  0  0  0
    1.6059    1.4364    4.6018 C   0  0  2  0  0  0  0  0  0  0  0  0
    0.5486    2.0530    3.6396 C   0  0  2  0  0  0  0  0  0  0  0  0
    1.0257    1.8877    2.3149 O   0  0  0  0  0  0  0  0  0  0  0  0
   -0.8633    1.4287    3.6634 C   0  0  0  0  0  0  0  0  0  0  0  0
   -0.8356   -0.0104    4.1864 C   0  0  0  0  0  0  0  0  0  0  0  0
   -0.3555   -0.0640    5.6516 C   0  0  1  0  0  0  0  0  0  0  0  0
   -1.4608    0.6232    6.5178 C   0  0  0  0  0  0  0  0  0  0  0  0
   -0.2348   -1.4918    6.1163 C   0  0  2  0  0  0  0  0  0  0  0  0
   -1.1289   -2.6785    6.2406 C   0  0  0  0  0  0  0  0  0  0  0  0
   -0.0933   -3.5954    6.9415 C   0  0  0  0  0  0  0  0  0  0  0  0
    1.0575   -2.6572    7.4239 C   0  0  2  0  0  0  0  0  0  0  0  0
    0.2920   -1.5026    7.4292 O   0  0  0  0  0  0  0  0  0  0  0  0
    2.2987   -2.1139    6.5996 C   0  0  1  0  0  0  0  0  0  0  0  0
    3.0579   -2.6360    5.3348 C   0  0  1  0  0  0  0  0  0  0  0  0
    2.4965   -3.6313    4.1833 C   0  0  1  0  0  0  0  0  0  0  0  0
    1.0294   -3.6054    3.7051 C   0  0  0  0  0  0  0  0  0  0  0  0
    3.3566   -3.8908    2.8790 C   0  0  0  0  0  0  0  0  0  0  0  0
    2.9882   -3.2245    1.5802 N   0  0  0  0  0  0  0  0  0  0  0  0
    3.1790   -4.0701    0.4023 C   0  0  0  0  0  0  0  0  0  0  0  0
    4.5781   -4.6909    0.2485 C   0  0  0  0  0  0  0  0  0  0  0  0
    3.2121   -1.7603    1.3579 C   0  0  1  0  0  0  0  0  0  0  0  0
    2.8294   -1.0873    2.6614 C   0  0  0  0  0  0  0  0  0  0  0  0
    3.7447   -1.0566    3.6386 C   0  0  0  0  0  0  0  0  0  0  0  0
    5.2176   -1.2891    3.4202 C   0  0  2  0  0  0  0  0  0  0  0  0
    5.8136   -0.4853    4.3950 O   0  0  0  0  0  0  0  0  0  0  0  0
    5.0347   -0.6369    5.5881 C   0  0  1  0  0  0  0  0  0  0  0  0
    5.8368   -1.6261    6.4659 C   0  0  0  0  0  0  0  0  0  0  0  0
    5.1219    0.8140    6.1527 C   0  0  0  0  0  0  0  0  0  0  0  0
    4.9534    1.0357    7.6715 C   0  0  0  0  0  0  0  0  0  0  0  0
    3.5783   -1.1279    5.1337 C   0  0  2  0  0  0  0  0  0  0  0  0
    2.3669   -0.6317    6.0270 C   0  0  1  0  0  0  0  0  0  0  0  0
    1.1784    0.4881    5.7973 C   0  0  1  0  0  0  0  0  0  0  0  0
    1.1688    1.3580    7.1049 C   0  0  0  0  0  0  0  0  0  0  0  0
    5.6749   -1.0667    1.9939 C   0  0  2  0  0  0  0  0  0  0  0  0
    5.1416    0.0772    1.1786 C   0  0  0  0  0  0  0  0  0  0  0  0
    4.6343   -1.3304    0.9346 C   0  0  2  0  0  0  0  0  0  0  0  0
    5.0732   -1.7014   -0.3601 O   0  0  0  0  0  0  0  0  0  0  0  0
   -1.1491    4.2736    3.0822 H   0  0  0  0  0  0  0  0  0  0  0  0
   -0.1161    5.5109    3.9934 H   0  0  0  0  0  0  0  0  0  0  0  0
    2.3099    0.8972    3.9910 H   0  0  0  0  0  0  0  0  0  0  0  0
    0.6467    2.5758    1.7742 H   0  0  0  0  0  0  0  0  0  0  0  0
   -1.5493    2.0327    4.2570 H   0  0  0  0  0  0  0  0  0  0  0  0
   -1.3023    1.4324    2.6617 H   0  0  0  0  0  0  0  0  0  0  0  0
   -1.8261   -0.4572    4.0956 H   0  0  0  0  0  0  0  0  0  0  0  0
   -0.1912   -0.5988    3.5399 H   0  0  0  0  0  0  0  0  0  0  0  0
   -1.3192    0.4653    7.5879 H   0  0  0  0  0  0  0  0  0  0  0  0
   -2.4491    0.2328    6.2648 H   0  0  0  0  0  0  0  0  0  0  0  0
   -1.5054    1.7034    6.3726 H   0  0  0  0  0  0  0  0  0  0  0  0
    0.3773   -1.8513    5.3019 H   0  0  0  0  0  0  0  0  0  0  0  0
   -1.9971   -2.5085    6.8553 H   0  0  0  0  0  0  0  0  0  0  0  0
   -1.4408   -3.0362    5.2765 H   0  0  0  0  0  0  0  0  0  0  0  0
   -0.5951   -4.0200    7.8118 H   0  0  0  0  0  0  0  0  0  0  0  0
    0.2602   -4.4563    6.3854 H   0  0  0  0  0  0  0  0  0  0  0  0
    1.3353   -2.9025    8.4474 H   0  0  0  0  0  0  0  0  0  0  0  0
    3.0805   -2.1430    7.3546 H   0  0  0  0  0  0  0  0  0  0  0  0
    3.9060   -3.1918    5.7354 H   0  0  0  0  0  0  0  0  0  0  0  0
    2.5501   -4.6021    4.6849 H   0  0  0  0  0  0  0  0  0  0  0  0
    0.7068   -2.6577    3.2915 H   0  0  0  0  0  0  0  0  0  0  0  0
    0.3262   -3.9158    4.4499 H   0  0  0  0  0  0  0  0  0  0  0  0
    0.8890   -4.3447    2.9160 H   0  0  0  0  0  0  0  0  0  0  0  0
    4.4212   -3.8352    3.0624 H   0  0  0  0  0  0  0  0  0  0  0  0
    3.2144   -4.9590    2.7156 H   0  0  0  0  0  0  0  0  0  0  0  0
    2.4453   -4.8751    0.4543 H   0  0  0  0  0  0  0  0  0  0  0  0
    2.9107   -3.5090   -0.4917 H   0  0  0  0  0  0  0  0  0  0  0  0
    4.5790   -5.3858   -0.5910 H   0  0  0  0  0  0  0  0  0  0  0  0
    4.8482   -5.2858    1.1228 H   0  0  0  0  0  0  0  0  0  0  0  0
    5.3477   -3.9424    0.0820 H   0  0  0  0  0  0  0  0  0  0  0  0
    2.5158   -1.3932    0.6017 H   0  0  0  0  0  0  0  0  0  0  0  0
    1.7856   -0.9620    2.8707 H   0  0  0  0  0  0  0  0  0  0  0  0
    5.5088   -2.3030    3.6874 H   0  0  0  0  0  0  0  0  0  0  0  0
    5.3473   -1.8034    7.4204 H   0  0  0  0  0  0  0  0  0  0  0  0
    6.8338   -1.2329    6.6734 H   0  0  0  0  0  0  0  0  0  0  0  0
    5.9855   -2.5869    5.9759 H   0  0  0  0  0  0  0  0  0  0  0  0
    6.1145    1.2049    5.9122 H   0  0  0  0  0  0  0  0  0  0  0  0
    4.4550    1.4534    5.5867 H   0  0  0  0  0  0  0  0  0  0  0  0
    5.1330    2.0871    7.9069 H   0  0  0  0  0  0  0  0  0  0  0  0
    5.6922    0.4711    8.2410 H   0  0  0  0  0  0  0  0  0  0  0  0
    3.9785    0.7784    8.0622 H   0  0  0  0  0  0  0  0  0  0  0  0
    2.8741   -0.2158    6.8500 H   0  0  0  0  0  0  0  0  0  0  0  0
    0.8717    0.7954    7.9909 H   0  0  0  0  0  0  0  0  0  0  0  0
    0.5168    2.2245    7.0372 H   0  0  0  0  0  0  0  0  0  0  0  0
    2.1478    1.7695    7.3520 H   0  0  0  0  0  0  0  0  0  0  0  0
    6.6847   -1.3975    1.7695 H   0  0  0  0  0  0  0  0  0  0  0  0
    4.4330    0.7760    1.6342 H   0  0  0  0  0  0  0  0  0  0  0  0
    5.8619    0.5069    0.4868 H   0  0  0  0  0  0  0  0  0  0  0  0
    4.3136   -1.7336   -0.9220 H   0  0  0  0  0  0  0  0  0  0  0  0
  1  2  2  0
  1 43  1  0
  1 44  1  0
  2  7  1  0
  2  3  1  0
  3  4  2  0
  3  5  1  0
  5  6  1  0
  6 37  1  0
  6  7  1  0
  6 45  1  6
  7  8  1  6
  7  9  1  0
  8 46  1  0
  9 10  1  0
  9 47  1  0
  9 48  1  0
 10 11  1  0
 10 49  1  0
 10 50  1  0
 11 37  1  0
 11 12  1  1
 11 13  1  0
 12 51  1  0
 12 52  1  0
 12 53  1  0
 13 17  1  0
 13 14  1  0
 13 54  1  6
 14 15  1  0
 14 55  1  0
 14 56  1  0
 15 16  1  0
 15 57  1  0
 15 58  1  0
 16 17  1  0
 16 18  1  0
 16 59  1  1
 18 36  1  0
 18 19  1  0
 18 60  1  1
 19 35  1  0
 19 20  1  0
 19 61  1  1
 20 21  1  0
 20 22  1  0
 20 62  1  1
 21 63  1  0
 21 64  1  0
 21 65  1  0
 22 23  1  0
 22 66  1  0
 22 67  1  0
 23 24  1  0
 23 26  1  0
 24 25  1  0
 24 68  1  0
 24 69  1  0
 25 70  1  0
 25 71  1  0
 25 72  1  0
 26 41  1  0
 26 27  1  0
 26 73  1  6
 27 28  2  0
 27 74  1  0
 35 28  1  6
 28 29  1  0
 29 30  1  0
 29 39  1  0
 29 75  1  1
 30 31  1  0
 31 32  1  1
 31 33  1  0
 31 35  1  0
 32 76  1  0
 32 77  1  0
 32 78  1  0
 33 34  1  0
 33 79  1  0
 33 80  1  0
 34 81  1  0
 34 82  1  0
 34 83  1  0
 35 36  1  0
 36 37  1  0
 36 84  1  1
 37 38  1  1
 38 85  1  0
 38 86  1  0
 38 87  1  0
 39 41  1  0
 39 40  1  0
 39 88  1  6
 40 41  1  0
 40 89  1  0
 40 90  1  0
 41 42  1  6
 42 91  1  0
M  END
>  <i_m_ct_stereo_status>  (345) 
1

>  <s_m_source_file>  (345) 
/var/tmp/pbs.5076255.sched01/tmpo_pg7vmn/129owyy42_r.sdf

>  <i_m_source_file_index>  (345) 
6

>  <i_lp_mmshare_version>  (345) 
48012

>  <i_f3d_flags>  (345) 
0

>  <s_epik_input>  (345) 
Tz1DKE8xKUMoPVtDSDJdKVtDQF0oW09IXSkoW0NIMl1bQ0gyXTIpW0NAQEhdMVtDQEBdKFtDQEBIXTM0KShbQ0gzXSlbQ0BdMihbQ0gzXSlbQ0BASF0oTzUpW0NIMl1bQ0gyXVtDQEhdNVtDQEhdM1tDQEhdKFtDQF00NjcpW0NAQEhdKFtDSDNdKVtDSDJdTihbQ0gyXVtDSDNdKVtDSF04W0NAXTkoW09IXSlbQ0BASF0oW0NIMl05KVtDQEhdKEM2PVtDSF04KU9bQ0BAXTcoW0NIM10pW0NIMl1bQ0gzXQ==

>  <s_epik_cmdline>  (345) 
J2VwaWtfcHl0aG9uJywgJy1waHQnLCAnMi4wJywgJy1waCcsICc3LjAnLCAnLXRuJywgJzgnLCAnLW1hJywgJzIwMCcsICctaW1hZScsICc8aW5maWxlLm1hZT4nLCAnLW9tYWUnLCAnPG91dGZpbGUubWFlPic=

>  <r_epik_Ionization_Penalty>  (345) 
2.13073

>  <r_epik_Ionization_Penalty_Charging>  (345) 
0

>  <r_epik_Ionization_Penalty_Neutral>  (345) 
2.13073

>  <r_epik_State_Penalty>  (345) 
2.26907

>  <r_epik_Charging_Adjusted_Penalty>  (345) 
2.26907

>  <i_epik_Tot_Q>  (345) 
0

>  <i_epik_Tot_abs_Q>  (345) 
0

>  <s_epik_Chemistry_Notes>  (345) 
This compound has an ester and may undergo hydrolysis at high or low pH.

>  <s_lp_Force_Field>  (345) 
OPLS3e

>  <r_lp_Energy>  (345) 
225.038

>  <b_lp_Chiralities_Consistent>  (345) 
1

>  <s_lp_Variant>  (345) 
93:0-2

>  <s_i_glide_gridfile>  (345) 
pfpi4k_grid

>  <i_i_glide_lignum>  (345) 
6

>  <i_i_glide_rotatable_bonds>  (345) 
4

>  <r_i_docking_score>  (345) 
-2.13481

>  <r_i_glide_ligand_efficiency>  (345) 
-0.0508288

>  <r_i_glide_ligand_efficiency_sa>  (345) 
-0.176682

>  <r_i_glide_ligand_efficiency_ln>  (345) 
-0.450603

>  <r_i_glide_gscore>  (345) 
-2.13481

>  <r_i_glide_lipo>  (345) 
-0.442666

>  <r_i_glide_hbond>  (345) 
0

>  <r_i_glide_metal>  (345) 
-0

>  <r_i_glide_rewards>  (345) 
0

>  <r_i_glide_evdw>  (345) 
-23.5572

>  <r_i_glide_ecoul>  (345) 
-3.36173

>  <r_i_glide_erotb>  (345) 
0

>  <r_i_glide_esite>  (345) 
-0.0100217

>  <r_i_glide_emodel>  (345) 
-26.5112

>  <r_i_glide_energy>  (345) 
-26.919

>  <r_i_glide_einternal>  (345) 
6.02392

>  <r_i_glide_intrahb_reward>  (345) 
-0

>  <i_i_glide_confnum>  (345) 
1

>  <i_i_glide_posenum>  (345) 
25

>  <r_i_glide_eff_state_penalty>  (345) 
0

>  <ligand_id>  (345) 
93

>  <original_smiles>  (345) 
C=C1C(=O)OC2C1(O)CCC1(C)C3CCC(O3)C3C4C(C)CN(CC)C5C=C6C(OC(C)(CC)C64C3C21C)C1CC15O

>  <smiles>  (345) 
[H]OC12C(=C([H])[H])C(=O)OC1([H])C1(C([H])([H])[H])C3([H])C([H])(C4([H])OC([H])(C([H])([H])C4([H])[H])C1(C([H])([H])[H])C([H])([H])C2([H])[H])C1([H])C([H])(C([H])([H])[H])C([H])([H])N(C([H])([H])C([H])([H])[H])C2([H])C([H])=C4C([H])(OC(C([H])([H])[H])(C([H])([H])C([H])([H])[H])C413)C1([H])C([H])([H])C21O[H]

$$$$
93:1:1
     RDKit          3D

 91 99  0  0  1  0  0  0  0  0999 V2000
   -0.6000    4.1835    3.6798 C   0  0  0  0  0  0  0  0  0  0  0  0
    0.3551    3.2866    3.9913 C   0  0  0  0  0  0  0  0  0  0  0  0
    1.5377    3.6257    4.7734 C   0  0  0  0  0  0  0  0  0  0  0  0
    1.9071    4.7538    5.1063 O   0  0  0  0  0  0  0  0  0  0  0  0
    2.1808    2.4948    5.0576 O   0  0  0  0  0  0  0  0  0  0  0  0
    1.5072    1.2983    4.6630 C   0  0  2  0  0  0  0  0  0  0  0  0
    0.3895    1.8104    3.7067 C   0  0  2  0  0  0  0  0  0  0  0  0
    0.8621    1.6280    2.3844 O   0  0  0  0  0  0  0  0  0  0  0  0
   -0.9794    1.0996    3.7820 C   0  0  0  0  0  0  0  0  0  0  0  0
   -0.8457   -0.3151    4.3477 C   0  0  0  0  0  0  0  0  0  0  0  0
   -0.3223   -0.2898    5.7972 C   0  0  1  0  0  0  0  0  0  0  0  0
   -1.4492    0.3566    6.6630 C   0  0  0  0  0  0  0  0  0  0  0  0
   -0.1044   -1.6933    6.3034 C   0  0  2  0  0  0  0  0  0  0  0  0
   -0.9333   -2.9238    6.4935 C   0  0  0  0  0  0  0  0  0  0  0  0
    0.1848   -3.7480    7.1930 C   0  0  0  0  0  0  0  0  0  0  0  0
    1.2841   -2.7208    7.6251 C   0  0  2  0  0  0  0  0  0  0  0  0
    0.4467   -1.6171    7.6041 O   0  0  0  0  0  0  0  0  0  0  0  0
    2.4706   -2.1289    6.7578 C   0  0  1  0  0  0  0  0  0  0  0  0
    3.2302   -2.6338    5.4852 C   0  0  1  0  0  0  0  0  0  0  0  0
    2.7150   -3.7082    4.3809 C   0  0  1  0  0  0  0  0  0  0  0  0
    1.2335   -3.7969    3.9376 C   0  0  0  0  0  0  0  0  0  0  0  0
    3.5580   -3.9497    3.0633 C   0  0  0  0  0  0  0  0  0  0  0  0
    3.0453   -3.3728    1.7702 N   0  0  0  0  0  0  0  0  0  0  0  0
    3.2778   -4.2205    0.6012 C   0  0  0  0  0  0  0  0  0  0  0  0
    2.5155   -5.5554    0.6370 C   0  0  0  0  0  0  0  0  0  0  0  0
    3.2167   -1.9116    1.4970 C   0  0  1  0  0  0  0  0  0  0  0  0
    2.8328   -1.2081    2.7820 C   0  0  0  0  0  0  0  0  0  0  0  0
    3.7749   -1.0853    3.7281 C   0  0  0  0  0  0  0  0  0  0  0  0
    5.2515   -1.2260    3.4693 C   0  0  2  0  0  0  0  0  0  0  0  0
    5.8201   -0.3457    4.3839 O   0  0  0  0  0  0  0  0  0  0  0  0
    5.0961   -0.5090    5.6080 C   0  0  1  0  0  0  0  0  0  0  0  0
    5.9614   -1.4210    6.5141 C   0  0  0  0  0  0  0  0  0  0  0  0
    5.0896    0.9590    6.1208 C   0  0  0  0  0  0  0  0  0  0  0  0
    6.4692    1.6460    6.2442 C   0  0  0  0  0  0  0  0  0  0  0  0
    3.6546   -1.1039    5.2242 C   0  0  2  0  0  0  0  0  0  0  0  0
    2.4279   -0.6687    6.1308 C   0  0  1  0  0  0  0  0  0  0  0  0
    1.1672    0.3668    5.8933 C   0  0  1  0  0  0  0  0  0  0  0  0
    1.1348    1.2799    7.1783 C   0  0  0  0  0  0  0  0  0  0  0  0
    5.6525   -1.0396    2.0319 C   0  0  2  0  0  0  0  0  0  0  0  0
    5.0218    0.0167    1.1752 C   0  0  0  0  0  0  0  0  0  0  0  0
    4.6053   -1.4345    1.0303 C   0  0  2  0  0  0  0  0  0  0  0  0
    5.0790   -1.8964   -0.2211 O   0  0  0  0  0  0  0  0  0  0  0  0
   -1.4720    3.8933    3.1135 H   0  0  0  0  0  0  0  0  0  0  0  0
   -0.4952    5.2218    3.9570 H   0  0  0  0  0  0  0  0  0  0  0  0
    2.2259    0.7787    4.0518 H   0  0  0  0  0  0  0  0  0  0  0  0
    0.5142    2.3245    1.8395 H   0  0  0  0  0  0  0  0  0  0  0  0
   -1.6925    1.6776    4.3683 H   0  0  0  0  0  0  0  0  0  0  0  0
   -1.4344    1.0437    2.7908 H   0  0  0  0  0  0  0  0  0  0  0  0
   -1.8075   -0.8241    4.3015 H   0  0  0  0  0  0  0  0  0  0  0  0
   -0.1862   -0.8837    3.7016 H   0  0  0  0  0  0  0  0  0  0  0  0
   -1.2700    0.2434    7.7328 H   0  0  0  0  0  0  0  0  0  0  0  0
   -2.4174   -0.0971    6.4398 H   0  0  0  0  0  0  0  0  0  0  0  0
   -1.5692    1.4263    6.4878 H   0  0  0  0  0  0  0  0  0  0  0  0
    0.5214   -2.0344    5.4924 H   0  0  0  0  0  0  0  0  0  0  0  0
   -1.7830   -2.7701    7.1443 H   0  0  0  0  0  0  0  0  0  0  0  0
   -1.2770   -3.3528    5.5684 H   0  0  0  0  0  0  0  0  0  0  0  0
   -0.2655   -4.1825    8.0867 H   0  0  0  0  0  0  0  0  0  0  0  0
    0.5852   -4.6017    6.6554 H   0  0  0  0  0  0  0  0  0  0  0  0
    1.5976   -2.9175    8.6503 H   0  0  0  0  0  0  0  0  0  0  0  0
    3.2793   -2.0936    7.4915 H   0  0  0  0  0  0  0  0  0  0  0  0
    4.1145   -3.1183    5.8907 H   0  0  0  0  0  0  0  0  0  0  0  0
    2.8408   -4.6558    4.9092 H   0  0  0  0  0  0  0  0  0  0  0  0
    0.8399   -2.8893    3.4974 H   0  0  0  0  0  0  0  0  0  0  0  0
    0.5649   -4.1242    4.7071 H   0  0  0  0  0  0  0  0  0  0  0  0
    1.1212   -4.5714    3.1794 H   0  0  0  0  0  0  0  0  0  0  0  0
    4.6223   -3.8038    3.1844 H   0  0  0  0  0  0  0  0  0  0  0  0
    3.5220   -5.0319    2.9732 H   0  0  0  0  0  0  0  0  0  0  0  0
    2.9477   -3.6908   -0.2937 H   0  0  0  0  0  0  0  0  0  0  0  0
    4.3453   -4.4015    0.4720 H   0  0  0  0  0  0  0  0  0  0  0  0
    2.5911   -6.0672   -0.3209 H   0  0  0  0  0  0  0  0  0  0  0  0
    1.4591   -5.3902    0.8395 H   0  0  0  0  0  0  0  0  0  0  0  0
    2.8949   -6.2398    1.3954 H   0  0  0  0  0  0  0  0  0  0  0  0
    2.4968   -1.5961    0.7401 H   0  0  0  0  0  0  0  0  0  0  0  0
    1.7890   -1.1399    3.0137 H   0  0  0  0  0  0  0  0  0  0  0  0
    5.6165   -2.2075    3.7687 H   0  0  0  0  0  0  0  0  0  0  0  0
    5.4956   -1.5764    7.4843 H   0  0  0  0  0  0  0  0  0  0  0  0
    6.9520   -1.0020    6.6922 H   0  0  0  0  0  0  0  0  0  0  0  0
    6.1434   -2.3951    6.0634 H   0  0  0  0  0  0  0  0  0  0  0  0
    4.4977    1.5532    5.4294 H   0  0  0  0  0  0  0  0  0  0  0  0
    4.6177    1.0357    7.0966 H   0  0  0  0  0  0  0  0  0  0  0  0
    6.3417    2.6864    6.5468 H   0  0  0  0  0  0  0  0  0  0  0  0
    7.0238    1.6492    5.3030 H   0  0  0  0  0  0  0  0  0  0  0  0
    7.0971    1.1750    6.9994 H   0  0  0  0  0  0  0  0  0  0  0  0
    2.9353   -0.1902    6.9573 H   0  0  0  0  0  0  0  0  0  0  0  0
    0.8823    0.7286    8.0834 H   0  0  0  0  0  0  0  0  0  0  0  0
    0.4240    2.1017    7.0917 H   0  0  0  0  0  0  0  0  0  0  0  0
    2.0935    1.7500    7.3975 H   0  0  0  0  0  0  0  0  0  0  0  0
    6.6764   -1.3006    1.7915 H   0  0  0  0  0  0  0  0  0  0  0  0
    4.3146    0.7061    1.6347 H   0  0  0  0  0  0  0  0  0  0  0  0
    5.7289    0.4609    0.4808 H   0  0  0  0  0  0  0  0  0  0  0  0
    4.3524   -1.8718   -0.8282 H   0  0  0  0  0  0  0  0  0  0  0  0
  1  2  2  0
  1 43  1  0
  1 44  1  0
  2  7  1  0
  2  3  1  0
  3  4  2  0
  3  5  1  0
  5  6  1  0
  6 37  1  0
  6  7  1  0
  6 45  1  6
  7  8  1  6
  7  9  1  0
  8 46  1  0
  9 10  1  0
  9 47  1  0
  9 48  1  0
 10 11  1  0
 10 49  1  0
 10 50  1  0
 11 37  1  0
 11 12  1  1
 11 13  1  0
 12 51  1  0
 12 52  1  0
 12 53  1  0
 13 17  1  0
 13 14  1  0
 13 54  1  6
 14 15  1  0
 14 55  1  0
 14 56  1  0
 15 16  1  0
 15 57  1  0
 15 58  1  0
 16 17  1  0
 16 18  1  0
 16 59  1  1
 18 36  1  0
 18 19  1  0
 18 60  1  1
 19 35  1  0
 19 20  1  0
 19 61  1  1
 20 21  1  0
 20 22  1  0
 20 62  1  1
 21 63  1  0
 21 64  1  0
 21 65  1  0
 22 23  1  0
 22 66  1  0
 22 67  1  0
 23 24  1  0
 23 26  1  0
 24 25  1  0
 24 68  1  0
 24 69  1  0
 25 70  1  0
 25 71  1  0
 25 72  1  0
 26 41  1  0
 26 27  1  0
 26 73  1  6
 27 28  2  0
 27 74  1  0
 35 28  1  6
 28 29  1  0
 29 30  1  0
 29 39  1  0
 29 75  1  1
 30 31  1  0
 31 32  1  1
 31 33  1  0
 31 35  1  0
 32 76  1  0
 32 77  1  0
 32 78  1  0
 33 34  1  0
 33 79  1  0
 33 80  1  0
 34 81  1  0
 34 82  1  0
 34 83  1  0
 35 36  1  0
 36 37  1  0
 36 84  1  1
 37 38  1  1
 38 85  1  0
 38 86  1  0
 38 87  1  0
 39 41  1  0
 39 40  1  0
 39 88  1  6
 40 41  1  0
 40 89  1  0
 40 90  1  0
 41 42  1  6
 42 91  1  0
M  END
>  <i_m_ct_stereo_status>  (346) 
1

>  <s_m_source_file>  (346) 
/var/tmp/pbs.5076255.sched01/tmpo_pg7vmn/129owyy42_r.sdf

>  <i_m_source_file_index>  (346) 
6

>  <i_lp_mmshare_version>  (346) 
48012

>  <i_f3d_flags>  (346) 
0

>  <s_epik_input>  (346) 
Tz1DKE8xKUMoPVtDSDJdKVtDQF0oW09IXSkoW0NIMl1bQ0gyXTIpW0NAQEhdMVtDQEBdKFtDQEBIXTM0KShbQ0gzXSlbQ0BdMihbQ0gzXSlbQ0BASF0oTzUpW0NIMl1bQ0gyXVtDQEhdNVtDQEhdM1tDQEhdKFtDQF00NjcpW0NAQEhdKFtDSDNdKVtDSDJdTihbQ0gyXVtDSDNdKVtDSF04W0NAXTkoW09IXSlbQ0BASF0oW0NIMl05KVtDQEhdKEM2PVtDSF04KU9bQ0BAXTcoW0NIM10pW0NIMl1bQ0gzXQ==

>  <s_epik_cmdline>  (346) 
J2VwaWtfcHl0aG9uJywgJy1waHQnLCAnMi4wJywgJy1waCcsICc3LjAnLCAnLXRuJywgJzgnLCAnLW1hJywgJzIwMCcsICctaW1hZScsICc8aW5maWxlLm1hZT4nLCAnLW9tYWUnLCAnPG91dGZpbGUubWFlPic=

>  <r_epik_Ionization_Penalty>  (346) 
2.13073

>  <r_epik_Ionization_Penalty_Charging>  (346) 
0

>  <r_epik_Ionization_Penalty_Neutral>  (346) 
2.13073

>  <r_epik_State_Penalty>  (346) 
2.26907

>  <r_epik_Charging_Adjusted_Penalty>  (346) 
2.26907

>  <i_epik_Tot_Q>  (346) 
0

>  <i_epik_Tot_abs_Q>  (346) 
0

>  <s_epik_Chemistry_Notes>  (346) 
This compound has an ester and may undergo hydrolysis at high or low pH.

>  <s_lp_Force_Field>  (346) 
OPLS3e

>  <r_lp_Energy>  (346) 
225.038

>  <b_lp_Chiralities_Consistent>  (346) 
1

>  <s_lp_Variant>  (346) 
93:0-2

>  <s_i_glide_gridfile>  (346) 
pfpi4k_grid

>  <i_i_glide_lignum>  (346) 
6

>  <i_i_glide_rotatable_bonds>  (346) 
4

>  <r_i_docking_score>  (346) 
-2.02519

>  <r_i_glide_ligand_efficiency>  (346) 
-0.0482188

>  <r_i_glide_ligand_efficiency_sa>  (346) 
-0.16761

>  <r_i_glide_ligand_efficiency_ln>  (346) 
-0.427465

>  <r_i_glide_gscore>  (346) 
-2.02519

>  <r_i_glide_lipo>  (346) 
-0.471524

>  <r_i_glide_hbond>  (346) 
0

>  <r_i_glide_metal>  (346) 
-0

>  <r_i_glide_rewards>  (346) 
0

>  <r_i_glide_evdw>  (346) 
-24.2766

>  <r_i_glide_ecoul>  (346) 
-2.18637

>  <r_i_glide_erotb>  (346) 
0

>  <r_i_glide_esite>  (346) 
-0.0118794

>  <r_i_glide_emodel>  (346) 
-28.4332

>  <r_i_glide_energy>  (346) 
-26.463

>  <r_i_glide_einternal>  (346) 
1.57391

>  <r_i_glide_intrahb_reward>  (346) 
-0

>  <i_i_glide_confnum>  (346) 
2

>  <i_i_glide_posenum>  (346) 
15

>  <r_i_glide_eff_state_penalty>  (346) 
0

>  <ligand_id>  (346) 
93

>  <original_smiles>  (346) 
C=C1C(=O)OC2C1(O)CCC1(C)C3CCC(O3)C3C4C(C)CN(CC)C5C=C6C(OC(C)(CC)C64C3C21C)C1CC15O

>  <smiles>  (346) 
[H]OC12C(=C([H])[H])C(=O)OC1([H])C1(C([H])([H])[H])C3([H])C([H])(C4([H])OC([H])(C([H])([H])C4([H])[H])C1(C([H])([H])[H])C([H])([H])C2([H])[H])C1([H])C([H])(C([H])([H])[H])C([H])([H])N(C([H])([H])C([H])([H])[H])C2([H])C([H])=C4C([H])(OC(C([H])([H])[H])(C([H])([H])C([H])([H])[H])C413)C1([H])C([H])([H])C21O[H]

$$$$
95:0:0
     RDKit          3D

 53 56  0  0  1  0  0  0  0  0999 V2000
    4.6633   -9.7264    2.4306 C   0  0  0  0  0  0  0  0  0  0  0  0
    3.2146   -9.5048    2.8244 C   0  0  0  0  0  0  0  0  0  0  0  0
    2.6550  -10.7112    3.5925 C   0  0  0  0  0  0  0  0  0  0  0  0
    2.5079   -8.3572    2.5611 C   0  0  0  0  0  0  0  0  0  0  0  0
    3.1646   -7.3599    1.8151 N   0  0  0  0  0  0  0  0  0  0  0  0
    2.6365   -6.1374    1.4095 C   0  0  0  0  0  0  0  0  0  0  0  0
    1.4913   -5.7327    1.5597 O   0  0  0  0  0  0  0  0  0  0  0  0
    3.6363   -5.4374    0.8311 O   0  0  0  0  0  0  0  0  0  0  0  0
    3.4263   -4.0830    0.4417 C   0  0  2  0  0  0  0  0  0  0  0  0
    4.3764   -3.7335   -0.7107 C   0  0  2  0  0  0  0  0  0  0  0  0
    5.8334   -3.8577   -0.2316 C   0  0  0  0  0  0  0  0  0  0  0  0
    6.0648   -2.9006    0.9594 C   0  0  1  0  0  0  0  0  0  0  0  0
    5.7960   -1.4548    0.5026 C   0  0  0  0  0  0  0  0  0  0  0  0
    4.3300   -1.3256    0.0303 C   0  0  1  0  0  0  0  0  0  0  0  0
    4.0828   -2.2823   -1.1552 C   0  0  0  0  0  0  0  0  0  0  0  0
    3.3827   -1.6851    1.1909 C   0  0  0  0  0  0  0  0  0  0  0  0
    3.6557   -3.1351    1.6395 C   0  0  2  0  0  0  0  0  0  0  0  0
    5.1172   -3.2694    2.1195 C   0  0  0  0  0  0  0  0  0  0  0  0
    1.1469   -8.1692    3.0799 C   0  0  0  0  0  0  0  0  0  0  0  0
    0.8919   -8.0965    4.4057 C   0  0  0  0  0  0  0  0  0  0  0  0
    1.9038   -8.2625    5.5397 C   0  0  0  0  0  0  0  0  0  0  0  0
   -0.5385   -7.9006    4.8038 C   0  0  0  0  0  0  0  0  0  0  0  0
   -1.4408   -7.4857    3.2875 S   0  0  0  0  0  0  0  0  0  0  0  0
   -0.1064   -8.0544    2.1946 C   0  0  0  0  0  0  0  0  0  0  0  0
    4.7485  -10.6095    1.7997 H   0  0  0  0  0  0  0  0  0  0  0  0
    5.2707   -9.9147    3.3194 H   0  0  0  0  0  0  0  0  0  0  0  0
    5.1268   -8.8962    1.8957 H   0  0  0  0  0  0  0  0  0  0  0  0
    3.1992  -10.8380    4.5273 H   0  0  0  0  0  0  0  0  0  0  0  0
    2.7818  -11.6232    3.0143 H   0  0  0  0  0  0  0  0  0  0  0  0
    1.6019  -10.6335    3.8377 H   0  0  0  0  0  0  0  0  0  0  0  0
    4.1474   -7.4652    1.6951 H   0  0  0  0  0  0  0  0  0  0  0  0
    2.4129   -3.9608    0.0703 H   0  0  0  0  0  0  0  0  0  0  0  0
    4.2011   -4.4186   -1.5443 H   0  0  0  0  0  0  0  0  0  0  0  0
    6.0513   -4.8859    0.0658 H   0  0  0  0  0  0  0  0  0  0  0  0
    6.5110   -3.6249   -1.0518 H   0  0  0  0  0  0  0  0  0  0  0  0
    7.0942   -2.9970    1.2924 H   0  0  0  0  0  0  0  0  0  0  0  0
    5.9976   -0.7516    1.3098 H   0  0  0  0  0  0  0  0  0  0  0  0
    6.4691   -1.1939   -0.3133 H   0  0  0  0  0  0  0  0  0  0  0  0
    4.1440   -0.2998   -0.2846 H   0  0  0  0  0  0  0  0  0  0  0  0
    4.7238   -2.0249   -1.9990 H   0  0  0  0  0  0  0  0  0  0  0  0
    3.0533   -2.1883   -1.5088 H   0  0  0  0  0  0  0  0  0  0  0  0
    3.5303   -1.0010    2.0273 H   0  0  0  0  0  0  0  0  0  0  0  0
    2.3462   -1.5713    0.8803 H   0  0  0  0  0  0  0  0  0  0  0  0
    2.9734   -3.3855    2.4569 H   0  0  0  0  0  0  0  0  0  0  0  0
    5.3099   -4.2934    2.4473 H   0  0  0  0  0  0  0  0  0  0  0  0
    5.2920   -2.6332    2.9861 H   0  0  0  0  0  0  0  0  0  0  0  0
    1.7276   -9.2062    6.0728 H   0  0  0  0  0  0  0  0  0  0  0  0
    1.8442   -7.4502    6.2739 H   0  0  0  0  0  0  0  0  0  0  0  0
    2.9561   -8.2886    5.2094 H   0  0  0  0  0  0  0  0  0  0  0  0
   -0.9534   -8.8020    5.2497 H   0  0  0  0  0  0  0  0  0  0  0  0
   -0.6242   -7.0816    5.5100 H   0  0  0  0  0  0  0  0  0  0  0  0
    0.0045   -7.3648    1.3661 H   0  0  0  0  0  0  0  0  0  0  0  0
   -0.3461   -9.0625    1.8109 H   0  0  0  0  0  0  0  0  0  0  0  0
  1  2  1  0
  1 25  1  0
  1 26  1  0
  1 27  1  0
  2  3  1  0
  2  4  2  3
  3 28  1  0
  3 29  1  0
  3 30  1  0
  4  5  1  0
  4 19  1  0
  5  6  1  0
  5 31  1  0
  6  7  2  0
  6  8  1  0
  8  9  1  0
  9 17  1  0
  9 10  1  0
  9 32  1  6
 10 15  1  0
 10 11  1  0
 10 33  1  6
 11 12  1  0
 11 34  1  0
 11 35  1  0
 12 18  1  0
 12 13  1  0
 12 36  1  1
 13 14  1  0
 13 37  1  0
 13 38  1  0
 14 15  1  0
 14 16  1  0
 14 39  1  6
 15 40  1  0
 15 41  1  0
 16 17  1  0
 16 42  1  0
 16 43  1  0
 17 18  1  0
 17 44  1  1
 18 45  1  0
 18 46  1  0
 19 24  1  0
 19 20  2  0
 20 21  1  0
 20 22  1  0
 21 47  1  0
 21 48  1  0
 21 49  1  0
 22 23  1  0
 22 50  1  0
 22 51  1  0
 23 24  1  0
 24 52  1  0
 24 53  1  0
M  END
>  <i_m_ct_stereo_status>  (347) 
1

>  <s_m_source_file>  (347) 
/var/tmp/pbs.5076255.sched01/tmpo_pg7vmn/129owyy42_r.sdf

>  <i_m_source_file_index>  (347) 
8

>  <i_lp_mmshare_version>  (347) 
48012

>  <i_f3d_flags>  (347) 
0

>  <s_epik_input>  (347) 
W0NIMl0xU1tDSDJdQyhbQ0gzXSk9QzFDKD1DKFtDSDNdKVtDSDNdKVtOSF1DKD1PKU9bQ0BIXShbQ0BIXTIzKVtDQEBIXTRbQ0gyXVtDQEhdKFtDSDJdMylbQ0gyXVtDQEhdKFtDSDJdMilbQ0gyXTQ=

>  <s_epik_cmdline>  (347) 
J2VwaWtfcHl0aG9uJywgJy1waHQnLCAnMi4wJywgJy1waCcsICc3LjAnLCAnLXRuJywgJzgnLCAnLW1hJywgJzIwMCcsICctaW1hZScsICc8aW5maWxlLm1hZT4nLCAnLW9tYWUnLCAnPG91dGZpbGUubWFlPic=

>  <r_lp_tautomer_probability>  (347) 
1

>  <r_epik_Ionization_Penalty>  (347) 
2.89801e-06

>  <r_epik_Ionization_Penalty_Charging>  (347) 
0

>  <r_epik_Ionization_Penalty_Neutral>  (347) 
2.89801e-06

>  <r_epik_State_Penalty>  (347) 
-0

>  <r_epik_Charging_Adjusted_Penalty>  (347) 
0

>  <i_epik_Tot_Q>  (347) 
0

>  <i_epik_Tot_abs_Q>  (347) 
0

>  <s_epik_Chemistry_Notes>  (347) 
This compound has an ester and may undergo hydrolysis at high or low pH.

>  <s_lp_Force_Field>  (347) 
OPLS3e

>  <r_lp_Energy>  (347) 
10.2098

>  <b_lp_Chiralities_Consistent>  (347) 
1

>  <s_lp_Variant>  (347) 
95:0-1

>  <s_i_glide_gridfile>  (347) 
pfpi4k_grid

>  <i_i_glide_lignum>  (347) 
8

>  <i_i_glide_rotatable_bonds>  (347) 
5

>  <r_i_docking_score>  (347) 
-2.81141

>  <r_i_glide_ligand_efficiency>  (347) 
-0.117142

>  <r_i_glide_ligand_efficiency_sa>  (347) 
-0.337896

>  <r_i_glide_ligand_efficiency_ln>  (347) 
-0.6729

>  <r_i_glide_gscore>  (347) 
-2.81141

>  <r_i_glide_lipo>  (347) 
-0.291759

>  <r_i_glide_hbond>  (347) 
-0.107454

>  <r_i_glide_metal>  (347) 
-0

>  <r_i_glide_rewards>  (347) 
-1.03967

>  <r_i_glide_evdw>  (347) 
-28.6958

>  <r_i_glide_ecoul>  (347) 
-3.74083

>  <r_i_glide_erotb>  (347) 
0.630149

>  <r_i_glide_esite>  (347) 
-0.00676834

>  <r_i_glide_emodel>  (347) 
-36.7237

>  <r_i_glide_energy>  (347) 
-32.4366

>  <r_i_glide_einternal>  (347) 
0.690108

>  <r_i_glide_intrahb_reward>  (347) 
-0

>  <i_i_glide_confnum>  (347) 
1

>  <i_i_glide_posenum>  (347) 
36

>  <r_i_glide_eff_state_penalty>  (347) 
0

>  <ligand_id>  (347) 
95

>  <original_smiles>  (347) 
CC(C)=C(NC(=O)OC1C2CC3CC(C2)CC1C3)C1=C(C)CSC1

>  <smiles>  (347) 
[H]N(C(=O)OC1([H])C2([H])C([H])([H])C3([H])C([H])([H])C([H])(C2([H])[H])C([H])([H])C1([H])C3([H])[H])C(=C(C([H])([H])[H])C([H])([H])[H])C1=C(C([H])([H])[H])C([H])([H])SC1([H])[H]

$$$$
95:0:1
     RDKit          3D

 53 56  0  0  1  0  0  0  0  0999 V2000
    4.3397   -8.8333    4.6684 C   0  0  0  0  0  0  0  0  0  0  0  0
    2.8341   -8.7511    4.4548 C   0  0  0  0  0  0  0  0  0  0  0  0
    2.0890   -9.6549    5.4521 C   0  0  0  0  0  0  0  0  0  0  0  0
    2.2396   -7.9798    3.5017 C   0  0  0  0  0  0  0  0  0  0  0  0
    3.0571   -7.2128    2.6533 N   0  0  0  0  0  0  0  0  0  0  0  0
    2.6841   -6.3647    1.6207 C   0  0  0  0  0  0  0  0  0  0  0  0
    1.5536   -6.1354    1.2001 O   0  0  0  0  0  0  0  0  0  0  0  0
    3.8002   -5.7941    1.1308 O   0  0  0  0  0  0  0  0  0  0  0  0
    3.7393   -4.6657    0.2658 C   0  0  2  0  0  0  0  0  0  0  0  0
    5.0034   -4.6343   -0.6078 C   0  0  2  0  0  0  0  0  0  0  0  0
    6.2461   -4.4527    0.2876 C   0  0  0  0  0  0  0  0  0  0  0  0
    6.1221   -3.1314    1.0733 C   0  0  1  0  0  0  0  0  0  0  0  0
    6.0251   -1.9556    0.0808 C   0  0  0  0  0  0  0  0  0  0  0  0
    4.7717   -2.1344   -0.8038 C   0  0  1  0  0  0  0  0  0  0  0  0
    4.8855   -3.4541   -1.5949 C   0  0  0  0  0  0  0  0  0  0  0  0
    3.5109   -2.1729    0.0873 C   0  0  0  0  0  0  0  0  0  0  0  0
    3.6162   -3.3531    1.0751 C   0  0  2  0  0  0  0  0  0  0  0  0
    4.8651   -3.1792    1.9667 C   0  0  0  0  0  0  0  0  0  0  0  0
    0.7917   -7.9809    3.3322 C   0  0  0  0  0  0  0  0  0  0  0  0
    0.1226   -9.0921    2.9866 C   0  0  0  0  0  0  0  0  0  0  0  0
    0.7317  -10.4473    2.7060 C   0  0  0  0  0  0  0  0  0  0  0  0
   -1.3680   -8.9795    2.8944 C   0  0  0  0  0  0  0  0  0  0  0  0
   -1.7873   -7.4236    3.7121 S   0  0  0  0  0  0  0  0  0  0  0  0
   -0.0971   -6.7810    3.6362 C   0  0  0  0  0  0  0  0  0  0  0  0
    4.6657   -9.8658    4.5261 H   0  0  0  0  0  0  0  0  0  0  0  0
    4.5929   -8.5448    5.6930 H   0  0  0  0  0  0  0  0  0  0  0  0
    4.9298   -8.2139    3.9897 H   0  0  0  0  0  0  0  0  0  0  0  0
    2.2490   -9.3346    6.4835 H   0  0  0  0  0  0  0  0  0  0  0  0
    2.4682  -10.6720    5.3613 H   0  0  0  0  0  0  0  0  0  0  0  0
    1.0124   -9.7121    5.3083 H   0  0  0  0  0  0  0  0  0  0  0  0
    4.0499   -7.3248    2.7718 H   0  0  0  0  0  0  0  0  0  0  0  0
    2.8799   -4.7788   -0.3870 H   0  0  0  0  0  0  0  0  0  0  0  0
    5.0587   -5.5766   -1.1583 H   0  0  0  0  0  0  0  0  0  0  0  0
    6.3568   -5.2924    0.9758 H   0  0  0  0  0  0  0  0  0  0  0  0
    7.1471   -4.4390   -0.3211 H   0  0  0  0  0  0  0  0  0  0  0  0
    7.0098   -3.0074    1.6888 H   0  0  0  0  0  0  0  0  0  0  0  0
    5.9818   -1.0062    0.6152 H   0  0  0  0  0  0  0  0  0  0  0  0
    6.9198   -1.9253   -0.5411 H   0  0  0  0  0  0  0  0  0  0  0  0
    4.6955   -1.2982   -1.4976 H   0  0  0  0  0  0  0  0  0  0  0  0
    5.7548   -3.4392   -2.2481 H   0  0  0  0  0  0  0  0  0  0  0  0
    4.0154   -3.5885   -2.2392 H   0  0  0  0  0  0  0  0  0  0  0  0
    3.4065   -1.2345    0.6345 H   0  0  0  0  0  0  0  0  0  0  0  0
    2.6176   -2.2690   -0.5274 H   0  0  0  0  0  0  0  0  0  0  0  0
    2.7180   -3.3750    1.6959 H   0  0  0  0  0  0  0  0  0  0  0  0
    4.9410   -4.0072    2.6730 H   0  0  0  0  0  0  0  0  0  0  0  0
    4.7794   -2.2750    2.5659 H   0  0  0  0  0  0  0  0  0  0  0  0
    0.5044  -10.6802    1.6844 H   0  0  0  0  0  0  0  0  0  0  0  0
    0.2834  -11.2218    3.3321 H   0  0  0  0  0  0  0  0  0  0  0  0
    1.8218  -10.5017    2.8094 H   0  0  0  0  0  0  0  0  0  0  0  0
   -1.7345   -9.0481    1.8638 H   0  0  0  0  0  0  0  0  0  0  0  0
   -1.8400   -9.7649    3.4705 H   0  0  0  0  0  0  0  0  0  0  0  0
    0.1687   -6.3096    4.5859 H   0  0  0  0  0  0  0  0  0  0  0  0
   -0.0545   -6.0397    2.8465 H   0  0  0  0  0  0  0  0  0  0  0  0
  1  2  1  0
  1 25  1  0
  1 26  1  0
  1 27  1  0
  2  3  1  0
  2  4  2  3
  3 28  1  0
  3 29  1  0
  3 30  1  0
  4  5  1  0
  4 19  1  0
  5  6  1  0
  5 31  1  0
  6  7  2  0
  6  8  1  0
  8  9  1  0
  9 17  1  0
  9 10  1  0
  9 32  1  6
 10 15  1  0
 10 11  1  0
 10 33  1  6
 11 12  1  0
 11 34  1  0
 11 35  1  0
 12 18  1  0
 12 13  1  0
 12 36  1  1
 13 14  1  0
 13 37  1  0
 13 38  1  0
 14 15  1  0
 14 16  1  0
 14 39  1  6
 15 40  1  0
 15 41  1  0
 16 17  1  0
 16 42  1  0
 16 43  1  0
 17 18  1  0
 17 44  1  1
 18 45  1  0
 18 46  1  0
 19 24  1  0
 19 20  2  0
 20 21  1  0
 20 22  1  0
 21 47  1  0
 21 48  1  0
 21 49  1  0
 22 23  1  0
 22 50  1  0
 22 51  1  0
 23 24  1  0
 24 52  1  0
 24 53  1  0
M  END
>  <i_m_ct_stereo_status>  (348) 
1

>  <s_m_source_file>  (348) 
/var/tmp/pbs.5076255.sched01/tmpo_pg7vmn/129owyy42_r.sdf

>  <i_m_source_file_index>  (348) 
8

>  <i_lp_mmshare_version>  (348) 
48012

>  <i_f3d_flags>  (348) 
0

>  <s_epik_input>  (348) 
W0NIMl0xU1tDSDJdQyhbQ0gzXSk9QzFDKD1DKFtDSDNdKVtDSDNdKVtOSF1DKD1PKU9bQ0BIXShbQ0BIXTIzKVtDQEBIXTRbQ0gyXVtDQEhdKFtDSDJdMylbQ0gyXVtDQEhdKFtDSDJdMilbQ0gyXTQ=

>  <s_epik_cmdline>  (348) 
J2VwaWtfcHl0aG9uJywgJy1waHQnLCAnMi4wJywgJy1waCcsICc3LjAnLCAnLXRuJywgJzgnLCAnLW1hJywgJzIwMCcsICctaW1hZScsICc8aW5maWxlLm1hZT4nLCAnLW9tYWUnLCAnPG91dGZpbGUubWFlPic=

>  <r_lp_tautomer_probability>  (348) 
1

>  <r_epik_Ionization_Penalty>  (348) 
2.89801e-06

>  <r_epik_Ionization_Penalty_Charging>  (348) 
0

>  <r_epik_Ionization_Penalty_Neutral>  (348) 
2.89801e-06

>  <r_epik_State_Penalty>  (348) 
-0

>  <r_epik_Charging_Adjusted_Penalty>  (348) 
0

>  <i_epik_Tot_Q>  (348) 
0

>  <i_epik_Tot_abs_Q>  (348) 
0

>  <s_epik_Chemistry_Notes>  (348) 
This compound has an ester and may undergo hydrolysis at high or low pH.

>  <s_lp_Force_Field>  (348) 
OPLS3e

>  <r_lp_Energy>  (348) 
10.2098

>  <b_lp_Chiralities_Consistent>  (348) 
1

>  <s_lp_Variant>  (348) 
95:0-1

>  <s_i_glide_gridfile>  (348) 
pfpi4k_grid

>  <i_i_glide_lignum>  (348) 
8

>  <i_i_glide_rotatable_bonds>  (348) 
5

>  <r_i_docking_score>  (348) 
-2.79823

>  <r_i_glide_ligand_efficiency>  (348) 
-0.116593

>  <r_i_glide_ligand_efficiency_sa>  (348) 
-0.336312

>  <r_i_glide_ligand_efficiency_ln>  (348) 
-0.669745

>  <r_i_glide_gscore>  (348) 
-2.79823

>  <r_i_glide_lipo>  (348) 
-0.44173

>  <r_i_glide_hbond>  (348) 
-0.0698598

>  <r_i_glide_metal>  (348) 
-0

>  <r_i_glide_rewards>  (348) 
-1.03967

>  <r_i_glide_evdw>  (348) 
-27.4245

>  <r_i_glide_ecoul>  (348) 
-3.35483

>  <r_i_glide_erotb>  (348) 
0.630149

>  <r_i_glide_esite>  (348) 
-0.00267259

>  <r_i_glide_emodel>  (348) 
-35.9258

>  <r_i_glide_energy>  (348) 
-30.7793

>  <r_i_glide_einternal>  (348) 
0.741239

>  <r_i_glide_intrahb_reward>  (348) 
-0

>  <i_i_glide_confnum>  (348) 
1

>  <i_i_glide_posenum>  (348) 
1

>  <r_i_glide_eff_state_penalty>  (348) 
0

>  <ligand_id>  (348) 
95

>  <original_smiles>  (348) 
CC(C)=C(NC(=O)OC1C2CC3CC(C2)CC1C3)C1=C(C)CSC1

>  <smiles>  (348) 
[H]N(C(=O)OC1([H])C2([H])C([H])([H])C3([H])C([H])([H])C([H])(C2([H])[H])C([H])([H])C1([H])C3([H])[H])C(=C(C([H])([H])[H])C([H])([H])[H])C1=C(C([H])([H])[H])C([H])([H])SC1([H])[H]

$$$$
95:0:2
     RDKit          3D

 53 56  0  0  1  0  0  0  0  0999 V2000
    3.3174   -9.4288    1.3697 C   0  0  0  0  0  0  0  0  0  0  0  0
    2.3160   -8.9243    2.3871 C   0  0  0  0  0  0  0  0  0  0  0  0
    1.5765  -10.0929    3.0627 C   0  0  0  0  0  0  0  0  0  0  0  0
    2.0920   -7.5996    2.6580 C   0  0  0  0  0  0  0  0  0  0  0  0
    2.8664   -6.6543    1.9422 N   0  0  0  0  0  0  0  0  0  0  0  0
    2.8449   -5.2826    2.0344 C   0  0  0  0  0  0  0  0  0  0  0  0
    2.0624   -4.5870    2.6847 O   0  0  0  0  0  0  0  0  0  0  0  0
    3.8410   -4.7973    1.2727 O   0  0  0  0  0  0  0  0  0  0  0  0
    4.1985   -3.4237    1.3225 C   0  0  2  0  0  0  0  0  0  0  0  0
    3.2427   -2.5375    0.4879 C   0  0  2  0  0  0  0  0  0  0  0  0
    3.2995   -2.9569   -0.9971 C   0  0  0  0  0  0  0  0  0  0  0  0
    4.7421   -2.8038   -1.5089 C   0  0  1  0  0  0  0  0  0  0  0  0
    5.1697   -1.3313   -1.3739 C   0  0  0  0  0  0  0  0  0  0  0  0
    5.1252   -0.9153    0.1133 C   0  0  1  0  0  0  0  0  0  0  0  0
    3.6844   -1.0690    0.6374 C   0  0  0  0  0  0  0  0  0  0  0  0
    6.0767   -1.8055    0.9351 C   0  0  0  0  0  0  0  0  0  0  0  0
    5.6399   -3.2757    0.7976 C   0  0  2  0  0  0  0  0  0  0  0  0
    5.6890   -3.7041   -0.6849 C   0  0  0  0  0  0  0  0  0  0  0  0
    1.0858   -7.1739    3.6253 C   0  0  0  0  0  0  0  0  0  0  0  0
   -0.2165   -7.4631    3.4232 C   0  0  0  0  0  0  0  0  0  0  0  0
   -0.8436   -8.1998    2.2708 C   0  0  0  0  0  0  0  0  0  0  0  0
   -1.1471   -7.0362    4.5412 C   0  0  0  0  0  0  0  0  0  0  0  0
   -0.1854   -5.9762    5.6517 S   0  0  0  0  0  0  0  0  0  0  0  0
    1.4068   -6.4794    4.9436 C   0  0  0  0  0  0  0  0  0  0  0  0
    2.7832   -9.9838    0.6001 H   0  0  0  0  0  0  0  0  0  0  0  0
    4.0304  -10.1213    1.8344 H   0  0  0  0  0  0  0  0  0  0  0  0
    3.8969   -8.6586    0.8522 H   0  0  0  0  0  0  0  0  0  0  0  0
    2.2571  -10.7544    3.6008 H   0  0  0  0  0  0  0  0  0  0  0  0
    1.0971  -10.6780    2.2766 H   0  0  0  0  0  0  0  0  0  0  0  0
    0.7908   -9.8049    3.7573 H   0  0  0  0  0  0  0  0  0  0  0  0
    3.5002   -7.0254    1.2506 H   0  0  0  0  0  0  0  0  0  0  0  0
    4.1747   -3.1056    2.3597 H   0  0  0  0  0  0  0  0  0  0  0  0
    2.2173   -2.6247    0.8503 H   0  0  0  0  0  0  0  0  0  0  0  0
    2.9613   -3.9886   -1.1177 H   0  0  0  0  0  0  0  0  0  0  0  0
    2.6164   -2.3415   -1.5813 H   0  0  0  0  0  0  0  0  0  0  0  0
    4.7871   -3.1041   -2.5585 H   0  0  0  0  0  0  0  0  0  0  0  0
    6.1716   -1.2001   -1.7767 H   0  0  0  0  0  0  0  0  0  0  0  0
    4.5082   -0.6916   -1.9584 H   0  0  0  0  0  0  0  0  0  0  0  0
    5.4373    0.1253    0.2119 H   0  0  0  0  0  0  0  0  0  0  0  0
    3.0099   -0.4222    0.0831 H   0  0  0  0  0  0  0  0  0  0  0  0
    3.6239   -0.7514    1.6812 H   0  0  0  0  0  0  0  0  0  0  0  0
    7.1032   -1.6900    0.5902 H   0  0  0  0  0  0  0  0  0  0  0  0
    6.0638   -1.5011    1.9845 H   0  0  0  0  0  0  0  0  0  0  0  0
    6.3009   -3.9135    1.3953 H   0  0  0  0  0  0  0  0  0  0  0  0
    5.3846   -4.7492   -0.7916 H   0  0  0  0  0  0  0  0  0  0  0  0
    6.7061   -3.6414   -1.0570 H   0  0  0  0  0  0  0  0  0  0  0  0
   -1.5435   -7.5886    1.7197 H   0  0  0  0  0  0  0  0  0  0  0  0
   -1.3788   -9.0825    2.6246 H   0  0  0  0  0  0  0  0  0  0  0  0
   -0.1010   -8.5577    1.5480 H   0  0  0  0  0  0  0  0  0  0  0  0
   -2.0136   -6.5183    4.1462 H   0  0  0  0  0  0  0  0  0  0  0  0
   -1.4698   -7.9259    5.0672 H   0  0  0  0  0  0  0  0  0  0  0  0
    1.9151   -7.1754    5.6280 H   0  0  0  0  0  0  0  0  0  0  0  0
    2.0226   -5.5886    4.8333 H   0  0  0  0  0  0  0  0  0  0  0  0
  1  2  1  0
  1 25  1  0
  1 26  1  0
  1 27  1  0
  2  3  1  0
  2  4  2  3
  3 28  1  0
  3 29  1  0
  3 30  1  0
  4  5  1  0
  4 19  1  0
  5  6  1  0
  5 31  1  0
  6  7  2  0
  6  8  1  0
  8  9  1  0
  9 17  1  0
  9 10  1  0
  9 32  1  1
 10 15  1  0
 10 11  1  0
 10 33  1  1
 11 12  1  0
 11 34  1  0
 11 35  1  0
 12 18  1  0
 12 13  1  0
 12 36  1  6
 13 14  1  0
 13 37  1  0
 13 38  1  0
 14 15  1  0
 14 16  1  0
 14 39  1  6
 15 40  1  0
 15 41  1  0
 16 17  1  0
 16 42  1  0
 16 43  1  0
 17 18  1  0
 17 44  1  1
 18 45  1  0
 18 46  1  0
 19 24  1  0
 19 20  2  0
 20 21  1  0
 20 22  1  0
 21 47  1  0
 21 48  1  0
 21 49  1  0
 22 23  1  0
 22 50  1  0
 22 51  1  0
 23 24  1  0
 24 52  1  0
 24 53  1  0
M  END
>  <i_m_ct_stereo_status>  (349) 
1

>  <s_m_source_file>  (349) 
/var/tmp/pbs.5076255.sched01/tmpo_pg7vmn/129owyy42_r.sdf

>  <i_m_source_file_index>  (349) 
8

>  <i_lp_mmshare_version>  (349) 
48012

>  <i_f3d_flags>  (349) 
0

>  <s_epik_input>  (349) 
W0NIMl0xU1tDSDJdQyhbQ0gzXSk9QzFDKD1DKFtDSDNdKVtDSDNdKVtOSF1DKD1PKU9bQ0BIXShbQ0BIXTIzKVtDQEBIXTRbQ0gyXVtDQEhdKFtDSDJdMylbQ0gyXVtDQEhdKFtDSDJdMilbQ0gyXTQ=

>  <s_epik_cmdline>  (349) 
J2VwaWtfcHl0aG9uJywgJy1waHQnLCAnMi4wJywgJy1waCcsICc3LjAnLCAnLXRuJywgJzgnLCAnLW1hJywgJzIwMCcsICctaW1hZScsICc8aW5maWxlLm1hZT4nLCAnLW9tYWUnLCAnPG91dGZpbGUubWFlPic=

>  <r_lp_tautomer_probability>  (349) 
1

>  <r_epik_Ionization_Penalty>  (349) 
2.89801e-06

>  <r_epik_Ionization_Penalty_Charging>  (349) 
0

>  <r_epik_Ionization_Penalty_Neutral>  (349) 
2.89801e-06

>  <r_epik_State_Penalty>  (349) 
-0

>  <r_epik_Charging_Adjusted_Penalty>  (349) 
0

>  <i_epik_Tot_Q>  (349) 
0

>  <i_epik_Tot_abs_Q>  (349) 
0

>  <s_epik_Chemistry_Notes>  (349) 
This compound has an ester and may undergo hydrolysis at high or low pH.

>  <s_lp_Force_Field>  (349) 
OPLS3e

>  <r_lp_Energy>  (349) 
10.2098

>  <b_lp_Chiralities_Consistent>  (349) 
1

>  <s_lp_Variant>  (349) 
95:0-1

>  <s_i_glide_gridfile>  (349) 
pfpi4k_grid

>  <i_i_glide_lignum>  (349) 
8

>  <i_i_glide_rotatable_bonds>  (349) 
5

>  <r_i_docking_score>  (349) 
-2.22673

>  <r_i_glide_ligand_efficiency>  (349) 
-0.0927805

>  <r_i_glide_ligand_efficiency_sa>  (349) 
-0.267625

>  <r_i_glide_ligand_efficiency_ln>  (349) 
-0.532959

>  <r_i_glide_gscore>  (349) 
-2.22673

>  <r_i_glide_lipo>  (349) 
-0.403956

>  <r_i_glide_hbond>  (349) 
0

>  <r_i_glide_metal>  (349) 
-0

>  <r_i_glide_rewards>  (349) 
-1.03967

>  <r_i_glide_evdw>  (349) 
-28.3882

>  <r_i_glide_ecoul>  (349) 
0.083767

>  <r_i_glide_erotb>  (349) 
0.630149

>  <r_i_glide_esite>  (349) 
-0.00641568

>  <r_i_glide_emodel>  (349) 
-31.7736

>  <r_i_glide_energy>  (349) 
-28.3044

>  <r_i_glide_einternal>  (349) 
1.4082

>  <r_i_glide_intrahb_reward>  (349) 
-0

>  <i_i_glide_confnum>  (349) 
4

>  <i_i_glide_posenum>  (349) 
13

>  <r_i_glide_eff_state_penalty>  (349) 
0

>  <ligand_id>  (349) 
95

>  <original_smiles>  (349) 
CC(C)=C(NC(=O)OC1C2CC3CC(C2)CC1C3)C1=C(C)CSC1

>  <smiles>  (349) 
[H]N(C(=O)OC1([H])C2([H])C([H])([H])C3([H])C([H])([H])C([H])(C2([H])[H])C([H])([H])C1([H])C3([H])[H])C(=C(C([H])([H])[H])C([H])([H])[H])C1=C(C([H])([H])[H])C([H])([H])SC1([H])[H]

$$$$
96:0:0
     RDKit          3D

 52 55  0  0  1  0  0  0  0  0999 V2000
    6.3652   -6.4548    3.0091 C   0  0  0  0  0  0  0  0  0  0  0  0
    5.3148   -6.2298    1.8967 C   0  0  1  0  0  0  0  0  0  0  0  0
    4.8937   -7.5885    1.2807 C   0  0  0  0  0  0  0  0  0  0  0  0
    4.0188   -8.4378    2.2130 C   0  0  0  0  0  0  0  0  0  0  0  0
    2.7278   -7.6920    2.6338 C   0  0  2  0  0  0  0  0  0  0  0  0
    3.0922   -6.3189    3.2648 C   0  0  2  0  0  0  0  0  0  0  0  0
    1.8287   -5.5255    3.6399 C   0  0  0  0  0  0  0  0  0  0  0  0
    0.8867   -6.3364    4.5382 C   0  0  0  0  0  0  0  0  0  0  0  0
    0.4834   -7.6943    3.9135 C   0  0  2  0  0  0  0  0  0  0  0  0
   -0.2943   -7.3912    2.7624 O   0  0  0  0  0  0  0  0  0  0  0  0
   -0.4789   -8.4482    4.8664 C   0  0  0  0  0  0  0  0  0  0  0  0
    0.2383   -9.0645    6.0676 C   0  0  0  0  0  0  0  0  0  0  0  0
   -0.1757   -8.9444    7.2174 O   0  0  0  0  0  0  0  0  0  0  0  0
    1.5022   -9.8544    5.7565 C   0  0  0  0  0  0  0  0  0  0  0  0
    2.4338   -9.0569    4.8245 C   0  0  0  0  0  0  0  0  0  0  0  0
    1.7447   -8.5517    3.5181 C   0  0  2  0  0  0  0  0  0  0  0  0
    1.3130   -9.7999    2.6991 C   0  0  0  0  0  0  0  0  0  0  0  0
    4.0660   -5.4755    2.3945 C   0  0  2  0  0  0  0  0  0  0  0  0
    3.4615   -4.8093    1.1402 C   0  0  0  0  0  0  0  0  0  0  0  0
    4.5838   -4.7470    0.0920 C   0  0  0  0  0  0  0  0  0  0  0  0
    5.8397   -5.3034    0.7762 C   0  0  1  0  0  0  0  0  0  0  0  0
    6.5787   -4.2077    1.2820 O   0  0  0  0  0  0  0  0  0  0  0  0
    7.2710   -6.9109    2.6114 H   0  0  0  0  0  0  0  0  0  0  0  0
    5.9903   -7.1086    3.7945 H   0  0  0  0  0  0  0  0  0  0  0  0
    6.6509   -5.5247    3.4979 H   0  0  0  0  0  0  0  0  0  0  0  0
    4.3355   -7.4349    0.3560 H   0  0  0  0  0  0  0  0  0  0  0  0
    5.7768   -8.1594    0.9953 H   0  0  0  0  0  0  0  0  0  0  0  0
    3.7757   -9.3600    1.6858 H   0  0  0  0  0  0  0  0  0  0  0  0
    4.6023   -8.7292    3.0831 H   0  0  0  0  0  0  0  0  0  0  0  0
    2.1917   -7.4779    1.7057 H   0  0  0  0  0  0  0  0  0  0  0  0
    3.6315   -6.5178    4.1917 H   0  0  0  0  0  0  0  0  0  0  0  0
    2.1119   -4.6038    4.1485 H   0  0  0  0  0  0  0  0  0  0  0  0
    1.2897   -5.2287    2.7416 H   0  0  0  0  0  0  0  0  0  0  0  0
    1.3725   -6.4863    5.5009 H   0  0  0  0  0  0  0  0  0  0  0  0
   -0.0014   -5.7389    4.7474 H   0  0  0  0  0  0  0  0  0  0  0  0
   -0.4616   -8.2074    2.3123 H   0  0  0  0  0  0  0  0  0  0  0  0
   -1.2678   -7.7841    5.2210 H   0  0  0  0  0  0  0  0  0  0  0  0
   -0.9832   -9.2608    4.3458 H   0  0  0  0  0  0  0  0  0  0  0  0
    2.0140  -10.1082    6.6853 H   0  0  0  0  0  0  0  0  0  0  0  0
    1.2136  -10.7979    5.2952 H   0  0  0  0  0  0  0  0  0  0  0  0
    2.8337   -8.2191    5.3937 H   0  0  0  0  0  0  0  0  0  0  0  0
    3.2943   -9.6826    4.5940 H   0  0  0  0  0  0  0  0  0  0  0  0
    0.4843  -10.3426    3.1510 H   0  0  0  0  0  0  0  0  0  0  0  0
    2.1267  -10.5216    2.6155 H   0  0  0  0  0  0  0  0  0  0  0  0
    1.0133   -9.5397    1.6848 H   0  0  0  0  0  0  0  0  0  0  0  0
    4.4214   -4.6538    3.0209 H   0  0  0  0  0  0  0  0  0  0  0  0
    2.6270   -5.3826    0.7365 H   0  0  0  0  0  0  0  0  0  0  0  0
    3.0899   -3.8099    1.3750 H   0  0  0  0  0  0  0  0  0  0  0  0
    4.3178   -5.3908   -0.7463 H   0  0  0  0  0  0  0  0  0  0  0  0
    4.7289   -3.7444   -0.3141 H   0  0  0  0  0  0  0  0  0  0  0  0
    6.4848   -5.8429    0.0799 H   0  0  0  0  0  0  0  0  0  0  0  0
    7.3222   -4.5454    1.7523 H   0  0  0  0  0  0  0  0  0  0  0  0
  2  1  1  1
  1 23  1  0
  1 24  1  0
  1 25  1  0
  2 18  1  0
  2 21  1  0
  2  3  1  0
  3  4  1  0
  3 26  1  0
  3 27  1  0
  4  5  1  0
  4 28  1  0
  4 29  1  0
  5 16  1  0
  5  6  1  0
  5 30  1  6
  6  7  1  0
  6 18  1  0
  6 31  1  1
  7  8  1  0
  7 32  1  0
  7 33  1  0
  8  9  1  0
  8 34  1  0
  8 35  1  0
  9 16  1  0
  9 10  1  6
  9 11  1  0
 10 36  1  0
 11 12  1  0
 11 37  1  0
 11 38  1  0
 12 13  2  0
 12 14  1  0
 14 15  1  0
 14 39  1  0
 14 40  1  0
 15 16  1  0
 15 41  1  0
 15 42  1  0
 16 17  1  6
 17 43  1  0
 17 44  1  0
 17 45  1  0
 18 19  1  0
 18 46  1  1
 19 20  1  0
 19 47  1  0
 19 48  1  0
 20 21  1  0
 20 49  1  0
 20 50  1  0
 21 22  1  0
 21 51  1  6
 22 52  1  0
M  END
>  <i_m_ct_stereo_status>  (350) 
1

>  <s_m_source_file>  (350) 
/var/tmp/pbs.5076255.sched01/tmpo_pg7vmn/129owyy42_r.sdf

>  <i_m_source_file_index>  (350) 
9

>  <i_lp_mmshare_version>  (350) 
48012

>  <i_f3d_flags>  (350) 
0

>  <s_epik_input>  (350) 
W09IXVtDQEBIXTFbQ0gyXVtDSDJdW0NASF0oW0NAXTEyW0NIM10pW0NAQEhdM1tDQEBIXShbQ0gyXVtDSDJdMilbQ0BdNChbQ0gzXSlbQ0BdKFtPSF0pKFtDSDJdW0NIMl0zKVtDSDJdQyg9TylbQ0gyXVtDSDJdNA==

>  <s_epik_cmdline>  (350) 
J2VwaWtfcHl0aG9uJywgJy1waHQnLCAnMi4wJywgJy1waCcsICc3LjAnLCAnLXRuJywgJzgnLCAnLW1hJywgJzIwMCcsICctaW1hZScsICc8aW5maWxlLm1hZT4nLCAnLW9tYWUnLCAnPG91dGZpbGUubWFlPic=

>  <r_lp_tautomer_probability>  (350) 
1

>  <r_epik_Ionization_Penalty>  (350) 
3.03218e-06

>  <r_epik_Ionization_Penalty_Charging>  (350) 
0

>  <r_epik_Ionization_Penalty_Neutral>  (350) 
3.03218e-06

>  <r_epik_State_Penalty>  (350) 
-0

>  <r_epik_Charging_Adjusted_Penalty>  (350) 
0

>  <i_epik_Tot_Q>  (350) 
0

>  <i_epik_Tot_abs_Q>  (350) 
0

>  <s_lp_Force_Field>  (350) 
OPLS3e

>  <r_lp_Energy>  (350) 
35.1296

>  <b_lp_Chiralities_Consistent>  (350) 
1

>  <s_lp_Variant>  (350) 
96:0-1

>  <s_i_glide_gridfile>  (350) 
pfpi4k_grid

>  <i_i_glide_lignum>  (350) 
9

>  <i_i_glide_rotatable_bonds>  (350) 
2

>  <r_i_docking_score>  (350) 
-3.40182

>  <r_i_glide_ligand_efficiency>  (350) 
-0.154628

>  <r_i_glide_ligand_efficiency_sa>  (350) 
-0.433275

>  <r_i_glide_ligand_efficiency_ln>  (350) 
-0.83153

>  <r_i_glide_gscore>  (350) 
-3.40182

>  <r_i_glide_lipo>  (350) 
-0.340807

>  <r_i_glide_hbond>  (350) 
0

>  <r_i_glide_metal>  (350) 
-0

>  <r_i_glide_rewards>  (350) 
-1.31973

>  <r_i_glide_evdw>  (350) 
-22.6497

>  <r_i_glide_ecoul>  (350) 
-3.69044

>  <r_i_glide_erotb>  (350) 
0

>  <r_i_glide_esite>  (350) 
-0.0552401

>  <r_i_glide_emodel>  (350) 
-32.3908

>  <r_i_glide_energy>  (350) 
-26.3401

>  <r_i_glide_einternal>  (350) 
0.347612

>  <r_i_glide_intrahb_reward>  (350) 
-0

>  <i_i_glide_confnum>  (350) 
1

>  <i_i_glide_posenum>  (350) 
29

>  <r_i_glide_eff_state_penalty>  (350) 
0

>  <ligand_id>  (350) 
96

>  <original_smiles>  (350) 
CC12CCC3C(CCC4(O)CC(=O)CCC34C)C1CCC2O

>  <smiles>  (350) 
[H]OC1([H])C([H])([H])C([H])([H])C2([H])C3([H])C([H])([H])C([H])([H])C4(O[H])C([H])([H])C(=O)C([H])([H])C([H])([H])C4(C([H])([H])[H])C3([H])C([H])([H])C([H])([H])C12C([H])([H])[H]

$$$$
96:0:1
     RDKit          3D

 52 55  0  0  1  0  0  0  0  0999 V2000
    5.6037   -7.9293    1.8264 C   0  0  0  0  0  0  0  0  0  0  0  0
    5.0663   -6.8439    2.7872 C   0  0  1  0  0  0  0  0  0  0  0  0
    6.1469   -5.7556    3.0070 C   0  0  0  0  0  0  0  0  0  0  0  0
    6.3621   -4.8583    1.7800 C   0  0  0  0  0  0  0  0  0  0  0  0
    5.0609   -4.1366    1.3552 C   0  0  2  0  0  0  0  0  0  0  0  0
    3.9429   -5.1867    1.1058 C   0  0  2  0  0  0  0  0  0  0  0  0
    2.6171   -4.5056    0.7333 C   0  0  0  0  0  0  0  0  0  0  0  0
    2.7771   -3.5456   -0.4501 C   0  0  0  0  0  0  0  0  0  0  0  0
    3.8632   -2.4704   -0.2184 C   0  0  2  0  0  0  0  0  0  0  0  0
    3.4146   -1.6539    0.8455 O   0  0  0  0  0  0  0  0  0  0  0  0
    3.9473   -1.5298   -1.4499 C   0  0  0  0  0  0  0  0  0  0  0  0
    4.6493   -2.1901   -2.6368 C   0  0  0  0  0  0  0  0  0  0  0  0
    4.2139   -2.1200   -3.7856 O   0  0  0  0  0  0  0  0  0  0  0  0
    5.9655   -2.8915   -2.3193 C   0  0  0  0  0  0  0  0  0  0  0  0
    5.8184   -3.8130   -1.0958 C   0  0  0  0  0  0  0  0  0  0  0  0
    5.2444   -3.1134    0.1666 C   0  0  2  0  0  0  0  0  0  0  0  0
    6.2539   -2.0157    0.6127 C   0  0  0  0  0  0  0  0  0  0  0  0
    3.7616   -6.1886    2.2819 C   0  0  2  0  0  0  0  0  0  0  0  0
    3.0635   -5.6461    3.5468 C   0  0  0  0  0  0  0  0  0  0  0  0
    3.6636   -6.4038    4.7428 C   0  0  0  0  0  0  0  0  0  0  0  0
    4.6444   -7.4287    4.1564 C   0  0  1  0  0  0  0  0  0  0  0  0
    3.9593   -8.6589    4.0188 O   0  0  0  0  0  0  0  0  0  0  0  0
    6.4729   -8.4333    2.2464 H   0  0  0  0  0  0  0  0  0  0  0  0
    5.9043   -7.5017    0.8750 H   0  0  0  0  0  0  0  0  0  0  0  0
    4.8584   -8.6905    1.6043 H   0  0  0  0  0  0  0  0  0  0  0  0
    5.8767   -5.1131    3.8457 H   0  0  0  0  0  0  0  0  0  0  0  0
    7.0923   -6.2209    3.2861 H   0  0  0  0  0  0  0  0  0  0  0  0
    7.1261   -4.1302    2.0423 H   0  0  0  0  0  0  0  0  0  0  0  0
    6.7747   -5.4540    0.9662 H   0  0  0  0  0  0  0  0  0  0  0  0
    4.7561   -3.5438    2.2204 H   0  0  0  0  0  0  0  0  0  0  0  0
    4.2413   -5.7913    0.2487 H   0  0  0  0  0  0  0  0  0  0  0  0
    1.8794   -5.2673    0.4840 H   0  0  0  0  0  0  0  0  0  0  0  0
    2.2171   -3.9531    1.5826 H   0  0  0  0  0  0  0  0  0  0  0  0
    3.0026   -4.1327   -1.3396 H   0  0  0  0  0  0  0  0  0  0  0  0
    1.8210   -3.0659   -0.6558 H   0  0  0  0  0  0  0  0  0  0  0  0
    3.2042   -2.2119    1.5775 H   0  0  0  0  0  0  0  0  0  0  0  0
    2.9529   -1.2034   -1.7523 H   0  0  0  0  0  0  0  0  0  0  0  0
    4.4978   -0.6238   -1.1994 H   0  0  0  0  0  0  0  0  0  0  0  0
    6.3062   -3.4595   -3.1885 H   0  0  0  0  0  0  0  0  0  0  0  0
    6.7224   -2.1327   -2.1245 H   0  0  0  0  0  0  0  0  0  0  0  0
    5.2045   -4.6622   -1.3898 H   0  0  0  0  0  0  0  0  0  0  0  0
    6.7975   -4.2239   -0.8552 H   0  0  0  0  0  0  0  0  0  0  0  0
    6.2777   -1.1675   -0.0679 H   0  0  0  0  0  0  0  0  0  0  0  0
    7.2719   -2.4026    0.6564 H   0  0  0  0  0  0  0  0  0  0  0  0
    6.0121   -1.6224    1.6013 H   0  0  0  0  0  0  0  0  0  0  0  0
    3.1264   -6.9946    1.9069 H   0  0  0  0  0  0  0  0  0  0  0  0
    3.2332   -4.5781    3.6792 H   0  0  0  0  0  0  0  0  0  0  0  0
    1.9843   -5.8018    3.4845 H   0  0  0  0  0  0  0  0  0  0  0  0
    4.2087   -5.7014    5.3735 H   0  0  0  0  0  0  0  0  0  0  0  0
    2.9031   -6.8639    5.3773 H   0  0  0  0  0  0  0  0  0  0  0  0
    5.5013   -7.5978    4.8099 H   0  0  0  0  0  0  0  0  0  0  0  0
    3.2343   -8.5410    3.4246 H   0  0  0  0  0  0  0  0  0  0  0  0
  2  1  1  6
  1 23  1  0
  1 24  1  0
  1 25  1  0
  2 18  1  0
  2 21  1  0
  2  3  1  0
  3  4  1  0
  3 26  1  0
  3 27  1  0
  4  5  1  0
  4 28  1  0
  4 29  1  0
  5 16  1  0
  5  6  1  0
  5 30  1  1
  6  7  1  0
  6 18  1  0
  6 31  1  6
  7  8  1  0
  7 32  1  0
  7 33  1  0
  8  9  1  0
  8 34  1  0
  8 35  1  0
  9 16  1  0
  9 10  1  1
  9 11  1  0
 10 36  1  0
 11 12  1  0
 11 37  1  0
 11 38  1  0
 12 13  2  0
 12 14  1  0
 14 15  1  0
 14 39  1  0
 14 40  1  0
 15 16  1  0
 15 41  1  0
 15 42  1  0
 16 17  1  1
 17 43  1  0
 17 44  1  0
 17 45  1  0
 18 19  1  0
 18 46  1  6
 19 20  1  0
 19 47  1  0
 19 48  1  0
 20 21  1  0
 20 49  1  0
 20 50  1  0
 21 22  1  0
 21 51  1  1
 22 52  1  0
M  END
>  <i_m_ct_stereo_status>  (351) 
1

>  <s_m_source_file>  (351) 
/var/tmp/pbs.5076255.sched01/tmpo_pg7vmn/129owyy42_r.sdf

>  <i_m_source_file_index>  (351) 
9

>  <i_lp_mmshare_version>  (351) 
48012

>  <i_f3d_flags>  (351) 
0

>  <s_epik_input>  (351) 
W09IXVtDQEBIXTFbQ0gyXVtDSDJdW0NASF0oW0NAXTEyW0NIM10pW0NAQEhdM1tDQEBIXShbQ0gyXVtDSDJdMilbQ0BdNChbQ0gzXSlbQ0BdKFtPSF0pKFtDSDJdW0NIMl0zKVtDSDJdQyg9TylbQ0gyXVtDSDJdNA==

>  <s_epik_cmdline>  (351) 
J2VwaWtfcHl0aG9uJywgJy1waHQnLCAnMi4wJywgJy1waCcsICc3LjAnLCAnLXRuJywgJzgnLCAnLW1hJywgJzIwMCcsICctaW1hZScsICc8aW5maWxlLm1hZT4nLCAnLW9tYWUnLCAnPG91dGZpbGUubWFlPic=

>  <r_lp_tautomer_probability>  (351) 
1

>  <r_epik_Ionization_Penalty>  (351) 
3.03218e-06

>  <r_epik_Ionization_Penalty_Charging>  (351) 
0

>  <r_epik_Ionization_Penalty_Neutral>  (351) 
3.03218e-06

>  <r_epik_State_Penalty>  (351) 
-0

>  <r_epik_Charging_Adjusted_Penalty>  (351) 
0

>  <i_epik_Tot_Q>  (351) 
0

>  <i_epik_Tot_abs_Q>  (351) 
0

>  <s_lp_Force_Field>  (351) 
OPLS3e

>  <r_lp_Energy>  (351) 
35.1296

>  <b_lp_Chiralities_Consistent>  (351) 
1

>  <s_lp_Variant>  (351) 
96:0-1

>  <s_i_glide_gridfile>  (351) 
pfpi4k_grid

>  <i_i_glide_lignum>  (351) 
9

>  <i_i_glide_rotatable_bonds>  (351) 
2

>  <r_i_docking_score>  (351) 
-3.35037

>  <r_i_glide_ligand_efficiency>  (351) 
-0.15229

>  <r_i_glide_ligand_efficiency_sa>  (351) 
-0.426722

>  <r_i_glide_ligand_efficiency_ln>  (351) 
-0.818954

>  <r_i_glide_gscore>  (351) 
-3.35037

>  <r_i_glide_lipo>  (351) 
-0.489315

>  <r_i_glide_hbond>  (351) 
-0.0489762

>  <r_i_glide_metal>  (351) 
-0

>  <r_i_glide_rewards>  (351) 
-1.46052

>  <r_i_glide_evdw>  (351) 
-23.8974

>  <r_i_glide_ecoul>  (351) 
-1.0446

>  <r_i_glide_erotb>  (351) 
0

>  <r_i_glide_esite>  (351) 
0

>  <r_i_glide_emodel>  (351) 
-31.0414

>  <r_i_glide_energy>  (351) 
-24.942

>  <r_i_glide_einternal>  (351) 
0.077091

>  <r_i_glide_intrahb_reward>  (351) 
-0

>  <i_i_glide_confnum>  (351) 
2

>  <i_i_glide_posenum>  (351) 
8

>  <r_i_glide_eff_state_penalty>  (351) 
0

>  <ligand_id>  (351) 
96

>  <original_smiles>  (351) 
CC12CCC3C(CCC4(O)CC(=O)CCC34C)C1CCC2O

>  <smiles>  (351) 
[H]OC1([H])C([H])([H])C([H])([H])C2([H])C3([H])C([H])([H])C([H])([H])C4(O[H])C([H])([H])C(=O)C([H])([H])C([H])([H])C4(C([H])([H])[H])C3([H])C([H])([H])C([H])([H])C12C([H])([H])[H]

$$$$
96:0:2
     RDKit          3D

 52 55  0  0  1  0  0  0  0  0999 V2000
    5.6378   -1.4756   -0.3226 C   0  0  0  0  0  0  0  0  0  0  0  0
    4.7569   -2.5597   -0.9828 C   0  0  1  0  0  0  0  0  0  0  0  0
    5.5836   -3.8489   -1.2011 C   0  0  0  0  0  0  0  0  0  0  0  0
    5.9094   -4.5971    0.0992 C   0  0  0  0  0  0  0  0  0  0  0  0
    4.6303   -4.9999    0.8659 C   0  0  2  0  0  0  0  0  0  0  0  0
    3.7707   -3.7332    1.1266 C   0  0  2  0  0  0  0  0  0  0  0  0
    2.4653   -4.1038    1.8448 C   0  0  0  0  0  0  0  0  0  0  0  0
    2.7093   -4.8996    3.1269 C   0  0  0  0  0  0  0  0  0  0  0  0
    3.5386   -6.1827    2.8857 C   0  0  2  0  0  0  0  0  0  0  0  0
    2.7404   -7.0336    2.0830 O   0  0  0  0  0  0  0  0  0  0  0  0
    3.7313   -6.9460    4.2211 C   0  0  0  0  0  0  0  0  0  0  0  0
    4.7582   -6.2779    5.1311 C   0  0  0  0  0  0  0  0  0  0  0  0
    4.5407   -6.0814    6.3243 O   0  0  0  0  0  0  0  0  0  0  0  0
    6.0773   -5.8839    4.4764 C   0  0  0  0  0  0  0  0  0  0  0  0
    5.8305   -5.1199    3.1599 C   0  0  0  0  0  0  0  0  0  0  0  0
    4.8975   -5.8635    2.1573 C   0  0  2  0  0  0  0  0  0  0  0  0
    5.6076   -7.1811    1.7329 C   0  0  0  0  0  0  0  0  0  0  0  0
    3.5019   -2.8872   -0.1526 C   0  0  2  0  0  0  0  0  0  0  0  0
    2.4947   -3.4574   -1.1657 C   0  0  0  0  0  0  0  0  0  0  0  0
    2.9435   -2.9956   -2.5641 C   0  0  0  0  0  0  0  0  0  0  0  0
    4.1728   -2.1099   -2.3438 C   0  0  1  0  0  0  0  0  0  0  0  0
    3.7278   -0.7717   -2.3215 O   0  0  0  0  0  0  0  0  0  0  0  0
    6.4708   -1.2228   -0.9697 H   0  0  0  0  0  0  0  0  0  0  0  0
    6.0552   -1.8028    0.6295 H   0  0  0  0  0  0  0  0  0  0  0  0
    5.0822   -0.5610   -0.1227 H   0  0  0  0  0  0  0  0  0  0  0  0
    5.0495   -4.5383   -1.8572 H   0  0  0  0  0  0  0  0  0  0  0  0
    6.5110   -3.6059   -1.7219 H   0  0  0  0  0  0  0  0  0  0  0  0
    6.4745   -5.4889   -0.1631 H   0  0  0  0  0  0  0  0  0  0  0  0
    6.5678   -3.9835    0.7127 H   0  0  0  0  0  0  0  0  0  0  0  0
    4.0625   -5.6398    0.1869 H   0  0  0  0  0  0  0  0  0  0  0  0
    4.3297   -3.0824    1.7985 H   0  0  0  0  0  0  0  0  0  0  0  0
    1.9093   -3.1966    2.0822 H   0  0  0  0  0  0  0  0  0  0  0  0
    1.8317   -4.6990    1.1882 H   0  0  0  0  0  0  0  0  0  0  0  0
    3.1992   -4.2488    3.8514 H   0  0  0  0  0  0  0  0  0  0  0  0
    1.7452   -5.1600    3.5647 H   0  0  0  0  0  0  0  0  0  0  0  0
    3.2161   -7.8397    1.9441 H   0  0  0  0  0  0  0  0  0  0  0  0
    2.7830   -7.0319    4.7537 H   0  0  0  0  0  0  0  0  0  0  0  0
    4.0695   -7.9661    4.0435 H   0  0  0  0  0  0  0  0  0  0  0  0
    6.6642   -5.2752    5.1665 H   0  0  0  0  0  0  0  0  0  0  0  0
    6.6525   -6.7909    4.2868 H   0  0  0  0  0  0  0  0  0  0  0  0
    5.4237   -4.1422    3.4142 H   0  0  0  0  0  0  0  0  0  0  0  0
    6.7969   -4.9242    2.6986 H   0  0  0  0  0  0  0  0  0  0  0  0
    5.6475   -7.9160    2.5358 H   0  0  0  0  0  0  0  0  0  0  0  0
    6.6439   -6.9966    1.4452 H   0  0  0  0  0  0  0  0  0  0  0  0
    5.1122   -7.6537    0.8821 H   0  0  0  0  0  0  0  0  0  0  0  0
    3.0822   -1.9341    0.1797 H   0  0  0  0  0  0  0  0  0  0  0  0
    2.4588   -4.5468   -1.1182 H   0  0  0  0  0  0  0  0  0  0  0  0
    1.4898   -3.0995   -0.9477 H   0  0  0  0  0  0  0  0  0  0  0  0
    3.2324   -3.8573   -3.1685 H   0  0  0  0  0  0  0  0  0  0  0  0
    2.1409   -2.4956   -3.1087 H   0  0  0  0  0  0  0  0  0  0  0  0
    4.8995   -2.2014   -3.1513 H   0  0  0  0  0  0  0  0  0  0  0  0
    2.9334   -0.7304   -1.8018 H   0  0  0  0  0  0  0  0  0  0  0  0
  2  1  1  1
  1 23  1  0
  1 24  1  0
  1 25  1  0
  2 18  1  0
  2 21  1  0
  2  3  1  0
  3  4  1  0
  3 26  1  0
  3 27  1  0
  4  5  1  0
  4 28  1  0
  4 29  1  0
  5 16  1  0
  5  6  1  0
  5 30  1  6
  6  7  1  0
  6 18  1  0
  6 31  1  1
  7  8  1  0
  7 32  1  0
  7 33  1  0
  8  9  1  0
  8 34  1  0
  8 35  1  0
  9 16  1  0
  9 10  1  6
  9 11  1  0
 10 36  1  0
 11 12  1  0
 11 37  1  0
 11 38  1  0
 12 13  2  0
 12 14  1  0
 14 15  1  0
 14 39  1  0
 14 40  1  0
 15 16  1  0
 15 41  1  0
 15 42  1  0
 16 17  1  6
 17 43  1  0
 17 44  1  0
 17 45  1  0
 18 19  1  0
 18 46  1  1
 19 20  1  0
 19 47  1  0
 19 48  1  0
 20 21  1  0
 20 49  1  0
 20 50  1  0
 21 22  1  0
 21 51  1  6
 22 52  1  0
M  END
>  <i_m_ct_stereo_status>  (352) 
1

>  <s_m_source_file>  (352) 
/var/tmp/pbs.5076255.sched01/tmpo_pg7vmn/129owyy42_r.sdf

>  <i_m_source_file_index>  (352) 
9

>  <i_lp_mmshare_version>  (352) 
48012

>  <i_f3d_flags>  (352) 
0

>  <s_epik_input>  (352) 
W09IXVtDQEBIXTFbQ0gyXVtDSDJdW0NASF0oW0NAXTEyW0NIM10pW0NAQEhdM1tDQEBIXShbQ0gyXVtDSDJdMilbQ0BdNChbQ0gzXSlbQ0BdKFtPSF0pKFtDSDJdW0NIMl0zKVtDSDJdQyg9TylbQ0gyXVtDSDJdNA==

>  <s_epik_cmdline>  (352) 
J2VwaWtfcHl0aG9uJywgJy1waHQnLCAnMi4wJywgJy1waCcsICc3LjAnLCAnLXRuJywgJzgnLCAnLW1hJywgJzIwMCcsICctaW1hZScsICc8aW5maWxlLm1hZT4nLCAnLW9tYWUnLCAnPG91dGZpbGUubWFlPic=

>  <r_lp_tautomer_probability>  (352) 
1

>  <r_epik_Ionization_Penalty>  (352) 
3.03218e-06

>  <r_epik_Ionization_Penalty_Charging>  (352) 
0

>  <r_epik_Ionization_Penalty_Neutral>  (352) 
3.03218e-06

>  <r_epik_State_Penalty>  (352) 
-0

>  <r_epik_Charging_Adjusted_Penalty>  (352) 
0

>  <i_epik_Tot_Q>  (352) 
0

>  <i_epik_Tot_abs_Q>  (352) 
0

>  <s_lp_Force_Field>  (352) 
OPLS3e

>  <r_lp_Energy>  (352) 
35.1296

>  <b_lp_Chiralities_Consistent>  (352) 
1

>  <s_lp_Variant>  (352) 
96:0-1

>  <s_i_glide_gridfile>  (352) 
pfpi4k_grid

>  <i_i_glide_lignum>  (352) 
9

>  <i_i_glide_rotatable_bonds>  (352) 
2

>  <r_i_docking_score>  (352) 
-2.83352

>  <r_i_glide_ligand_efficiency>  (352) 
-0.128797

>  <r_i_glide_ligand_efficiency_sa>  (352) 
-0.360893

>  <r_i_glide_ligand_efficiency_ln>  (352) 
-0.692617

>  <r_i_glide_gscore>  (352) 
-2.83352

>  <r_i_glide_lipo>  (352) 
-0.288337

>  <r_i_glide_hbond>  (352) 
-0.00600129

>  <r_i_glide_metal>  (352) 
-0

>  <r_i_glide_rewards>  (352) 
-1.31973

>  <r_i_glide_evdw>  (352) 
-20.6924

>  <r_i_glide_ecoul>  (352) 
-1.23224

>  <r_i_glide_erotb>  (352) 
0

>  <r_i_glide_esite>  (352) 
0

>  <r_i_glide_emodel>  (352) 
-26.9355

>  <r_i_glide_energy>  (352) 
-21.9247

>  <r_i_glide_einternal>  (352) 
0.250885

>  <r_i_glide_intrahb_reward>  (352) 
-0

>  <i_i_glide_confnum>  (352) 
2

>  <i_i_glide_posenum>  (352) 
2

>  <r_i_glide_eff_state_penalty>  (352) 
0

>  <ligand_id>  (352) 
96

>  <original_smiles>  (352) 
CC12CCC3C(CCC4(O)CC(=O)CCC34C)C1CCC2O

>  <smiles>  (352) 
[H]OC1([H])C([H])([H])C([H])([H])C2([H])C3([H])C([H])([H])C([H])([H])C4(O[H])C([H])([H])C(=O)C([H])([H])C([H])([H])C4(C([H])([H])[H])C3([H])C([H])([H])C([H])([H])C12C([H])([H])[H]

$$$$
97:0:0
     RDKit          3D

 76 80  0  0  1  0  0  0  0  0999 V2000
    4.3522   -9.3382    1.6783 C   0  0  0  0  0  0  0  0  0  0  0  0
    4.3273   -7.9863    1.5845 C   0  0  0  0  0  0  0  0  0  0  0  0
    4.5958   -7.4008    0.2253 C   0  0  0  0  0  0  0  0  0  0  0  0
    4.0391   -7.1684    2.7470 C   0  0  0  0  0  0  0  0  0  0  0  0
    2.8319   -7.2157    3.3109 C   0  0  0  0  0  0  0  0  0  0  0  0
    2.4150   -6.4284    4.5409 C   0  0  2  0  0  0  0  0  0  0  0  0
    1.4037   -5.3335    4.1787 C   0  0  0  0  0  0  0  0  0  0  0  0
    0.2675   -5.5476    3.7679 O   0  0  0  0  0  0  0  0  0  0  0  0
    1.9764   -3.9570    4.5791 C   0  0  1  0  0  0  0  0  0  0  0  0
    2.6889   -4.4449    5.9124 C   0  0  0  0  0  0  0  0  0  0  0  0
    3.4600   -3.4379    6.8287 C   0  0  0  0  0  0  0  0  0  0  0  0
    1.6739   -4.9789    6.9847 C   0  0  0  0  0  0  0  0  0  0  0  0
    3.5204   -5.6320    5.3016 C   0  0  2  0  0  0  0  0  0  0  0  0
    4.7026   -5.1747    4.3494 C   0  0  1  0  0  0  0  0  0  0  0  0
    5.9491   -4.9861    5.2612 C   0  0  0  0  0  0  0  0  0  0  0  0
    5.1360   -6.3547    3.4120 C   0  0  0  0  0  0  0  0  0  0  0  0
    4.3517   -3.7677    3.6747 C   0  0  1  0  0  0  0  0  0  0  0  0
    5.1613   -2.8847    2.6985 C   0  0  1  0  0  0  0  0  0  0  0  0
    4.9804   -3.2281    1.2021 C   0  0  1  0  0  0  0  0  0  0  0  0
    5.5657   -4.5117    0.9511 O   0  0  0  0  0  0  0  0  0  0  0  0
    6.9821   -4.5117    0.8438 C   0  0  0  0  0  0  0  0  0  0  0  0
    3.5057   -3.1488    0.6986 C   0  0  1  0  0  0  0  0  0  0  0  0
    3.2659   -1.8067    0.3451 O   0  0  0  0  0  0  0  0  0  0  0  0
    3.3297   -3.8542   -0.7189 C   0  0  0  0  0  0  0  0  0  0  0  0
    4.4044   -3.5154   -1.7694 C   0  0  0  0  0  0  0  0  0  0  0  0
    1.9494   -3.6572   -1.3875 C   0  0  0  0  0  0  0  0  0  0  0  0
    2.5141   -3.6073    1.8566 C   0  0  1  0  0  0  0  0  0  0  0  0
    2.2429   -4.9529    1.5457 O   0  0  0  0  0  0  0  0  0  0  0  0
    2.9016   -3.3311    3.4101 C   0  0  1  0  0  0  0  0  0  0  0  0
    3.0830   -1.7573    3.5297 C   0  0  1  0  0  0  0  0  0  0  0  0
    1.9421   -0.8549    2.9761 C   0  0  0  0  0  0  0  0  0  0  0  0
    3.0600   -1.3128    4.8739 O   0  0  0  0  0  0  0  0  0  0  0  0
    4.5274   -1.4762    2.9670 C   0  0  1  0  0  0  0  0  0  0  0  0
    5.3596   -0.7852    3.8739 O   0  0  0  0  0  0  0  0  0  0  0  0
    4.5534   -9.9044    0.7901 H   0  0  0  0  0  0  0  0  0  0  0  0
    4.1618   -9.8646    2.5908 H   0  0  0  0  0  0  0  0  0  0  0  0
    3.7038   -6.8660   -0.0971 H   0  0  0  0  0  0  0  0  0  0  0  0
    4.7693   -8.2256   -0.4774 H   0  0  0  0  0  0  0  0  0  0  0  0
    5.4512   -6.7082    0.2515 H   0  0  0  0  0  0  0  0  0  0  0  0
    2.0483   -7.7895    2.8178 H   0  0  0  0  0  0  0  0  0  0  0  0
    1.9151   -7.1280    5.2056 H   0  0  0  0  0  0  0  0  0  0  0  0
    1.1287   -3.3063    4.7976 H   0  0  0  0  0  0  0  0  0  0  0  0
    3.9330   -3.9725    7.6566 H   0  0  0  0  0  0  0  0  0  0  0  0
    2.7727   -2.7170    7.2749 H   0  0  0  0  0  0  0  0  0  0  0  0
    4.2568   -2.8321    6.4223 H   0  0  0  0  0  0  0  0  0  0  0  0
    2.2164   -5.3734    7.8461 H   0  0  0  0  0  0  0  0  0  0  0  0
    1.0147   -5.7857    6.6638 H   0  0  0  0  0  0  0  0  0  0  0  0
    1.0278   -4.1737    7.3393 H   0  0  0  0  0  0  0  0  0  0  0  0
    3.9145   -6.2711    6.1019 H   0  0  0  0  0  0  0  0  0  0  0  0
    6.8137   -4.7576    4.6459 H   0  0  0  0  0  0  0  0  0  0  0  0
    6.1711   -5.8990    5.8198 H   0  0  0  0  0  0  0  0  0  0  0  0
    5.8434   -4.1891    5.9985 H   0  0  0  0  0  0  0  0  0  0  0  0
    5.6312   -7.1007    4.0313 H   0  0  0  0  0  0  0  0  0  0  0  0
    5.8885   -6.0726    2.6954 H   0  0  0  0  0  0  0  0  0  0  0  0
    4.6466   -3.1851    4.5386 H   0  0  0  0  0  0  0  0  0  0  0  0
    6.2044   -2.8482    2.9721 H   0  0  0  0  0  0  0  0  0  0  0  0
    5.5493   -2.4775    0.6556 H   0  0  0  0  0  0  0  0  0  0  0  0
    7.2944   -5.5219    0.6215 H   0  0  0  0  0  0  0  0  0  0  0  0
    7.4957   -4.2210    1.7552 H   0  0  0  0  0  0  0  0  0  0  0  0
    7.3201   -3.8781    0.0304 H   0  0  0  0  0  0  0  0  0  0  0  0
    2.4211   -1.7393   -0.0945 H   0  0  0  0  0  0  0  0  0  0  0  0
    3.4216   -4.9426   -0.5844 H   0  0  0  0  0  0  0  0  0  0  0  0
    4.4185   -2.4685   -2.0623 H   0  0  0  0  0  0  0  0  0  0  0  0
    4.2086   -4.1112   -2.6523 H   0  0  0  0  0  0  0  0  0  0  0  0
    5.3861   -3.8077   -1.4306 H   0  0  0  0  0  0  0  0  0  0  0  0
    1.7851   -2.6416   -1.6987 H   0  0  0  0  0  0  0  0  0  0  0  0
    1.1544   -3.9987   -0.7407 H   0  0  0  0  0  0  0  0  0  0  0  0
    1.8477   -4.2157   -2.3129 H   0  0  0  0  0  0  0  0  0  0  0  0
    1.5534   -3.1183    1.7140 H   0  0  0  0  0  0  0  0  0  0  0  0
    3.0558   -5.4561    1.6435 H   0  0  0  0  0  0  0  0  0  0  0  0
    1.7089   -0.9553    1.9199 H   0  0  0  0  0  0  0  0  0  0  0  0
    2.2057    0.1964    3.1110 H   0  0  0  0  0  0  0  0  0  0  0  0
    0.9958   -1.0335    3.4981 H   0  0  0  0  0  0  0  0  0  0  0  0
    2.1935   -1.4777    5.2302 H   0  0  0  0  0  0  0  0  0  0  0  0
    4.5145   -0.8297    2.0917 H   0  0  0  0  0  0  0  0  0  0  0  0
    4.9174    0.0386    4.0770 H   0  0  0  0  0  0  0  0  0  0  0  0
  1  2  2  0
  1 35  1  0
  1 36  1  0
  2  3  1  0
  2  4  1  0
  3 37  1  0
  3 38  1  0
  3 39  1  0
  4 16  1  0
  4  5  2  0
  5  6  1  0
  5 40  1  0
  6 13  1  0
  6  7  1  0
  6 41  1  1
  7  8  2  0
  7  9  1  0
  9 29  1  0
  9 10  1  0
  9 42  1  1
 10 11  1  0
 10 12  1  0
 10 13  1  0
 11 43  1  0
 11 44  1  0
 11 45  1  0
 12 46  1  0
 12 47  1  0
 12 48  1  0
 13 14  1  0
 13 49  1  1
 14 15  1  1
 14 16  1  0
 14 17  1  0
 15 50  1  0
 15 51  1  0
 15 52  1  0
 16 53  1  0
 16 54  1  0
 17 29  1  0
 17 18  1  0
 17 55  1  1
 18 33  1  0
 18 19  1  0
 18 56  1  1
 19 20  1  0
 19 22  1  0
 19 57  1  6
 20 21  1  0
 21 58  1  0
 21 59  1  0
 21 60  1  0
 22 23  1  6
 22 24  1  0
 22 27  1  0
 23 61  1  0
 24 25  1  0
 24 26  1  0
 24 62  1  0
 25 63  1  0
 25 64  1  0
 25 65  1  0
 26 66  1  0
 26 67  1  0
 26 68  1  0
 27 28  1  0
 27 29  1  0
 27 69  1  6
 28 70  1  0
 29 30  1  6
 30 31  1  0
 30 32  1  1
 30 33  1  0
 31 71  1  0
 31 72  1  0
 31 73  1  0
 32 74  1  0
 33 34  1  0
 33 75  1  6
 34 76  1  0
M  END
>  <i_m_ct_stereo_status>  (353) 
1

>  <s_m_source_file>  (353) 
/var/tmp/pbs.5076255.sched01/tmpo_pg7vmn/129owyy42_r.sdf

>  <i_m_source_file_index>  (353) 
10

>  <i_lp_mmshare_version>  (353) 
48012

>  <i_f3d_flags>  (353) 
0

>  <s_epik_input>  (353) 
W0NAXTEyM1tDQEhdNEMoPU8pW0NAQEhdNVtDQEhdKEM0KFtDSDNdKVtDSDNdKVtDQEBdKFtDSDNdKShbQ0gyXUMoPVtDSF01KUMoPVtDSDJdKVtDSDNdKVtDQEhdMVtDQEhdKFtDQEhdKFtPSF0pW0NAXTMoW0NIM10pW09IXSlbQ0BASF0oT1tDSDNdKVtDQEBdKFtPSF0pKFtDSF0oW0NIM10pW0NIM10pW0NASF0yW09IXQ==

>  <s_epik_cmdline>  (353) 
J2VwaWtfcHl0aG9uJywgJy1waHQnLCAnMi4wJywgJy1waCcsICc3LjAnLCAnLXRuJywgJzgnLCAnLW1hJywgJzIwMCcsICctaW1hZScsICc8aW5maWxlLm1hZT4nLCAnLW9tYWUnLCAnPG91dGZpbGUubWFlPic=

>  <r_lp_tautomer_probability>  (353) 
1

>  <r_epik_Ionization_Penalty>  (353) 
4.93399e-07

>  <r_epik_Ionization_Penalty_Charging>  (353) 
0

>  <r_epik_Ionization_Penalty_Neutral>  (353) 
4.93399e-07

>  <r_epik_State_Penalty>  (353) 
-0

>  <r_epik_Charging_Adjusted_Penalty>  (353) 
0

>  <i_epik_Tot_Q>  (353) 
0

>  <i_epik_Tot_abs_Q>  (353) 
0

>  <s_lp_Force_Field>  (353) 
OPLS3e

>  <r_lp_Energy>  (353) 
125.317

>  <b_lp_Chiralities_Consistent>  (353) 
1

>  <s_lp_Variant>  (353) 
97:0-1

>  <s_i_glide_gridfile>  (353) 
pfpi4k_grid

>  <i_i_glide_lignum>  (353) 
10

>  <i_i_glide_rotatable_bonds>  (353) 
7

>  <r_i_docking_score>  (353) 
-2.11323

>  <r_i_glide_ligand_efficiency>  (353) 
-0.0621539

>  <r_i_glide_ligand_efficiency_sa>  (353) 
-0.201354

>  <r_i_glide_ligand_efficiency_ln>  (353) 
-0.466872

>  <r_i_glide_gscore>  (353) 
-2.11323

>  <r_i_glide_lipo>  (353) 
-0.351567

>  <r_i_glide_hbond>  (353) 
-0.184301

>  <r_i_glide_metal>  (353) 
-0

>  <r_i_glide_rewards>  (353) 
-0.172981

>  <r_i_glide_evdw>  (353) 
-14.8215

>  <r_i_glide_ecoul>  (353) 
-4.97923

>  <r_i_glide_erotb>  (353) 
0.0898304

>  <r_i_glide_esite>  (353) 
-0.00625556

>  <r_i_glide_emodel>  (353) 
-18.7028

>  <r_i_glide_energy>  (353) 
-19.8007

>  <r_i_glide_einternal>  (353) 
4.51753

>  <r_i_glide_intrahb_reward>  (353) 
-0

>  <i_i_glide_confnum>  (353) 
2

>  <i_i_glide_posenum>  (353) 
9

>  <r_i_glide_eff_state_penalty>  (353) 
0

>  <ligand_id>  (353) 
97

>  <original_smiles>  (353) 
C=C(C)C1=CC2C(=O)C3C(C)(C)C2C(C)(C1)C1C2C(OC)C(O)(C(C)C)C(O)C31C(C)(O)C2O

>  <smiles>  (353) 
[H]OC1([H])C2([H])C([H])(OC([H])([H])[H])C(O[H])(C([H])(C([H])([H])[H])C([H])([H])[H])C([H])(O[H])C3(C4([H])C(=O)C5([H])C([H])=C(C(=C([H])[H])C([H])([H])[H])C([H])([H])C(C([H])([H])[H])(C5([H])C4(C([H])([H])[H])C([H])([H])[H])C23[H])C1(O[H])C([H])([H])[H]

$$$$
97:0:1
     RDKit          3D

 76 80  0  0  1  0  0  0  0  0999 V2000
    4.4317   -9.2574    1.6250 C   0  0  0  0  0  0  0  0  0  0  0  0
    4.3628   -7.9019    1.5339 C   0  0  0  0  0  0  0  0  0  0  0  0
    4.5667   -7.3193    0.1674 C   0  0  0  0  0  0  0  0  0  0  0  0
    4.0648   -7.1011    2.7000 C   0  0  0  0  0  0  0  0  0  0  0  0
    2.8508   -7.1583    3.2644 C   0  0  0  0  0  0  0  0  0  0  0  0
    2.4373   -6.3778    4.5010 C   0  0  2  0  0  0  0  0  0  0  0  0
    1.4414   -5.2840    4.1401 C   0  0  0  0  0  0  0  0  0  0  0  0
    0.3139   -5.5210    3.7324 O   0  0  0  0  0  0  0  0  0  0  0  0
    1.9729   -3.9023    4.5411 C   0  0  1  0  0  0  0  0  0  0  0  0
    2.6942   -4.3901    5.8710 C   0  0  0  0  0  0  0  0  0  0  0  0
    3.4575   -3.3838    6.7886 C   0  0  0  0  0  0  0  0  0  0  0  0
    1.6761   -4.9299    6.9429 C   0  0  0  0  0  0  0  0  0  0  0  0
    3.5293   -5.5747    5.2644 C   0  0  2  0  0  0  0  0  0  0  0  0
    4.7099   -5.1138    4.3099 C   0  0  1  0  0  0  0  0  0  0  0  0
    5.9525   -4.9402    5.2226 C   0  0  0  0  0  0  0  0  0  0  0  0
    5.1482   -6.2876    3.3744 C   0  0  0  0  0  0  0  0  0  0  0  0
    4.3608   -3.7065    3.6360 C   0  0  1  0  0  0  0  0  0  0  0  0
    5.1606   -2.8115    2.6636 C   0  0  1  0  0  0  0  0  0  0  0  0
    4.9855   -3.1402    1.1687 C   0  0  1  0  0  0  0  0  0  0  0  0
    5.5611   -4.4170    0.9211 O   0  0  0  0  0  0  0  0  0  0  0  0
    6.9743   -4.4394    0.7826 C   0  0  0  0  0  0  0  0  0  0  0  0
    3.5062   -3.0822    0.6605 C   0  0  1  0  0  0  0  0  0  0  0  0
    3.2518   -1.7406    0.3004 O   0  0  0  0  0  0  0  0  0  0  0  0
    3.3311   -3.7842   -0.7556 C   0  0  0  0  0  0  0  0  0  0  0  0
    4.3828   -3.4226   -1.8185 C   0  0  0  0  0  0  0  0  0  0  0  0
    1.9390   -3.6699   -1.4032 C   0  0  0  0  0  0  0  0  0  0  0  0
    2.5142   -3.5487    1.8234 C   0  0  1  0  0  0  0  0  0  0  0  0
    2.2611   -4.8954    1.4999 O   0  0  0  0  0  0  0  0  0  0  0  0
    2.9047   -3.2737    3.3764 C   0  0  1  0  0  0  0  0  0  0  0  0
    3.0719   -1.7016    3.4983 C   0  0  1  0  0  0  0  0  0  0  0  0
    1.9403   -0.7972    2.9420 C   0  0  0  0  0  0  0  0  0  0  0  0
    3.0308   -1.2812    4.8451 O   0  0  0  0  0  0  0  0  0  0  0  0
    4.5169   -1.4132    2.9397 C   0  0  1  0  0  0  0  0  0  0  0  0
    5.3269   -0.7004    3.8518 O   0  0  0  0  0  0  0  0  0  0  0  0
    4.6359   -9.8212    0.7341 H   0  0  0  0  0  0  0  0  0  0  0  0
    4.2811   -9.7833    2.5491 H   0  0  0  0  0  0  0  0  0  0  0  0
    3.6425   -6.8326   -0.1080 H   0  0  0  0  0  0  0  0  0  0  0  0
    4.7334   -8.1160   -0.5575 H   0  0  0  0  0  0  0  0  0  0  0  0
    5.4124   -6.6241    0.1486 H   0  0  0  0  0  0  0  0  0  0  0  0
    2.0711   -7.7323    2.7714 H   0  0  0  0  0  0  0  0  0  0  0  0
    1.9276   -7.0779    5.1620 H   0  0  0  0  0  0  0  0  0  0  0  0
    1.1304   -3.2439    4.7588 H   0  0  0  0  0  0  0  0  0  0  0  0
    3.9315   -3.9127    7.6167 H   0  0  0  0  0  0  0  0  0  0  0  0
    2.7678   -2.6616    7.2264 H   0  0  0  0  0  0  0  0  0  0  0  0
    4.2535   -2.7814    6.3801 H   0  0  0  0  0  0  0  0  0  0  0  0
    2.2166   -5.3184    7.8086 H   0  0  0  0  0  0  0  0  0  0  0  0
    1.0170   -5.7403    6.6274 H   0  0  0  0  0  0  0  0  0  0  0  0
    1.0228   -4.1297    7.2989 H   0  0  0  0  0  0  0  0  0  0  0  0
    3.9172   -6.2146    6.0639 H   0  0  0  0  0  0  0  0  0  0  0  0
    6.8292   -4.7375    4.6149 H   0  0  0  0  0  0  0  0  0  0  0  0
    6.1534   -5.8445    5.8063 H   0  0  0  0  0  0  0  0  0  0  0  0
    5.8723   -4.1246    5.9429 H   0  0  0  0  0  0  0  0  0  0  0  0
    5.6436   -7.0357    3.9915 H   0  0  0  0  0  0  0  0  0  0  0  0
    5.9040   -5.9962    2.6624 H   0  0  0  0  0  0  0  0  0  0  0  0
    4.6448   -3.1313    4.5005 H   0  0  0  0  0  0  0  0  0  0  0  0
    6.2024   -2.8033    2.9299 H   0  0  0  0  0  0  0  0  0  0  0  0
    5.5488   -2.3954    0.6075 H   0  0  0  0  0  0  0  0  0  0  0  0
    7.2722   -5.4599    0.5626 H   0  0  0  0  0  0  0  0  0  0  0  0
    7.5168   -4.1545    1.6802 H   0  0  0  0  0  0  0  0  0  0  0  0
    7.3115   -3.8216   -0.0449 H   0  0  0  0  0  0  0  0  0  0  0  0
    2.4098   -1.6859   -0.1416 H   0  0  0  0  0  0  0  0  0  0  0  0
    3.4704   -4.8526   -0.6241 H   0  0  0  0  0  0  0  0  0  0  0  0
    4.3565   -2.3730   -2.1093 H   0  0  0  0  0  0  0  0  0  0  0  0
    4.2070   -4.0224   -2.7074 H   0  0  0  0  0  0  0  0  0  0  0  0
    5.3815   -3.6774   -1.4894 H   0  0  0  0  0  0  0  0  0  0  0  0
    1.7236   -2.6505   -1.7418 H   0  0  0  0  0  0  0  0  0  0  0  0
    1.1599   -4.0264   -0.7500 H   0  0  0  0  0  0  0  0  0  0  0  0
    1.8386   -4.2511   -2.3106 H   0  0  0  0  0  0  0  0  0  0  0  0
    1.5520   -3.0597    1.6929 H   0  0  0  0  0  0  0  0  0  0  0  0
    3.0839   -5.3823    1.5460 H   0  0  0  0  0  0  0  0  0  0  0  0
    1.7141   -0.9049    1.8885 H   0  0  0  0  0  0  0  0  0  0  0  0
    2.1989    0.2546    3.0714 H   0  0  0  0  0  0  0  0  0  0  0  0
    1.0028   -0.9792    3.4689 H   0  0  0  0  0  0  0  0  0  0  0  0
    3.3984   -0.4030    4.8603 H   0  0  0  0  0  0  0  0  0  0  0  0
    4.5064   -0.7760    2.0559 H   0  0  0  0  0  0  0  0  0  0  0  0
    6.1759   -0.6000    3.4440 H   0  0  0  0  0  0  0  0  0  0  0  0
  1  2  2  0
  1 35  1  0
  1 36  1  0
  2  3  1  0
  2  4  1  0
  3 37  1  0
  3 38  1  0
  3 39  1  0
  4 16  1  0
  4  5  2  0
  5  6  1  0
  5 40  1  0
  6 13  1  0
  6  7  1  0
  6 41  1  1
  7  8  2  0
  7  9  1  0
  9 29  1  0
  9 10  1  0
  9 42  1  1
 10 11  1  0
 10 12  1  0
 10 13  1  0
 11 43  1  0
 11 44  1  0
 11 45  1  0
 12 46  1  0
 12 47  1  0
 12 48  1  0
 13 14  1  0
 13 49  1  1
 14 15  1  1
 14 16  1  0
 14 17  1  0
 15 50  1  0
 15 51  1  0
 15 52  1  0
 16 53  1  0
 16 54  1  0
 17 29  1  0
 17 18  1  0
 17 55  1  1
 18 33  1  0
 18 19  1  0
 18 56  1  1
 19 20  1  0
 19 22  1  0
 19 57  1  6
 20 21  1  0
 21 58  1  0
 21 59  1  0
 21 60  1  0
 22 23  1  6
 22 24  1  0
 22 27  1  0
 23 61  1  0
 24 25  1  0
 24 26  1  0
 24 62  1  0
 25 63  1  0
 25 64  1  0
 25 65  1  0
 26 66  1  0
 26 67  1  0
 26 68  1  0
 27 28  1  0
 27 29  1  0
 27 69  1  6
 28 70  1  0
 29 30  1  6
 30 31  1  0
 30 32  1  1
 30 33  1  0
 31 71  1  0
 31 72  1  0
 31 73  1  0
 32 74  1  0
 33 34  1  0
 33 75  1  6
 34 76  1  0
M  END
>  <i_m_ct_stereo_status>  (354) 
1

>  <s_m_source_file>  (354) 
/var/tmp/pbs.5076255.sched01/tmpo_pg7vmn/129owyy42_r.sdf

>  <i_m_source_file_index>  (354) 
10

>  <i_lp_mmshare_version>  (354) 
48012

>  <i_f3d_flags>  (354) 
0

>  <s_epik_input>  (354) 
W0NAXTEyM1tDQEhdNEMoPU8pW0NAQEhdNVtDQEhdKEM0KFtDSDNdKVtDSDNdKVtDQEBdKFtDSDNdKShbQ0gyXUMoPVtDSF01KUMoPVtDSDJdKVtDSDNdKVtDQEhdMVtDQEhdKFtDQEhdKFtPSF0pW0NAXTMoW0NIM10pW09IXSlbQ0BASF0oT1tDSDNdKVtDQEBdKFtPSF0pKFtDSF0oW0NIM10pW0NIM10pW0NASF0yW09IXQ==

>  <s_epik_cmdline>  (354) 
J2VwaWtfcHl0aG9uJywgJy1waHQnLCAnMi4wJywgJy1waCcsICc3LjAnLCAnLXRuJywgJzgnLCAnLW1hJywgJzIwMCcsICctaW1hZScsICc8aW5maWxlLm1hZT4nLCAnLW9tYWUnLCAnPG91dGZpbGUubWFlPic=

>  <r_lp_tautomer_probability>  (354) 
1

>  <r_epik_Ionization_Penalty>  (354) 
4.93399e-07

>  <r_epik_Ionization_Penalty_Charging>  (354) 
0

>  <r_epik_Ionization_Penalty_Neutral>  (354) 
4.93399e-07

>  <r_epik_State_Penalty>  (354) 
-0

>  <r_epik_Charging_Adjusted_Penalty>  (354) 
0

>  <i_epik_Tot_Q>  (354) 
0

>  <i_epik_Tot_abs_Q>  (354) 
0

>  <s_lp_Force_Field>  (354) 
OPLS3e

>  <r_lp_Energy>  (354) 
125.317

>  <b_lp_Chiralities_Consistent>  (354) 
1

>  <s_lp_Variant>  (354) 
97:0-1

>  <s_i_glide_gridfile>  (354) 
pfpi4k_grid

>  <i_i_glide_lignum>  (354) 
10

>  <i_i_glide_rotatable_bonds>  (354) 
7

>  <r_i_docking_score>  (354) 
-2.10687

>  <r_i_glide_ligand_efficiency>  (354) 
-0.0619668

>  <r_i_glide_ligand_efficiency_sa>  (354) 
-0.200748

>  <r_i_glide_ligand_efficiency_ln>  (354) 
-0.465467

>  <r_i_glide_gscore>  (354) 
-2.10687

>  <r_i_glide_lipo>  (354) 
-0.374521

>  <r_i_glide_hbond>  (354) 
-0.182724

>  <r_i_glide_metal>  (354) 
-0

>  <r_i_glide_rewards>  (354) 
-0.172981

>  <r_i_glide_evdw>  (354) 
-14.9328

>  <r_i_glide_ecoul>  (354) 
-4.75764

>  <r_i_glide_erotb>  (354) 
0.0898304

>  <r_i_glide_esite>  (354) 
-0.0061901

>  <r_i_glide_emodel>  (354) 
-18.4868

>  <r_i_glide_energy>  (354) 
-19.6904

>  <r_i_glide_einternal>  (354) 
4.62416

>  <r_i_glide_intrahb_reward>  (354) 
-0

>  <i_i_glide_confnum>  (354) 
3

>  <i_i_glide_posenum>  (354) 
13

>  <r_i_glide_eff_state_penalty>  (354) 
0

>  <ligand_id>  (354) 
97

>  <original_smiles>  (354) 
C=C(C)C1=CC2C(=O)C3C(C)(C)C2C(C)(C1)C1C2C(OC)C(O)(C(C)C)C(O)C31C(C)(O)C2O

>  <smiles>  (354) 
[H]OC1([H])C2([H])C([H])(OC([H])([H])[H])C(O[H])(C([H])(C([H])([H])[H])C([H])([H])[H])C([H])(O[H])C3(C4([H])C(=O)C5([H])C([H])=C(C(=C([H])[H])C([H])([H])[H])C([H])([H])C(C([H])([H])[H])(C5([H])C4(C([H])([H])[H])C([H])([H])[H])C23[H])C1(O[H])C([H])([H])[H]

$$$$
97:0:2
     RDKit          3D

 76 80  0  0  1  0  0  0  0  0999 V2000
    4.3636   -9.3341    1.7192 C   0  0  0  0  0  0  0  0  0  0  0  0
    4.3414   -7.9828    1.6239 C   0  0  0  0  0  0  0  0  0  0  0  0
    4.6084   -7.4116    0.2604 C   0  0  0  0  0  0  0  0  0  0  0  0
    4.0519   -7.1632    2.7842 C   0  0  0  0  0  0  0  0  0  0  0  0
    2.8394   -7.2073    3.3482 C   0  0  0  0  0  0  0  0  0  0  0  0
    2.4205   -6.4122    4.5746 C   0  0  2  0  0  0  0  0  0  0  0  0
    1.4244   -5.3192    4.2074 C   0  0  0  0  0  0  0  0  0  0  0  0
    0.2918   -5.5347    3.7735 O   0  0  0  0  0  0  0  0  0  0  0  0
    1.9720   -3.9458    4.5992 C   0  0  1  0  0  0  0  0  0  0  0  0
    2.6942   -4.4236    5.9344 C   0  0  0  0  0  0  0  0  0  0  0  0
    3.4636   -3.4149    6.8461 C   0  0  0  0  0  0  0  0  0  0  0  0
    1.6776   -4.9555    7.0123 C   0  0  0  0  0  0  0  0  0  0  0  0
    3.5243   -5.6127    5.3338 C   0  0  2  0  0  0  0  0  0  0  0  0
    4.7057   -5.1627    4.3726 C   0  0  1  0  0  0  0  0  0  0  0  0
    5.9540   -4.9658    5.2810 C   0  0  0  0  0  0  0  0  0  0  0  0
    5.1420   -6.3458    3.4462 C   0  0  0  0  0  0  0  0  0  0  0  0
    4.3576   -3.7625    3.6844 C   0  0  1  0  0  0  0  0  0  0  0  0
    5.1615   -2.8794    2.7059 C   0  0  1  0  0  0  0  0  0  0  0  0
    4.9833   -3.2279    1.2175 C   0  0  1  0  0  0  0  0  0  0  0  0
    5.5628   -4.5029    0.9821 O   0  0  0  0  0  0  0  0  0  0  0  0
    6.9759   -4.5188    0.8392 C   0  0  0  0  0  0  0  0  0  0  0  0
    3.5055   -3.1646    0.7043 C   0  0  1  0  0  0  0  0  0  0  0  0
    3.2595   -1.8221    0.3450 O   0  0  0  0  0  0  0  0  0  0  0  0
    3.3160   -3.8731   -0.7097 C   0  0  0  0  0  0  0  0  0  0  0  0
    4.4108   -3.5763   -1.7516 C   0  0  0  0  0  0  0  0  0  0  0  0
    1.9458   -3.6728   -1.3827 C   0  0  0  0  0  0  0  0  0  0  0  0
    2.5099   -3.6142    1.8698 C   0  0  1  0  0  0  0  0  0  0  0  0
    2.2452   -4.9632    1.5623 O   0  0  0  0  0  0  0  0  0  0  0  0
    2.9018   -3.3261    3.4245 C   0  0  1  0  0  0  0  0  0  0  0  0
    3.0744   -1.7539    3.5414 C   0  0  1  0  0  0  0  0  0  0  0  0
    1.9408   -0.8530    2.9776 C   0  0  0  0  0  0  0  0  0  0  0  0
    3.0396   -1.3214    4.8895 O   0  0  0  0  0  0  0  0  0  0  0  0
    4.5209   -1.4770    2.9768 C   0  0  1  0  0  0  0  0  0  0  0  0
    5.3465   -0.7637    3.8736 O   0  0  0  0  0  0  0  0  0  0  0  0
    4.5688   -9.9093    0.8323 H   0  0  0  0  0  0  0  0  0  0  0  0
    4.1752   -9.8650    2.6378 H   0  0  0  0  0  0  0  0  0  0  0  0
    3.7100   -6.9047   -0.0679 H   0  0  0  0  0  0  0  0  0  0  0  0
    4.8062   -8.2224   -0.4385 H   0  0  0  0  0  0  0  0  0  0  0  0
    5.4570   -6.7337    0.2786 H   0  0  0  0  0  0  0  0  0  0  0  0
    2.0576   -7.7867    2.8641 H   0  0  0  0  0  0  0  0  0  0  0  0
    1.9185   -7.1090    5.2426 H   0  0  0  0  0  0  0  0  0  0  0  0
    1.1305   -3.2900    4.8168 H   0  0  0  0  0  0  0  0  0  0  0  0
    3.9402   -3.9396    7.6777 H   0  0  0  0  0  0  0  0  0  0  0  0
    2.7769   -2.6894    7.2841 H   0  0  0  0  0  0  0  0  0  0  0  0
    4.2591   -2.8132    6.4308 H   0  0  0  0  0  0  0  0  0  0  0  0
    2.2171   -5.3422    7.8824 H   0  0  0  0  0  0  0  0  0  0  0  0
    1.0166   -5.7663    6.7000 H   0  0  0  0  0  0  0  0  0  0  0  0
    1.0249   -4.1504    7.3622 H   0  0  0  0  0  0  0  0  0  0  0  0
    3.9189   -6.2524    6.1341 H   0  0  0  0  0  0  0  0  0  0  0  0
    6.8249   -4.7342    4.6715 H   0  0  0  0  0  0  0  0  0  0  0  0
    6.1872   -5.8742    5.8451 H   0  0  0  0  0  0  0  0  0  0  0  0
    5.8501   -4.1669    6.0210 H   0  0  0  0  0  0  0  0  0  0  0  0
    5.6346   -7.0899    4.0704 H   0  0  0  0  0  0  0  0  0  0  0  0
    5.8997   -6.0613    2.7328 H   0  0  0  0  0  0  0  0  0  0  0  0
    4.6394   -3.1794    4.5471 H   0  0  0  0  0  0  0  0  0  0  0  0
    6.1997   -2.8668    2.9740 H   0  0  0  0  0  0  0  0  0  0  0  0
    5.5457   -2.4900    0.6550 H   0  0  0  0  0  0  0  0  0  0  0  0
    7.2886   -5.5351    0.6240 H   0  0  0  0  0  0  0  0  0  0  0  0
    7.5144   -4.2137    1.7316 H   0  0  0  0  0  0  0  0  0  0  0  0
    7.2960   -3.9019    0.0059 H   0  0  0  0  0  0  0  0  0  0  0  0
    2.4139   -1.7550   -0.0865 H   0  0  0  0  0  0  0  0  0  0  0  0
    3.3866   -4.9500   -0.5679 H   0  0  0  0  0  0  0  0  0  0  0  0
    4.4541   -2.5308   -2.0501 H   0  0  0  0  0  0  0  0  0  0  0  0
    4.2206   -4.1749   -2.6363 H   0  0  0  0  0  0  0  0  0  0  0  0
    5.3893   -3.8849   -1.4053 H   0  0  0  0  0  0  0  0  0  0  0  0
    1.8029   -2.6605   -1.7103 H   0  0  0  0  0  0  0  0  0  0  0  0
    1.1434   -3.9720   -0.7296 H   0  0  0  0  0  0  0  0  0  0  0  0
    1.8353   -4.2573   -2.2830 H   0  0  0  0  0  0  0  0  0  0  0  0
    1.5485   -3.1264    1.7154 H   0  0  0  0  0  0  0  0  0  0  0  0
    3.0572   -5.4649    1.6673 H   0  0  0  0  0  0  0  0  0  0  0  0
    1.7155   -0.9614    1.9231 H   0  0  0  0  0  0  0  0  0  0  0  0
    2.2103    0.1973    3.1067 H   0  0  0  0  0  0  0  0  0  0  0  0
    0.9946   -1.0241    3.4965 H   0  0  0  0  0  0  0  0  0  0  0  0
    2.1647   -1.4496    5.2233 H   0  0  0  0  0  0  0  0  0  0  0  0
    4.5044   -0.8388    2.0951 H   0  0  0  0  0  0  0  0  0  0  0  0
    6.1632   -0.6022    3.4271 H   0  0  0  0  0  0  0  0  0  0  0  0
  1  2  2  0
  1 35  1  0
  1 36  1  0
  2  3  1  0
  2  4  1  0
  3 37  1  0
  3 38  1  0
  3 39  1  0
  4 16  1  0
  4  5  2  0
  5  6  1  0
  5 40  1  0
  6 13  1  0
  6  7  1  0
  6 41  1  1
  7  8  2  0
  7  9  1  0
  9 29  1  0
  9 10  1  0
  9 42  1  1
 10 11  1  0
 10 12  1  0
 10 13  1  0
 11 43  1  0
 11 44  1  0
 11 45  1  0
 12 46  1  0
 12 47  1  0
 12 48  1  0
 13 14  1  0
 13 49  1  1
 14 15  1  1
 14 16  1  0
 14 17  1  0
 15 50  1  0
 15 51  1  0
 15 52  1  0
 16 53  1  0
 16 54  1  0
 17 29  1  0
 17 18  1  0
 17 55  1  1
 18 33  1  0
 18 19  1  0
 18 56  1  1
 19 20  1  0
 19 22  1  0
 19 57  1  6
 20 21  1  0
 21 58  1  0
 21 59  1  0
 21 60  1  0
 22 23  1  6
 22 24  1  0
 22 27  1  0
 23 61  1  0
 24 25  1  0
 24 26  1  0
 24 62  1  0
 25 63  1  0
 25 64  1  0
 25 65  1  0
 26 66  1  0
 26 67  1  0
 26 68  1  0
 27 28  1  0
 27 29  1  0
 27 69  1  6
 28 70  1  0
 29 30  1  6
 30 31  1  0
 30 32  1  1
 30 33  1  0
 31 71  1  0
 31 72  1  0
 31 73  1  0
 32 74  1  0
 33 34  1  0
 33 75  1  6
 34 76  1  0
M  END
>  <i_m_ct_stereo_status>  (355) 
1

>  <s_m_source_file>  (355) 
/var/tmp/pbs.5076255.sched01/tmpo_pg7vmn/129owyy42_r.sdf

>  <i_m_source_file_index>  (355) 
10

>  <i_lp_mmshare_version>  (355) 
48012

>  <i_f3d_flags>  (355) 
0

>  <s_epik_input>  (355) 
W0NAXTEyM1tDQEhdNEMoPU8pW0NAQEhdNVtDQEhdKEM0KFtDSDNdKVtDSDNdKVtDQEBdKFtDSDNdKShbQ0gyXUMoPVtDSF01KUMoPVtDSDJdKVtDSDNdKVtDQEhdMVtDQEhdKFtDQEhdKFtPSF0pW0NAXTMoW0NIM10pW09IXSlbQ0BASF0oT1tDSDNdKVtDQEBdKFtPSF0pKFtDSF0oW0NIM10pW0NIM10pW0NASF0yW09IXQ==

>  <s_epik_cmdline>  (355) 
J2VwaWtfcHl0aG9uJywgJy1waHQnLCAnMi4wJywgJy1waCcsICc3LjAnLCAnLXRuJywgJzgnLCAnLW1hJywgJzIwMCcsICctaW1hZScsICc8aW5maWxlLm1hZT4nLCAnLW9tYWUnLCAnPG91dGZpbGUubWFlPic=

>  <r_lp_tautomer_probability>  (355) 
1

>  <r_epik_Ionization_Penalty>  (355) 
4.93399e-07

>  <r_epik_Ionization_Penalty_Charging>  (355) 
0

>  <r_epik_Ionization_Penalty_Neutral>  (355) 
4.93399e-07

>  <r_epik_State_Penalty>  (355) 
-0

>  <r_epik_Charging_Adjusted_Penalty>  (355) 
0

>  <i_epik_Tot_Q>  (355) 
0

>  <i_epik_Tot_abs_Q>  (355) 
0

>  <s_lp_Force_Field>  (355) 
OPLS3e

>  <r_lp_Energy>  (355) 
125.317

>  <b_lp_Chiralities_Consistent>  (355) 
1

>  <s_lp_Variant>  (355) 
97:0-1

>  <s_i_glide_gridfile>  (355) 
pfpi4k_grid

>  <i_i_glide_lignum>  (355) 
10

>  <i_i_glide_rotatable_bonds>  (355) 
7

>  <r_i_docking_score>  (355) 
-2.06992

>  <r_i_glide_ligand_efficiency>  (355) 
-0.0608799

>  <r_i_glide_ligand_efficiency_sa>  (355) 
-0.197227

>  <r_i_glide_ligand_efficiency_ln>  (355) 
-0.457303

>  <r_i_glide_gscore>  (355) 
-2.06992

>  <r_i_glide_lipo>  (355) 
-0.351481

>  <r_i_glide_hbond>  (355) 
-0.181618

>  <r_i_glide_metal>  (355) 
-0

>  <r_i_glide_rewards>  (355) 
-0.172981

>  <r_i_glide_evdw>  (355) 
-14.865

>  <r_i_glide_ecoul>  (355) 
-4.69875

>  <r_i_glide_erotb>  (355) 
0.0898304

>  <r_i_glide_esite>  (355) 
-0.00560435

>  <r_i_glide_emodel>  (355) 
-18.3923

>  <r_i_glide_energy>  (355) 
-19.5638

>  <r_i_glide_einternal>  (355) 
4.7412

>  <r_i_glide_intrahb_reward>  (355) 
-0

>  <i_i_glide_confnum>  (355) 
3

>  <i_i_glide_posenum>  (355) 
19

>  <r_i_glide_eff_state_penalty>  (355) 
0

>  <ligand_id>  (355) 
97

>  <original_smiles>  (355) 
C=C(C)C1=CC2C(=O)C3C(C)(C)C2C(C)(C1)C1C2C(OC)C(O)(C(C)C)C(O)C31C(C)(O)C2O

>  <smiles>  (355) 
[H]OC1([H])C2([H])C([H])(OC([H])([H])[H])C(O[H])(C([H])(C([H])([H])[H])C([H])([H])[H])C([H])(O[H])C3(C4([H])C(=O)C5([H])C([H])=C(C(=C([H])[H])C([H])([H])[H])C([H])([H])C(C([H])([H])[H])(C5([H])C4(C([H])([H])[H])C([H])([H])[H])C23[H])C1(O[H])C([H])([H])[H]

$$$$
98:0:0
     RDKit          3D

 45 49  0  0  1  0  0  0  0  0999 V2000
    2.5471    3.5942    3.0446 C   0  0  0  0  0  0  0  0  0  0  0  0
    1.9161    2.2498    2.9179 C   0  0  0  0  0  0  0  0  0  0  0  0
    2.5783    1.2884    2.1417 N   0  0  0  0  0  0  0  0  0  0  0  0
    1.9168    0.1383    2.0960 C   0  0  0  0  0  0  0  0  0  0  0  0
    0.4312    0.1403    3.0153 S   0  0  0  0  0  0  0  0  0  0  0  0
    0.7243    1.8028    3.4689 C   0  0  0  0  0  0  0  0  0  0  0  0
   -0.2894    2.5035    4.3408 C   0  0  2  0  0  0  0  0  0  0  0  0
   -0.7971    3.7708    3.6843 C   0  0  0  0  0  0  0  0  0  0  0  0
   -0.2253    4.9684    3.7262 N   0  0  0  0  0  0  0  0  0  0  0  0
   -0.9893    5.7438    2.8973 N   0  0  0  0  0  0  0  0  0  0  0  0
   -2.0583    5.0921    2.4979 N   0  0  0  0  0  0  0  0  0  0  0  0
   -1.9437    3.8281    2.9813 N   0  0  0  0  0  0  0  0  0  0  0  0
   -2.9921    2.8496    2.7232 C   0  0  0  0  0  0  0  0  0  0  0  0
    0.1154    2.6666    5.7640 N   0  0  0  0  0  0  0  0  0  0  0  0
   -0.9210    3.3500    6.5750 C   0  0  2  0  0  0  0  0  0  0  0  0
   -0.4197    3.6097    8.0142 C   0  0  0  0  0  0  0  0  0  0  0  0
   -0.1015    2.2703    8.6858 C   0  0  1  0  0  0  0  0  0  0  0  0
   -1.3684    1.3864    8.7201 C   0  0  0  0  0  0  0  0  0  0  0  0
   -1.8935    1.1482    7.2819 C   0  0  1  0  0  0  0  0  0  0  0  0
   -2.2208    2.5091    6.6365 C   0  0  0  0  0  0  0  0  0  0  0  0
   -0.7912    0.4353    6.4710 C   0  0  0  0  0  0  0  0  0  0  0  0
    0.4508    1.3697    6.4009 C   0  0  2  0  0  0  0  0  0  0  0  0
    0.9879    1.5961    7.8367 C   0  0  0  0  0  0  0  0  0  0  0  0
    2.1355    4.1858    3.8543 H   0  0  0  0  0  0  0  0  0  0  0  0
    2.4376    4.1599    2.1139 H   0  0  0  0  0  0  0  0  0  0  0  0
    3.6081    3.4982    3.2699 H   0  0  0  0  0  0  0  0  0  0  0  0
    2.2985   -0.6952    1.5334 H   0  0  0  0  0  0  0  0  0  0  0  0
   -1.1476    1.8434    4.3133 H   0  0  0  0  0  0  0  0  0  0  0  0
   -2.5681    1.8458    2.6769 H   0  0  0  0  0  0  0  0  0  0  0  0
   -3.4718    3.0561    1.7685 H   0  0  0  0  0  0  0  0  0  0  0  0
   -3.7506    2.8895    3.5085 H   0  0  0  0  0  0  0  0  0  0  0  0
   -1.1368    4.3276    6.1422 H   0  0  0  0  0  0  0  0  0  0  0  0
    0.4520    4.2671    8.0222 H   0  0  0  0  0  0  0  0  0  0  0  0
   -1.1987    4.1201    8.5834 H   0  0  0  0  0  0  0  0  0  0  0  0
    0.2612    2.4349    9.7025 H   0  0  0  0  0  0  0  0  0  0  0  0
   -1.1059    0.4453    9.1992 H   0  0  0  0  0  0  0  0  0  0  0  0
   -2.1427    1.8581    9.3285 H   0  0  0  0  0  0  0  0  0  0  0  0
   -2.8023    0.5492    7.2818 H   0  0  0  0  0  0  0  0  0  0  0  0
   -2.9710    3.0395    7.2300 H   0  0  0  0  0  0  0  0  0  0  0  0
   -2.6688    2.3798    5.6512 H   0  0  0  0  0  0  0  0  0  0  0  0
   -0.5054   -0.5034    6.9527 H   0  0  0  0  0  0  0  0  0  0  0  0
   -1.1600    0.1507    5.4843 H   0  0  0  0  0  0  0  0  0  0  0  0
    1.2503    0.8881    5.8345 H   0  0  0  0  0  0  0  0  0  0  0  0
    1.9016    2.1934    7.8309 H   0  0  0  0  0  0  0  0  0  0  0  0
    1.2541    0.6387    8.2855 H   0  0  0  0  0  0  0  0  0  0  0  0
  1  2  1  0
  1 24  1  0
  1 25  1  0
  1 26  1  0
  2  6  2  0
  2  3  1  0
  3  4  2  0
  4  5  1  0
  4 27  1  0
  5  6  1  0
  6  7  1  0
  7  8  1  0
  7 14  1  0
  7 28  1  1
  8 12  1  0
  8  9  2  0
  9 10  1  0
 10 11  2  0
 11 12  1  0
 12 13  1  0
 13 29  1  0
 13 30  1  0
 13 31  1  0
 14 22  1  0
 14 15  1  0
 15 20  1  0
 15 16  1  0
 15 32  1  6
 16 17  1  0
 16 33  1  0
 16 34  1  0
 17 23  1  0
 17 18  1  0
 17 35  1  1
 18 19  1  0
 18 36  1  0
 18 37  1  0
 19 20  1  0
 19 21  1  0
 19 38  1  1
 20 39  1  0
 20 40  1  0
 21 22  1  0
 21 41  1  0
 21 42  1  0
 22 23  1  0
 22 43  1  6
 23 44  1  0
 23 45  1  0
M  END
>  <i_m_ct_stereo_status>  (356) 
1

>  <s_m_source_file>  (356) 
/var/tmp/pbs.5076255.sched01/tmpo_pg7vmn/129owyy42_r.sdf

>  <i_m_source_file_index>  (356) 
11

>  <i_lp_mmshare_version>  (356) 
48012

>  <i_f3d_flags>  (356) 
0

>  <s_epik_input>  (356) 
W0NIM11jMW5bY0hdc2MxW0NASF0oYzJubm5uMltDSDNdKU4oW0NASF0zNClbQ0BASF01W0NIMl1bQ0BIXShbQ0gyXTQpW0NIMl1bQ0BIXShbQ0gyXTMpW0NIMl01

>  <s_epik_cmdline>  (356) 
J2VwaWtfcHl0aG9uJywgJy1waHQnLCAnMi4wJywgJy1waCcsICc3LjAnLCAnLXRuJywgJzgnLCAnLW1hJywgJzIwMCcsICctaW1hZScsICc8aW5maWxlLm1hZT4nLCAnLW9tYWUnLCAnPG91dGZpbGUubWFlPic=

>  <r_lp_tautomer_probability>  (356) 
1

>  <r_epik_Ionization_Penalty>  (356) 
0.0363215

>  <r_epik_Ionization_Penalty_Charging>  (356) 
0

>  <r_epik_Ionization_Penalty_Neutral>  (356) 
0.0363215

>  <r_epik_State_Penalty>  (356) 
0.0303031

>  <r_epik_Charging_Adjusted_Penalty>  (356) 
0.0303031

>  <i_epik_Tot_Q>  (356) 
0

>  <i_epik_Tot_abs_Q>  (356) 
0

>  <s_lp_Force_Field>  (356) 
OPLS3e

>  <r_lp_Energy>  (356) 
8.42305

>  <b_lp_Chiralities_Consistent>  (356) 
1

>  <s_lp_Variant>  (356) 
98:0-1

>  <s_i_glide_gridfile>  (356) 
pfpi4k_grid

>  <i_i_glide_lignum>  (356) 
11

>  <i_i_glide_rotatable_bonds>  (356) 
3

>  <r_i_docking_score>  (356) 
-2.39358

>  <r_i_glide_ligand_efficiency>  (356) 
-0.104069

>  <r_i_glide_ligand_efficiency_sa>  (356) 
-0.295957

>  <r_i_glide_ligand_efficiency_ln>  (356) 
-0.578789

>  <r_i_glide_gscore>  (356) 
-2.39358

>  <r_i_glide_lipo>  (356) 
-0.0882195

>  <r_i_glide_hbond>  (356) 
0

>  <r_i_glide_metal>  (356) 
-0

>  <r_i_glide_rewards>  (356) 
-1.15601

>  <r_i_glide_evdw>  (356) 
-16.4889

>  <r_i_glide_ecoul>  (356) 
-2.33206

>  <r_i_glide_erotb>  (356) 
0.516719

>  <r_i_glide_esite>  (356) 
-0.491812

>  <r_i_glide_emodel>  (356) 
-21.06

>  <r_i_glide_energy>  (356) 
-18.821

>  <r_i_glide_einternal>  (356) 
0.565921

>  <r_i_glide_intrahb_reward>  (356) 
-0

>  <i_i_glide_confnum>  (356) 
5

>  <i_i_glide_posenum>  (356) 
8

>  <r_i_glide_eff_state_penalty>  (356) 
0

>  <ligand_id>  (356) 
98

>  <original_smiles>  (356) 
Cc1ncsc1C(c1nnnn1C)N1C2CC3CC(C2)CC1C3

>  <smiles>  (356) 
[H]c1nc(C([H])([H])[H])c(C([H])(c2nnnn2C([H])([H])[H])N2C3([H])C([H])([H])C4([H])C([H])([H])C2([H])C([H])([H])C([H])(C3([H])[H])C4([H])[H])s1

$$$$
98:0:1
     RDKit          3D

 45 49  0  0  1  0  0  0  0  0999 V2000
    0.0462    5.7221    3.3804 C   0  0  0  0  0  0  0  0  0  0  0  0
   -1.1599    4.8335    3.2894 C   0  0  0  0  0  0  0  0  0  0  0  0
   -2.2403    5.2600    2.5081 N   0  0  0  0  0  0  0  0  0  0  0  0
   -3.2282    4.3635    2.4810 C   0  0  0  0  0  0  0  0  0  0  0  0
   -2.9242    2.9403    3.4591 S   0  0  0  0  0  0  0  0  0  0  0  0
   -1.3694    3.6166    3.9046 C   0  0  0  0  0  0  0  0  0  0  0  0
   -0.4868    2.8292    4.8346 C   0  0  2  0  0  0  0  0  0  0  0  0
   -0.4094    3.5201    6.1669 C   0  0  0  0  0  0  0  0  0  0  0  0
    0.5474    4.3523    6.5709 N   0  0  0  0  0  0  0  0  0  0  0  0
    0.1589    4.6924    7.8532 N   0  0  0  0  0  0  0  0  0  0  0  0
   -0.9566    4.1090    8.1947 N   0  0  0  0  0  0  0  0  0  0  0  0
   -1.3317    3.3582    7.1380 N   0  0  0  0  0  0  0  0  0  0  0  0
   -2.5461    2.5568    7.2238 C   0  0  0  0  0  0  0  0  0  0  0  0
    0.8135    2.4056    4.2557 N   0  0  0  0  0  0  0  0  0  0  0  0
    1.5703    1.5003    5.1614 C   0  0  2  0  0  0  0  0  0  0  0  0
    2.9674    1.1675    4.5720 C   0  0  0  0  0  0  0  0  0  0  0  0
    2.7928    0.4583    3.2211 C   0  0  1  0  0  0  0  0  0  0  0  0
    1.9802   -0.8467    3.4147 C   0  0  0  0  0  0  0  0  0  0  0  0
    0.6008   -0.5250    4.0335 C   0  0  1  0  0  0  0  0  0  0  0  0
    0.8061    0.1685    5.3998 C   0  0  0  0  0  0  0  0  0  0  0  0
   -0.1576    0.4243    3.0817 C   0  0  0  0  0  0  0  0  0  0  0  0
    0.6492    1.7401    2.9393 C   0  0  2  0  0  0  0  0  0  0  0  0
    2.0271    1.4251    2.3070 C   0  0  0  0  0  0  0  0  0  0  0  0
    0.9045    5.2198    3.8315 H   0  0  0  0  0  0  0  0  0  0  0  0
   -0.1758    6.6083    3.9664 H   0  0  0  0  0  0  0  0  0  0  0  0
    0.3425    6.0650    2.3926 H   0  0  0  0  0  0  0  0  0  0  0  0
   -4.1148    4.5395    1.9013 H   0  0  0  0  0  0  0  0  0  0  0  0
   -1.0765    1.9446    5.0429 H   0  0  0  0  0  0  0  0  0  0  0  0
   -2.9959    2.4335    6.2418 H   0  0  0  0  0  0  0  0  0  0  0  0
   -3.2713    3.0545    7.8717 H   0  0  0  0  0  0  0  0  0  0  0  0
   -2.3192    1.5754    7.6448 H   0  0  0  0  0  0  0  0  0  0  0  0
    1.7413    1.9986    6.1141 H   0  0  0  0  0  0  0  0  0  0  0  0
    3.5855    2.0618    4.4679 H   0  0  0  0  0  0  0  0  0  0  0  0
    3.5045    0.5088    5.2547 H   0  0  0  0  0  0  0  0  0  0  0  0
    3.7676    0.2251    2.7884 H   0  0  0  0  0  0  0  0  0  0  0  0
    1.8469   -1.3506    2.4558 H   0  0  0  0  0  0  0  0  0  0  0  0
    2.5228   -1.5367    4.0626 H   0  0  0  0  0  0  0  0  0  0  0  0
    0.0225   -1.4398    4.1713 H   0  0  0  0  0  0  0  0  0  0  0  0
    1.3897   -0.4724    6.0664 H   0  0  0  0  0  0  0  0  0  0  0  0
   -0.1431    0.3239    5.9192 H   0  0  0  0  0  0  0  0  0  0  0  0
   -0.2638   -0.0234    2.0927 H   0  0  0  0  0  0  0  0  0  0  0  0
   -1.1783    0.5957    3.4276 H   0  0  0  0  0  0  0  0  0  0  0  0
    0.1399    2.4130    2.2520 H   0  0  0  0  0  0  0  0  0  0  0  0
    2.5996    2.3380    2.1316 H   0  0  0  0  0  0  0  0  0  0  0  0
    1.8852    0.9654    1.3289 H   0  0  0  0  0  0  0  0  0  0  0  0
  1  2  1  0
  1 24  1  0
  1 25  1  0
  1 26  1  0
  2  6  2  0
  2  3  1  0
  3  4  2  0
  4  5  1  0
  4 27  1  0
  5  6  1  0
  6  7  1  0
  7  8  1  0
  7 14  1  0
  7 28  1  1
  8 12  1  0
  8  9  2  0
  9 10  1  0
 10 11  2  0
 11 12  1  0
 12 13  1  0
 13 29  1  0
 13 30  1  0
 13 31  1  0
 14 22  1  0
 14 15  1  0
 15 20  1  0
 15 16  1  0
 15 32  1  1
 16 17  1  0
 16 33  1  0
 16 34  1  0
 17 23  1  0
 17 18  1  0
 17 35  1  6
 18 19  1  0
 18 36  1  0
 18 37  1  0
 19 20  1  0
 19 21  1  0
 19 38  1  1
 20 39  1  0
 20 40  1  0
 21 22  1  0
 21 41  1  0
 21 42  1  0
 22 23  1  0
 22 43  1  6
 23 44  1  0
 23 45  1  0
M  END
>  <i_m_ct_stereo_status>  (357) 
1

>  <s_m_source_file>  (357) 
/var/tmp/pbs.5076255.sched01/tmpo_pg7vmn/129owyy42_r.sdf

>  <i_m_source_file_index>  (357) 
11

>  <i_lp_mmshare_version>  (357) 
48012

>  <i_f3d_flags>  (357) 
0

>  <s_epik_input>  (357) 
W0NIM11jMW5bY0hdc2MxW0NASF0oYzJubm5uMltDSDNdKU4oW0NASF0zNClbQ0BASF01W0NIMl1bQ0BIXShbQ0gyXTQpW0NIMl1bQ0BIXShbQ0gyXTMpW0NIMl01

>  <s_epik_cmdline>  (357) 
J2VwaWtfcHl0aG9uJywgJy1waHQnLCAnMi4wJywgJy1waCcsICc3LjAnLCAnLXRuJywgJzgnLCAnLW1hJywgJzIwMCcsICctaW1hZScsICc8aW5maWxlLm1hZT4nLCAnLW9tYWUnLCAnPG91dGZpbGUubWFlPic=

>  <r_lp_tautomer_probability>  (357) 
1

>  <r_epik_Ionization_Penalty>  (357) 
0.0363215

>  <r_epik_Ionization_Penalty_Charging>  (357) 
0

>  <r_epik_Ionization_Penalty_Neutral>  (357) 
0.0363215

>  <r_epik_State_Penalty>  (357) 
0.0303031

>  <r_epik_Charging_Adjusted_Penalty>  (357) 
0.0303031

>  <i_epik_Tot_Q>  (357) 
0

>  <i_epik_Tot_abs_Q>  (357) 
0

>  <s_lp_Force_Field>  (357) 
OPLS3e

>  <r_lp_Energy>  (357) 
8.42305

>  <b_lp_Chiralities_Consistent>  (357) 
1

>  <s_lp_Variant>  (357) 
98:0-1

>  <s_i_glide_gridfile>  (357) 
pfpi4k_grid

>  <i_i_glide_lignum>  (357) 
11

>  <i_i_glide_rotatable_bonds>  (357) 
3

>  <r_i_docking_score>  (357) 
-2.12359

>  <r_i_glide_ligand_efficiency>  (357) 
-0.0923302

>  <r_i_glide_ligand_efficiency_sa>  (357) 
-0.262575

>  <r_i_glide_ligand_efficiency_ln>  (357) 
-0.513504

>  <r_i_glide_gscore>  (357) 
-2.12359

>  <r_i_glide_lipo>  (357) 
-0.164542

>  <r_i_glide_hbond>  (357) 
-0.16

>  <r_i_glide_metal>  (357) 
-0

>  <r_i_glide_rewards>  (357) 
-1.18953

>  <r_i_glide_evdw>  (357) 
-14.6941

>  <r_i_glide_ecoul>  (357) 
-2.59481

>  <r_i_glide_erotb>  (357) 
0.516719

>  <r_i_glide_esite>  (357) 
-0.00231415

>  <r_i_glide_emodel>  (357) 
-19.3613

>  <r_i_glide_energy>  (357) 
-17.2889

>  <r_i_glide_einternal>  (357) 
0.441641

>  <r_i_glide_intrahb_reward>  (357) 
-0

>  <i_i_glide_confnum>  (357) 
1

>  <i_i_glide_posenum>  (357) 
7

>  <r_i_glide_eff_state_penalty>  (357) 
0

>  <ligand_id>  (357) 
98

>  <original_smiles>  (357) 
Cc1ncsc1C(c1nnnn1C)N1C2CC3CC(C2)CC1C3

>  <smiles>  (357) 
[H]c1nc(C([H])([H])[H])c(C([H])(c2nnnn2C([H])([H])[H])N2C3([H])C([H])([H])C4([H])C([H])([H])C2([H])C([H])([H])C([H])(C3([H])[H])C4([H])[H])s1

$$$$
98:0:2
     RDKit          3D

 45 49  0  0  1  0  0  0  0  0999 V2000
    3.5927    1.8882    4.9225 C   0  0  0  0  0  0  0  0  0  0  0  0
    2.5032    1.3212    4.0647 C   0  0  0  0  0  0  0  0  0  0  0  0
    2.8851    0.4223    3.0570 N   0  0  0  0  0  0  0  0  0  0  0  0
    1.8404   -0.0191    2.3657 C   0  0  0  0  0  0  0  0  0  0  0  0
    0.2968    0.5884    2.9125 S   0  0  0  0  0  0  0  0  0  0  0  0
    1.1376    1.5357    4.1256 C   0  0  0  0  0  0  0  0  0  0  0  0
    0.3152    2.4054    5.0502 C   0  0  2  0  0  0  0  0  0  0  0  0
    0.0784    3.7497    4.4035 C   0  0  0  0  0  0  0  0  0  0  0  0
    0.8916    4.8014    4.4589 N   0  0  0  0  0  0  0  0  0  0  0  0
    0.2231    5.7733    3.7393 N   0  0  0  0  0  0  0  0  0  0  0  0
   -0.9190    5.3381    3.2981 N   0  0  0  0  0  0  0  0  0  0  0  0
   -1.0250    4.0464    3.6997 N   0  0  0  0  0  0  0  0  0  0  0  0
   -2.2316    3.2765    3.3939 C   0  0  0  0  0  0  0  0  0  0  0  0
    0.7921    2.4529    6.4620 N   0  0  0  0  0  0  0  0  0  0  0  0
   -0.0458    3.3182    7.3283 C   0  0  2  0  0  0  0  0  0  0  0  0
    0.5526    3.4247    8.7545 C   0  0  0  0  0  0  0  0  0  0  0  0
    0.6216    2.0238    9.3838 C   0  0  1  0  0  0  0  0  0  0  0  0
   -0.7989    1.4123    9.4539 C   0  0  0  0  0  0  0  0  0  0  0  0
   -1.4165    1.3353    8.0357 C   0  0  1  0  0  0  0  0  0  0  0  0
   -1.4850    2.7547    7.4322 C   0  0  0  0  0  0  0  0  0  0  0  0
   -0.5119    0.4359    7.1582 C   0  0  0  0  0  0  0  0  0  0  0  0
    0.8876    1.0961    7.0611 C   0  0  2  0  0  0  0  0  0  0  0  0
    1.5189    1.1690    8.4736 C   0  0  0  0  0  0  0  0  0  0  0  0
    3.2348    2.3976    5.8098 H   0  0  0  0  0  0  0  0  0  0  0  0
    4.1866    2.6108    4.3677 H   0  0  0  0  0  0  0  0  0  0  0  0
    4.2590    1.0982    5.2677 H   0  0  0  0  0  0  0  0  0  0  0  0
    1.9558   -0.7054    1.5422 H   0  0  0  0  0  0  0  0  0  0  0  0
   -0.6665    1.9401    5.0648 H   0  0  0  0  0  0  0  0  0  0  0  0
   -2.0226    2.2092    3.3150 H   0  0  0  0  0  0  0  0  0  0  0  0
   -2.6415    3.6077    2.4426 H   0  0  0  0  0  0  0  0  0  0  0  0
   -2.9828    3.4279    4.1699 H   0  0  0  0  0  0  0  0  0  0  0  0
   -0.0796    4.3331    6.9241 H   0  0  0  0  0  0  0  0  0  0  0  0
    1.5398    3.8906    8.7350 H   0  0  0  0  0  0  0  0  0  0  0  0
   -0.0790    4.0645    9.3757 H   0  0  0  0  0  0  0  0  0  0  0  0
    1.0542    2.0821   10.3871 H   0  0  0  0  0  0  0  0  0  0  0  0
   -0.7440    0.4194    9.9004 H   0  0  0  0  0  0  0  0  0  0  0  0
   -1.4320    2.0128   10.1082 H   0  0  0  0  0  0  0  0  0  0  0  0
   -2.4293    0.9419    8.0818 H   0  0  0  0  0  0  0  0  0  0  0  0
   -2.0913    3.4028    8.0726 H   0  0  0  0  0  0  0  0  0  0  0  0
   -1.9852    2.7391    6.4625 H   0  0  0  0  0  0  0  0  0  0  0  0
   -0.4009   -0.5558    7.6060 H   0  0  0  0  0  0  0  0  0  0  0  0
   -0.9495    0.2702    6.1712 H   0  0  0  0  0  0  0  0  0  0  0  0
    1.5439    0.4732    6.4528 H   0  0  0  0  0  0  0  0  0  0  0  0
    2.5315    1.5745    8.4327 H   0  0  0  0  0  0  0  0  0  0  0  0
    1.6102    0.1653    8.8906 H   0  0  0  0  0  0  0  0  0  0  0  0
  1  2  1  0
  1 24  1  0
  1 25  1  0
  1 26  1  0
  2  6  2  0
  2  3  1  0
  3  4  2  0
  4  5  1  0
  4 27  1  0
  5  6  1  0
  6  7  1  0
  7  8  1  0
  7 14  1  0
  7 28  1  1
  8 12  1  0
  8  9  2  0
  9 10  1  0
 10 11  2  0
 11 12  1  0
 12 13  1  0
 13 29  1  0
 13 30  1  0
 13 31  1  0
 14 22  1  0
 14 15  1  0
 15 20  1  0
 15 16  1  0
 15 32  1  6
 16 17  1  0
 16 33  1  0
 16 34  1  0
 17 23  1  0
 17 18  1  0
 17 35  1  1
 18 19  1  0
 18 36  1  0
 18 37  1  0
 19 20  1  0
 19 21  1  0
 19 38  1  1
 20 39  1  0
 20 40  1  0
 21 22  1  0
 21 41  1  0
 21 42  1  0
 22 23  1  0
 22 43  1  6
 23 44  1  0
 23 45  1  0
M  END
>  <i_m_ct_stereo_status>  (358) 
1

>  <s_m_source_file>  (358) 
/var/tmp/pbs.5076255.sched01/tmpo_pg7vmn/129owyy42_r.sdf

>  <i_m_source_file_index>  (358) 
11

>  <i_lp_mmshare_version>  (358) 
48012

>  <i_f3d_flags>  (358) 
0

>  <s_epik_input>  (358) 
W0NIM11jMW5bY0hdc2MxW0NASF0oYzJubm5uMltDSDNdKU4oW0NASF0zNClbQ0BASF01W0NIMl1bQ0BIXShbQ0gyXTQpW0NIMl1bQ0BIXShbQ0gyXTMpW0NIMl01

>  <s_epik_cmdline>  (358) 
J2VwaWtfcHl0aG9uJywgJy1waHQnLCAnMi4wJywgJy1waCcsICc3LjAnLCAnLXRuJywgJzgnLCAnLW1hJywgJzIwMCcsICctaW1hZScsICc8aW5maWxlLm1hZT4nLCAnLW9tYWUnLCAnPG91dGZpbGUubWFlPic=

>  <r_lp_tautomer_probability>  (358) 
1

>  <r_epik_Ionization_Penalty>  (358) 
0.0363215

>  <r_epik_Ionization_Penalty_Charging>  (358) 
0

>  <r_epik_Ionization_Penalty_Neutral>  (358) 
0.0363215

>  <r_epik_State_Penalty>  (358) 
0.0303031

>  <r_epik_Charging_Adjusted_Penalty>  (358) 
0.0303031

>  <i_epik_Tot_Q>  (358) 
0

>  <i_epik_Tot_abs_Q>  (358) 
0

>  <s_lp_Force_Field>  (358) 
OPLS3e

>  <r_lp_Energy>  (358) 
8.42305

>  <b_lp_Chiralities_Consistent>  (358) 
1

>  <s_lp_Variant>  (358) 
98:0-1

>  <s_i_glide_gridfile>  (358) 
pfpi4k_grid

>  <i_i_glide_lignum>  (358) 
11

>  <i_i_glide_rotatable_bonds>  (358) 
3

>  <r_i_docking_score>  (358) 
-2.07233

>  <r_i_glide_ligand_efficiency>  (358) 
-0.0901013

>  <r_i_glide_ligand_efficiency_sa>  (358) 
-0.256236

>  <r_i_glide_ligand_efficiency_ln>  (358) 
-0.501108

>  <r_i_glide_gscore>  (358) 
-2.07233

>  <r_i_glide_lipo>  (358) 
-0.0189451

>  <r_i_glide_hbond>  (358) 
0

>  <r_i_glide_metal>  (358) 
-0

>  <r_i_glide_rewards>  (358) 
-1.15601

>  <r_i_glide_evdw>  (358) 
-18.2158

>  <r_i_glide_ecoul>  (358) 
-0.887367

>  <r_i_glide_erotb>  (358) 
0.516719

>  <r_i_glide_esite>  (358) 
-0.370201

>  <r_i_glide_emodel>  (358) 
-20.9773

>  <r_i_glide_energy>  (358) 
-19.1032

>  <r_i_glide_einternal>  (358) 
0.510482

>  <r_i_glide_intrahb_reward>  (358) 
-0

>  <i_i_glide_confnum>  (358) 
5

>  <i_i_glide_posenum>  (358) 
13

>  <r_i_glide_eff_state_penalty>  (358) 
0

>  <ligand_id>  (358) 
98

>  <original_smiles>  (358) 
Cc1ncsc1C(c1nnnn1C)N1C2CC3CC(C2)CC1C3

>  <smiles>  (358) 
[H]c1nc(C([H])([H])[H])c(C([H])(c2nnnn2C([H])([H])[H])N2C3([H])C([H])([H])C4([H])C([H])([H])C2([H])C([H])([H])C([H])(C3([H])[H])C4([H])[H])s1

$$$$
98:1:0
     RDKit          3D

 46 50  0  0  1  0  0  0  0  0999 V2000
    4.9064   -0.2554    2.1616 C   0  0  0  0  0  0  0  0  0  0  0  0
    4.3829   -1.6631    2.2839 C   0  0  0  0  0  0  0  0  0  0  0  0
    3.6235   -1.9718    3.4164 N   0  0  0  0  0  0  0  0  0  0  0  0
    3.2087   -3.2343    3.3948 C   0  0  0  0  0  0  0  0  0  0  0  0
    3.7024   -4.1341    1.9911 S   0  0  0  0  0  0  0  0  0  0  0  0
    4.5399   -2.7117    1.4211 C   0  0  0  0  0  0  0  0  0  0  0  0
    5.2880   -2.8041    0.1177 C   0  0  2  0  0  0  0  0  0  0  0  0
    6.7482   -2.4505    0.2793 C   0  0  0  0  0  0  0  0  0  0  0  0
    7.2921   -1.2366    0.2765 N   0  0  0  0  0  0  0  0  0  0  0  0
    8.6501   -1.4856    0.3892 N   0  0  0  0  0  0  0  0  0  0  0  0
    8.8884   -2.7544    0.5827 N   0  0  0  0  0  0  0  0  0  0  0  0
    7.7012   -3.3631    0.4731 N   0  0  0  0  0  0  0  0  0  0  0  0
    7.6440   -4.8079    0.6454 C   0  0  0  0  0  0  0  0  0  0  0  0
    4.6745   -1.9780   -0.9823 N   0  0  2  0  0  0  0  0  0  0  0  0
    3.2780   -2.4204   -1.2810 C   0  0  2  0  0  0  0  0  0  0  0  0
    3.2884   -3.8565   -1.8530 C   0  0  0  0  0  0  0  0  0  0  0  0
    4.1362   -3.8574   -3.1593 C   0  0  1  0  0  0  0  0  0  0  0  0
    3.4349   -2.9542   -4.1866 C   0  0  0  0  0  0  0  0  0  0  0  0
    3.3448   -1.5201   -3.6369 C   0  0  1  0  0  0  0  0  0  0  0  0
    2.6184   -1.5195   -2.3267 C   0  0  0  0  0  0  0  0  0  0  0  0
    4.7139   -1.0066   -3.3096 C   0  0  0  0  0  0  0  0  0  0  0  0
    5.4402   -1.9236   -2.2857 C   0  0  2  0  0  0  0  0  0  0  0  0
    5.5582   -3.3406   -2.8692 C   0  0  0  0  0  0  0  0  0  0  0  0
    5.2569   -0.0031    1.1630 H   0  0  0  0  0  0  0  0  0  0  0  0
    5.7346   -0.0882    2.8512 H   0  0  0  0  0  0  0  0  0  0  0  0
    4.1283    0.4729    2.3828 H   0  0  0  0  0  0  0  0  0  0  0  0
    2.6180   -3.6355    4.1945 H   0  0  0  0  0  0  0  0  0  0  0  0
    5.2839   -3.8667   -0.1566 H   0  0  0  0  0  0  0  0  0  0  0  0
    6.6829   -5.0978    1.0743 H   0  0  0  0  0  0  0  0  0  0  0  0
    8.4394   -5.0833    1.3393 H   0  0  0  0  0  0  0  0  0  0  0  0
    7.8200   -5.2897   -0.3155 H   0  0  0  0  0  0  0  0  0  0  0  0
    2.6507   -2.3797   -0.3837 H   0  0  0  0  0  0  0  0  0  0  0  0
    3.6536   -4.5698   -1.1239 H   0  0  0  0  0  0  0  0  0  0  0  0
    2.2559   -4.1213   -2.0791 H   0  0  0  0  0  0  0  0  0  0  0  0
    4.2588   -4.8324   -3.6187 H   0  0  0  0  0  0  0  0  0  0  0  0
    4.0006   -2.9749   -5.1084 H   0  0  0  0  0  0  0  0  0  0  0  0
    2.4380   -3.3358   -4.4145 H   0  0  0  0  0  0  0  0  0  0  0  0
    2.8665   -0.8605   -4.3673 H   0  0  0  0  0  0  0  0  0  0  0  0
    1.6680   -1.9604   -2.5726 H   0  0  0  0  0  0  0  0  0  0  0  0
    2.5234   -0.4947   -1.9923 H   0  0  0  0  0  0  0  0  0  0  0  0
    5.1329   -1.0574   -4.3074 H   0  0  0  0  0  0  0  0  0  0  0  0
    4.6785    0.0364   -2.9740 H   0  0  0  0  0  0  0  0  0  0  0  0
    6.4305   -1.5027   -2.1301 H   0  0  0  0  0  0  0  0  0  0  0  0
    6.0857   -4.0015   -2.1811 H   0  0  0  0  0  0  0  0  0  0  0  0
    6.1556   -3.3223   -3.7847 H   0  0  0  0  0  0  0  0  0  0  0  0
    4.5899   -1.0236   -0.6704 H   0  0  0  0  0  0  0  0  0  0  0  0
  1  2  1  0
  1 24  1  0
  1 25  1  0
  1 26  1  0
  2  6  2  0
  2  3  1  0
  3  4  2  0
  4  5  1  0
  4 27  1  0
  5  6  1  0
  6  7  1  0
  7  8  1  0
  7 14  1  0
  7 28  1  6
  8 12  1  0
  8  9  2  0
  9 10  1  0
 10 11  2  0
 11 12  1  0
 12 13  1  0
 13 29  1  0
 13 30  1  0
 13 31  1  0
 14 22  1  0
 14 15  1  0
 14 46  1  1
 15 20  1  0
 15 16  1  0
 15 32  1  1
 16 17  1  0
 16 33  1  0
 16 34  1  0
 17 23  1  0
 17 18  1  0
 17 35  1  6
 18 19  1  0
 18 36  1  0
 18 37  1  0
 19 20  1  0
 19 21  1  0
 19 38  1  6
 20 39  1  0
 20 40  1  0
 21 22  1  0
 21 41  1  0
 21 42  1  0
 22 23  1  0
 22 43  1  1
 23 44  1  0
 23 45  1  0
M  CHG  1  14   1
M  END
>  <i_m_ct_stereo_status>  (359) 
1

>  <s_m_source_file>  (359) 
/var/tmp/pbs.5076255.sched01/tmpo_pg7vmn/129owyy42_r.sdf

>  <i_m_source_file_index>  (359) 
12

>  <i_lp_mmshare_version>  (359) 
48012

>  <i_f3d_flags>  (359) 
0

>  <s_epik_input>  (359) 
W0NIM11jMW5bY0hdc2MxW0NASF0oYzJubm5uMltDSDNdKU4oW0NASF0zNClbQ0BASF01W0NIMl1bQ0BIXShbQ0gyXTQpW0NIMl1bQ0BIXShbQ0gyXTMpW0NIMl01

>  <s_epik_cmdline>  (359) 
J2VwaWtfcHl0aG9uJywgJy1waHQnLCAnMi4wJywgJy1waCcsICc3LjAnLCAnLXRuJywgJzgnLCAnLW1hJywgJzIwMCcsICctaW1hZScsICc8aW5maWxlLm1hZT4nLCAnLW9tYWUnLCAnPG91dGZpbGUubWFlPic=

>  <r_lp_tautomer_probability>  (359) 
1

>  <r_epik_Ionization_Penalty>  (359) 
1.67281

>  <r_epik_Ionization_Penalty_Charging>  (359) 
1.6728

>  <r_epik_Ionization_Penalty_Neutral>  (359) 
9.44481e-06

>  <r_epik_State_Penalty>  (359) 
1.77659

>  <r_epik_Charging_Adjusted_Penalty>  (359) 
3.44939

>  <i_epik_Tot_Q>  (359) 
1

>  <i_epik_Tot_abs_Q>  (359) 
1

>  <s_lp_Force_Field>  (359) 
OPLS3e

>  <r_lp_Energy>  (359) 
13.1328

>  <b_lp_Chiralities_Consistent>  (359) 
1

>  <s_lp_Variant>  (359) 
98:0-2

>  <s_i_glide_gridfile>  (359) 
pfpi4k_grid

>  <i_i_glide_lignum>  (359) 
12

>  <i_i_glide_rotatable_bonds>  (359) 
3

>  <r_i_docking_score>  (359) 
-2.68689

>  <r_i_glide_ligand_efficiency>  (359) 
-0.116821

>  <r_i_glide_ligand_efficiency_sa>  (359) 
-0.332224

>  <r_i_glide_ligand_efficiency_ln>  (359) 
-0.649714

>  <r_i_glide_gscore>  (359) 
-2.68689

>  <r_i_glide_lipo>  (359) 
-0.842319

>  <r_i_glide_hbond>  (359) 
0

>  <r_i_glide_metal>  (359) 
-0

>  <r_i_glide_rewards>  (359) 
-1.51787

>  <r_i_glide_evdw>  (359) 
-6.61235

>  <r_i_glide_ecoul>  (359) 
-2.309

>  <r_i_glide_erotb>  (359) 
0.513944

>  <r_i_glide_esite>  (359) 
-0.163679

>  <r_i_glide_emodel>  (359) 
-11.084

>  <r_i_glide_energy>  (359) 
-8.92135

>  <r_i_glide_einternal>  (359) 
2.03898

>  <r_i_glide_intrahb_reward>  (359) 
-0

>  <i_i_glide_confnum>  (359) 
1

>  <i_i_glide_posenum>  (359) 
10

>  <r_i_glide_eff_state_penalty>  (359) 
0

>  <ligand_id>  (359) 
98

>  <original_smiles>  (359) 
Cc1ncsc1C(c1nnnn1C)N1C2CC3CC(C2)CC1C3

>  <smiles>  (359) 
[H]c1nc(C([H])([H])[H])c(C([H])(c2nnnn2C([H])([H])[H])[N+]2([H])C3([H])C([H])([H])C4([H])C([H])([H])C([H])(C3([H])[H])C([H])([H])C2([H])C4([H])[H])s1

$$$$
98:1:1
     RDKit          3D

 46 50  0  0  1  0  0  0  0  0999 V2000
   -0.7372    2.6772    7.2982 C   0  0  0  0  0  0  0  0  0  0  0  0
   -1.0541    2.8077    5.8430 C   0  0  0  0  0  0  0  0  0  0  0  0
   -2.3807    3.0371    5.5074 N   0  0  0  0  0  0  0  0  0  0  0  0
   -2.5496    3.1647    4.2018 C   0  0  0  0  0  0  0  0  0  0  0  0
   -1.0926    3.0199    3.2824 S   0  0  0  0  0  0  0  0  0  0  0  0
   -0.2063    2.6826    4.7460 C   0  0  0  0  0  0  0  0  0  0  0  0
    1.2590    2.3225    4.7467 C   0  0  2  0  0  0  0  0  0  0  0  0
    2.1317    3.5489    4.9218 C   0  0  0  0  0  0  0  0  0  0  0  0
    2.4451    4.0206    6.1129 N   0  0  0  0  0  0  0  0  0  0  0  0
    3.2231    5.1308    5.8512 N   0  0  0  0  0  0  0  0  0  0  0  0
    3.3484    5.3185    4.5689 N   0  0  0  0  0  0  0  0  0  0  0  0
    2.6662    4.3248    3.9421 N   0  0  0  0  0  0  0  0  0  0  0  0
    2.6339    4.2700    2.4955 C   0  0  0  0  0  0  0  0  0  0  0  0
    1.7030    1.5660    3.5240 N   0  0  2  0  0  0  0  0  0  0  0  0
    0.8576    0.3590    3.2467 C   0  0  2  0  0  0  0  0  0  0  0  0
    1.0463   -0.6800    4.3794 C   0  0  0  0  0  0  0  0  0  0  0  0
    2.5459   -1.0783    4.4556 C   0  0  1  0  0  0  0  0  0  0  0  0
    2.9430   -1.7290    3.1058 C   0  0  0  0  0  0  0  0  0  0  0  0
    2.7337   -0.7216    1.9443 C   0  0  1  0  0  0  0  0  0  0  0  0
    1.2584   -0.2769    1.8976 C   0  0  0  0  0  0  0  0  0  0  0  0
    3.5914    0.5309    2.2003 C   0  0  0  0  0  0  0  0  0  0  0  0
    3.1751    1.1898    3.5459 C   0  0  2  0  0  0  0  0  0  0  0  0
    3.4306    0.1730    4.6871 C   0  0  0  0  0  0  0  0  0  0  0  0
    0.3212    2.6499    7.5136 H   0  0  0  0  0  0  0  0  0  0  0  0
   -1.1568    1.7819    7.7522 H   0  0  0  0  0  0  0  0  0  0  0  0
   -1.1230    3.5168    7.8695 H   0  0  0  0  0  0  0  0  0  0  0  0
   -3.5171    3.3308    3.7737 H   0  0  0  0  0  0  0  0  0  0  0  0
    1.4439    1.6843    5.6354 H   0  0  0  0  0  0  0  0  0  0  0  0
    2.5643    3.2348    2.1389 H   0  0  0  0  0  0  0  0  0  0  0  0
    3.5369    4.7384    2.0953 H   0  0  0  0  0  0  0  0  0  0  0  0
    1.7851    4.8476    2.1351 H   0  0  0  0  0  0  0  0  0  0  0  0
   -0.2088    0.6184    3.1691 H   0  0  0  0  0  0  0  0  0  0  0  0
    0.7145   -0.2571    5.3299 H   0  0  0  0  0  0  0  0  0  0  0  0
    0.4326   -1.5629    4.1760 H   0  0  0  0  0  0  0  0  0  0  0  0
    2.6956   -1.7930    5.2779 H   0  0  0  0  0  0  0  0  0  0  0  0
    3.9871   -2.0506    3.1393 H   0  0  0  0  0  0  0  0  0  0  0  0
    2.3393   -2.6201    2.9299 H   0  0  0  0  0  0  0  0  0  0  0  0
    3.0240   -1.1821    0.9900 H   0  0  0  0  0  0  0  0  0  0  0  0
    0.6384   -1.1378    1.6730 H   0  0  0  0  0  0  0  0  0  0  0  0
    1.1120    0.4340    1.0802 H   0  0  0  0  0  0  0  0  0  0  0  0
    4.6497    0.2466    2.2269 H   0  0  0  0  0  0  0  0  0  0  0  0
    3.4881    1.2319    1.3687 H   0  0  0  0  0  0  0  0  0  0  0  0
    3.8365    2.0560    3.7014 H   0  0  0  0  0  0  0  0  0  0  0  0
    3.2155    0.6332    5.6556 H   0  0  0  0  0  0  0  0  0  0  0  0
    4.4916   -0.1125    4.6853 H   0  0  0  0  0  0  0  0  0  0  0  0
    1.5696    2.1997    2.7323 H   0  0  0  0  0  0  0  0  0  0  0  0
  1  2  1  0
  1 24  1  0
  1 25  1  0
  1 26  1  0
  2  6  2  0
  2  3  1  0
  3  4  2  0
  4  5  1  0
  4 27  1  0
  5  6  1  0
  6  7  1  0
  7  8  1  0
  7 14  1  0
  7 28  1  1
  8 12  1  0
  8  9  2  0
  9 10  1  0
 10 11  2  0
 11 12  1  0
 12 13  1  0
 13 29  1  0
 13 30  1  0
 13 31  1  0
 14 22  1  0
 14 15  1  0
 14 46  1  6
 15 20  1  0
 15 16  1  0
 15 32  1  6
 16 17  1  0
 16 33  1  0
 16 34  1  0
 17 23  1  0
 17 18  1  0
 17 35  1  1
 18 19  1  0
 18 36  1  0
 18 37  1  0
 19 20  1  0
 19 21  1  0
 19 38  1  6
 20 39  1  0
 20 40  1  0
 21 22  1  0
 21 41  1  0
 21 42  1  0
 22 23  1  0
 22 43  1  1
 23 44  1  0
 23 45  1  0
M  CHG  1  14   1
M  END
>  <i_m_ct_stereo_status>  (360) 
1

>  <s_m_source_file>  (360) 
/var/tmp/pbs.5076255.sched01/tmpo_pg7vmn/129owyy42_r.sdf

>  <i_m_source_file_index>  (360) 
12

>  <i_lp_mmshare_version>  (360) 
48012

>  <i_f3d_flags>  (360) 
0

>  <s_epik_input>  (360) 
W0NIM11jMW5bY0hdc2MxW0NASF0oYzJubm5uMltDSDNdKU4oW0NASF0zNClbQ0BASF01W0NIMl1bQ0BIXShbQ0gyXTQpW0NIMl1bQ0BIXShbQ0gyXTMpW0NIMl01

>  <s_epik_cmdline>  (360) 
J2VwaWtfcHl0aG9uJywgJy1waHQnLCAnMi4wJywgJy1waCcsICc3LjAnLCAnLXRuJywgJzgnLCAnLW1hJywgJzIwMCcsICctaW1hZScsICc8aW5maWxlLm1hZT4nLCAnLW9tYWUnLCAnPG91dGZpbGUubWFlPic=

>  <r_lp_tautomer_probability>  (360) 
1

>  <r_epik_Ionization_Penalty>  (360) 
1.67281

>  <r_epik_Ionization_Penalty_Charging>  (360) 
1.6728

>  <r_epik_Ionization_Penalty_Neutral>  (360) 
9.44481e-06

>  <r_epik_State_Penalty>  (360) 
1.77659

>  <r_epik_Charging_Adjusted_Penalty>  (360) 
3.44939

>  <i_epik_Tot_Q>  (360) 
1

>  <i_epik_Tot_abs_Q>  (360) 
1

>  <s_lp_Force_Field>  (360) 
OPLS3e

>  <r_lp_Energy>  (360) 
13.1328

>  <b_lp_Chiralities_Consistent>  (360) 
1

>  <s_lp_Variant>  (360) 
98:0-2

>  <s_i_glide_gridfile>  (360) 
pfpi4k_grid

>  <i_i_glide_lignum>  (360) 
12

>  <i_i_glide_rotatable_bonds>  (360) 
3

>  <r_i_docking_score>  (360) 
-2.45688

>  <r_i_glide_ligand_efficiency>  (360) 
-0.106821

>  <r_i_glide_ligand_efficiency_sa>  (360) 
-0.303785

>  <r_i_glide_ligand_efficiency_ln>  (360) 
-0.594097

>  <r_i_glide_gscore>  (360) 
-2.45688

>  <r_i_glide_lipo>  (360) 
-0.0375409

>  <r_i_glide_hbond>  (360) 
0

>  <r_i_glide_metal>  (360) 
-0

>  <r_i_glide_rewards>  (360) 
-1.14914

>  <r_i_glide_evdw>  (360) 
-20.2956

>  <r_i_glide_ecoul>  (360) 
-4.89484

>  <r_i_glide_erotb>  (360) 
0.513944

>  <r_i_glide_esite>  (360) 
-0.035147

>  <r_i_glide_emodel>  (360) 
-26.0373

>  <r_i_glide_energy>  (360) 
-25.1904

>  <r_i_glide_einternal>  (360) 
3.48545

>  <r_i_glide_intrahb_reward>  (360) 
-0

>  <i_i_glide_confnum>  (360) 
2

>  <i_i_glide_posenum>  (360) 
19

>  <r_i_glide_eff_state_penalty>  (360) 
0

>  <ligand_id>  (360) 
98

>  <original_smiles>  (360) 
Cc1ncsc1C(c1nnnn1C)N1C2CC3CC(C2)CC1C3

>  <smiles>  (360) 
[H]c1nc(C([H])([H])[H])c(C([H])(c2nnnn2C([H])([H])[H])[N+]2([H])C3([H])C([H])([H])C4([H])C([H])([H])C([H])(C3([H])[H])C([H])([H])C2([H])C4([H])[H])s1

$$$$
98:1:2
     RDKit          3D

 46 50  0  0  1  0  0  0  0  0999 V2000
    3.2803   -4.8516    1.7572 C   0  0  0  0  0  0  0  0  0  0  0  0
    3.5965   -3.4188    2.1083 C   0  0  0  0  0  0  0  0  0  0  0  0
    3.0251   -2.9188    3.2761 N   0  0  0  0  0  0  0  0  0  0  0  0
    3.3686   -1.6614    3.4953 C   0  0  0  0  0  0  0  0  0  0  0  0
    4.4023   -0.9536    2.2749 S   0  0  0  0  0  0  0  0  0  0  0  0
    4.3779   -2.4992    1.4373 C   0  0  0  0  0  0  0  0  0  0  0  0
    5.1309   -2.7003    0.1542 C   0  0  2  0  0  0  0  0  0  0  0  0
    6.6045   -2.3722    0.3111 C   0  0  0  0  0  0  0  0  0  0  0  0
    7.1572   -1.1762    0.3184 N   0  0  0  0  0  0  0  0  0  0  0  0
    8.5128   -1.4378    0.4062 N   0  0  0  0  0  0  0  0  0  0  0  0
    8.7461   -2.7091    0.5348 N   0  0  0  0  0  0  0  0  0  0  0  0
    7.5332   -3.3088    0.4990 N   0  0  0  0  0  0  0  0  0  0  0  0
    7.4597   -4.7423    0.6570 C   0  0  0  0  0  0  0  0  0  0  0  0
    4.5644   -1.9188   -1.0079 N   0  0  2  0  0  0  0  0  0  0  0  0
    3.1787   -2.3929   -1.3408 C   0  0  2  0  0  0  0  0  0  0  0  0
    3.2256   -3.8473   -1.8601 C   0  0  0  0  0  0  0  0  0  0  0  0
    4.1352   -3.8776   -3.1208 C   0  0  1  0  0  0  0  0  0  0  0  0
    3.4662   -3.0508   -4.2142 C   0  0  0  0  0  0  0  0  0  0  0  0
    3.3500   -1.5959   -3.7407 C   0  0  1  0  0  0  0  0  0  0  0  0
    2.5565   -1.5362   -2.4634 C   0  0  0  0  0  0  0  0  0  0  0  0
    4.7077   -1.0567   -3.3804 C   0  0  0  0  0  0  0  0  0  0  0  0
    5.3886   -1.9087   -2.2680 C   0  0  2  0  0  0  0  0  0  0  0  0
    5.5375   -3.3490   -2.7806 C   0  0  0  0  0  0  0  0  0  0  0  0
    3.8962   -5.2645    0.9698 H   0  0  0  0  0  0  0  0  0  0  0  0
    2.2430   -4.9656    1.4479 H   0  0  0  0  0  0  0  0  0  0  0  0
    3.4210   -5.5018    2.6187 H   0  0  0  0  0  0  0  0  0  0  0  0
    3.0238   -1.1246    4.3686 H   0  0  0  0  0  0  0  0  0  0  0  0
    5.1001   -3.7620   -0.0925 H   0  0  0  0  0  0  0  0  0  0  0  0
    6.4944   -5.0157    1.0962 H   0  0  0  0  0  0  0  0  0  0  0  0
    8.2486   -5.0575    1.3326 H   0  0  0  0  0  0  0  0  0  0  0  0
    7.5962   -5.2245   -0.3109 H   0  0  0  0  0  0  0  0  0  0  0  0
    2.5447   -2.3157   -0.4561 H   0  0  0  0  0  0  0  0  0  0  0  0
    3.5759   -4.5456   -1.0980 H   0  0  0  0  0  0  0  0  0  0  0  0
    2.1984   -4.1488   -2.1021 H   0  0  0  0  0  0  0  0  0  0  0  0
    4.2814   -4.8650   -3.5493 H   0  0  0  0  0  0  0  0  0  0  0  0
    4.0725   -3.1567   -5.0994 H   0  0  0  0  0  0  0  0  0  0  0  0
    2.4794   -3.4555   -4.4471 H   0  0  0  0  0  0  0  0  0  0  0  0
    2.8955   -0.9800   -4.5249 H   0  0  0  0  0  0  0  0  0  0  0  0
    1.5935   -1.9763   -2.7028 H   0  0  0  0  0  0  0  0  0  0  0  0
    2.4159   -0.4892   -2.1957 H   0  0  0  0  0  0  0  0  0  0  0  0
    5.2088   -1.1407   -4.3348 H   0  0  0  0  0  0  0  0  0  0  0  0
    4.6502   -0.0021   -3.0986 H   0  0  0  0  0  0  0  0  0  0  0  0
    6.3737   -1.4821   -2.0868 H   0  0  0  0  0  0  0  0  0  0  0  0
    6.0169   -3.9880   -2.0368 H   0  0  0  0  0  0  0  0  0  0  0  0
    6.1792   -3.3852   -3.6582 H   0  0  0  0  0  0  0  0  0  0  0  0
    4.4737   -0.9561   -0.7157 H   0  0  0  0  0  0  0  0  0  0  0  0
  1  2  1  0
  1 24  1  0
  1 25  1  0
  1 26  1  0
  2  6  2  0
  2  3  1  0
  3  4  2  0
  4  5  1  0
  4 27  1  0
  5  6  1  0
  6  7  1  0
  7  8  1  0
  7 14  1  0
  7 28  1  6
  8 12  1  0
  8  9  2  0
  9 10  1  0
 10 11  2  0
 11 12  1  0
 12 13  1  0
 13 29  1  0
 13 30  1  0
 13 31  1  0
 14 22  1  0
 14 15  1  0
 14 46  1  1
 15 20  1  0
 15 16  1  0
 15 32  1  1
 16 17  1  0
 16 33  1  0
 16 34  1  0
 17 23  1  0
 17 18  1  0
 17 35  1  6
 18 19  1  0
 18 36  1  0
 18 37  1  0
 19 20  1  0
 19 21  1  0
 19 38  1  6
 20 39  1  0
 20 40  1  0
 21 22  1  0
 21 41  1  0
 21 42  1  0
 22 23  1  0
 22 43  1  1
 23 44  1  0
 23 45  1  0
M  CHG  1  14   1
M  END
>  <i_m_ct_stereo_status>  (361) 
1

>  <s_m_source_file>  (361) 
/var/tmp/pbs.5076255.sched01/tmpo_pg7vmn/129owyy42_r.sdf

>  <i_m_source_file_index>  (361) 
12

>  <i_lp_mmshare_version>  (361) 
48012

>  <i_f3d_flags>  (361) 
0

>  <s_epik_input>  (361) 
W0NIM11jMW5bY0hdc2MxW0NASF0oYzJubm5uMltDSDNdKU4oW0NASF0zNClbQ0BASF01W0NIMl1bQ0BIXShbQ0gyXTQpW0NIMl1bQ0BIXShbQ0gyXTMpW0NIMl01

>  <s_epik_cmdline>  (361) 
J2VwaWtfcHl0aG9uJywgJy1waHQnLCAnMi4wJywgJy1waCcsICc3LjAnLCAnLXRuJywgJzgnLCAnLW1hJywgJzIwMCcsICctaW1hZScsICc8aW5maWxlLm1hZT4nLCAnLW9tYWUnLCAnPG91dGZpbGUubWFlPic=

>  <r_lp_tautomer_probability>  (361) 
1

>  <r_epik_Ionization_Penalty>  (361) 
1.67281

>  <r_epik_Ionization_Penalty_Charging>  (361) 
1.6728

>  <r_epik_Ionization_Penalty_Neutral>  (361) 
9.44481e-06

>  <r_epik_State_Penalty>  (361) 
1.77659

>  <r_epik_Charging_Adjusted_Penalty>  (361) 
3.44939

>  <i_epik_Tot_Q>  (361) 
1

>  <i_epik_Tot_abs_Q>  (361) 
1

>  <s_lp_Force_Field>  (361) 
OPLS3e

>  <r_lp_Energy>  (361) 
13.1328

>  <b_lp_Chiralities_Consistent>  (361) 
1

>  <s_lp_Variant>  (361) 
98:0-2

>  <s_i_glide_gridfile>  (361) 
pfpi4k_grid

>  <i_i_glide_lignum>  (361) 
12

>  <i_i_glide_rotatable_bonds>  (361) 
3

>  <r_i_docking_score>  (361) 
-2.4379

>  <r_i_glide_ligand_efficiency>  (361) 
-0.105996

>  <r_i_glide_ligand_efficiency_sa>  (361) 
-0.301438

>  <r_i_glide_ligand_efficiency_ln>  (361) 
-0.589507

>  <r_i_glide_gscore>  (361) 
-2.4379

>  <r_i_glide_lipo>  (361) 
-0.71065

>  <r_i_glide_hbond>  (361) 
0

>  <r_i_glide_metal>  (361) 
-0

>  <r_i_glide_rewards>  (361) 
-1.4829

>  <r_i_glide_evdw>  (361) 
-5.51808

>  <r_i_glide_ecoul>  (361) 
-2.16259

>  <r_i_glide_erotb>  (361) 
0.513944

>  <r_i_glide_esite>  (361) 
-0.158005

>  <r_i_glide_emodel>  (361) 
-8.45157

>  <r_i_glide_energy>  (361) 
-7.68067

>  <r_i_glide_einternal>  (361) 
4.12345

>  <r_i_glide_intrahb_reward>  (361) 
-0

>  <i_i_glide_confnum>  (361) 
4

>  <i_i_glide_posenum>  (361) 
32

>  <r_i_glide_eff_state_penalty>  (361) 
0

>  <ligand_id>  (361) 
98

>  <original_smiles>  (361) 
Cc1ncsc1C(c1nnnn1C)N1C2CC3CC(C2)CC1C3

>  <smiles>  (361) 
[H]c1nc(C([H])([H])[H])c(C([H])(c2nnnn2C([H])([H])[H])[N+]2([H])C3([H])C([H])([H])C4([H])C([H])([H])C([H])(C3([H])[H])C([H])([H])C2([H])C4([H])[H])s1

$$$$
99:0:0
     RDKit          3D

 64 69  0  0  1  0  0  0  0  0999 V2000
    6.1969   -4.8371    5.9493 C   0  0  0  0  0  0  0  0  0  0  0  0
    5.0568   -4.8016    5.0194 N   0  0  0  0  0  0  0  0  0  0  0  0
    4.4285   -5.9527    4.6450 C   0  0  0  0  0  0  0  0  0  0  0  0
    4.7578   -7.0361    5.1342 O   0  0  0  0  0  0  0  0  0  0  0  0
    3.4727   -5.8720    3.6743 N   0  0  0  0  0  0  0  0  0  0  0  0
    2.7774   -7.0454    3.2569 C   0  0  0  0  0  0  0  0  0  0  0  0
    3.4754   -8.1691    2.7456 C   0  0  0  0  0  0  0  0  0  0  0  0
    2.7708   -9.3288    2.3596 C   0  0  0  0  0  0  0  0  0  0  0  0
    1.3686   -9.3663    2.4770 C   0  0  0  0  0  0  0  0  0  0  0  0
    0.6536   -8.2492    2.9575 C   0  0  0  0  0  0  0  0  0  0  0  0
   -0.8638   -8.2592    3.0639 C   0  0  0  0  0  0  0  0  0  0  0  0
   -1.3484   -7.1625    2.4807 F   0  0  0  0  0  0  0  0  0  0  0  0
   -1.4133   -9.3231    2.4802 F   0  0  0  0  0  0  0  0  0  0  0  0
   -1.2109   -8.2403    4.3475 F   0  0  0  0  0  0  0  0  0  0  0  0
    1.3649   -7.0956    3.3491 C   0  0  0  0  0  0  0  0  0  0  0  0
    2.9334   -4.5831    3.2008 C   0  0  1  0  0  0  0  0  0  0  0  0
    3.9476   -3.4920    3.3253 C   0  0  0  0  0  0  0  0  0  0  0  0
    4.2243   -2.8947    2.1548 C   0  0  0  0  0  0  0  0  0  0  0  0
    5.1624   -1.9753    1.9273 O   0  0  0  0  0  0  0  0  0  0  0  0
    3.4114   -3.4879    1.1343 C   0  0  0  0  0  0  0  0  0  0  0  0
    2.7000   -4.4705    1.6979 C   0  0  0  0  0  0  0  0  0  0  0  0
    4.6235   -3.4280    4.6699 C   0  0  1  0  0  0  0  0  0  0  0  0
    3.6818   -2.7992    5.7293 C   0  0  0  0  0  0  0  0  0  0  0  0
    3.1000   -3.6148    6.7481 C   0  0  0  0  0  0  0  0  0  0  0  0
    2.2166   -3.0887    7.7133 C   0  0  0  0  0  0  0  0  0  0  0  0
    1.9048   -1.7226    7.6923 C   0  0  0  0  0  0  0  0  0  0  0  0
    0.9673   -1.1609    8.6387 C   0  0  0  0  0  0  0  0  0  0  0  0
    0.2137   -0.7055    9.3866 N   0  0  0  0  0  0  0  0  0  0  0  0
    2.4873   -0.8943    6.7202 C   0  0  0  0  0  0  0  0  0  0  0  0
    3.3032   -1.4174    5.6842 C   0  0  0  0  0  0  0  0  0  0  0  0
    3.8025   -0.4619    4.6237 C   0  0  0  0  0  0  0  0  0  0  0  0
    5.0076   -0.3507    4.4030 O   0  0  0  0  0  0  0  0  0  0  0  0
    2.8845    0.2327    3.9210 N   0  0  0  0  0  0  0  0  0  0  0  0
    3.2076    1.2475    2.9261 C   0  0  0  0  0  0  0  0  0  0  0  0
    1.8245    1.7286    2.4570 C   0  0  1  0  0  0  0  0  0  0  0  0
    1.1489    0.5880    1.6663 C   0  0  0  0  0  0  0  0  0  0  0  0
    0.8826   -0.4692    2.7495 C   0  0  0  0  0  0  0  0  0  0  0  0
    1.4184    0.2282    3.9948 C   0  0  2  0  0  0  0  0  0  0  0  0
    1.0645    1.6861    3.7682 C   0  0  0  0  0  0  0  0  0  0  0  0
    6.6644   -5.8194    6.0267 H   0  0  0  0  0  0  0  0  0  0  0  0
    5.8696   -4.5550    6.9492 H   0  0  0  0  0  0  0  0  0  0  0  0
    6.9909   -4.1528    5.6527 H   0  0  0  0  0  0  0  0  0  0  0  0
    4.5526   -8.1532    2.6633 H   0  0  0  0  0  0  0  0  0  0  0  0
    3.3104  -10.1901    1.9795 H   0  0  0  0  0  0  0  0  0  0  0  0
    0.8371  -10.2591    2.1682 H   0  0  0  0  0  0  0  0  0  0  0  0
    0.8205   -6.2482    3.7400 H   0  0  0  0  0  0  0  0  0  0  0  0
    3.3764   -3.1972    0.0886 H   0  0  0  0  0  0  0  0  0  0  0  0
    5.5149   -2.8087    4.5853 H   0  0  0  0  0  0  0  0  0  0  0  0
    3.3208   -4.6759    6.8268 H   0  0  0  0  0  0  0  0  0  0  0  0
    1.7849   -3.7362    8.4667 H   0  0  0  0  0  0  0  0  0  0  0  0
    2.2438    0.1556    6.7276 H   0  0  0  0  0  0  0  0  0  0  0  0
    3.7644    2.0626    3.3868 H   0  0  0  0  0  0  0  0  0  0  0  0
    3.7871    0.8415    2.0969 H   0  0  0  0  0  0  0  0  0  0  0  0
    1.8155    2.6960    1.9448 H   0  0  0  0  0  0  0  0  0  0  0  0
    0.2041    0.9281    1.2331 H   0  0  0  0  0  0  0  0  0  0  0  0
    1.7904    0.1981    0.8737 H   0  0  0  0  0  0  0  0  0  0  0  0
   -0.1860   -0.6321    2.8833 H   0  0  0  0  0  0  0  0  0  0  0  0
    1.3681   -1.4308    2.5578 H   0  0  0  0  0  0  0  0  0  0  0  0
    0.9039   -0.1665    4.8582 H   0  0  0  0  0  0  0  0  0  0  0  0
    1.4726    2.3524    4.5332 H   0  0  0  0  0  0  0  0  0  0  0  0
   -0.0113    1.8501    3.6703 H   0  0  0  0  0  0  0  0  0  0  0  0
    1.9818   -5.0895    1.1762 H   0  0  0  0  0  0  0  0  0  0  0  0
    2.0422   -4.3089    3.7620 H   0  0  0  0  0  0  0  0  0  0  0  0
    5.5240   -1.7366    2.7699 H   0  0  0  0  0  0  0  0  0  0  0  0
  1  2  1  0
  1 40  1  0
  1 41  1  0
  1 42  1  0
  2 22  1  0
  2  3  1  0
  3  4  2  0
  3  5  1  0
  5  6  1  0
  5 16  1  0
  6 15  1  0
  6  7  2  0
  7  8  1  0
  7 43  1  0
  8  9  2  0
  8 44  1  0
  9 10  1  0
  9 45  1  0
 10 11  1  0
 10 15  2  0
 11 12  1  0
 11 13  1  0
 11 14  1  0
 15 46  1  0
 16 21  1  0
 16 63  1  1
 16 17  1  0
 17 22  1  0
 17 18  2  0
 18 19  1  0
 18 20  1  0
 19 64  1  0
 20 21  2  0
 20 47  1  0
 21 62  1  0
 22 23  1  0
 22 48  1  6
 23 30  1  0
 23 24  2  0
 24 25  1  0
 24 49  1  0
 25 26  2  0
 25 50  1  0
 26 27  1  0
 26 29  1  0
 27 28  3  0
 29 30  2  0
 29 51  1  0
 30 31  1  0
 31 32  2  0
 31 33  1  0
 33 38  1  0
 33 34  1  0
 34 35  1  0
 34 52  1  0
 34 53  1  0
 35 39  1  0
 35 36  1  0
 35 54  1  6
 36 37  1  0
 36 55  1  0
 36 56  1  0
 37 38  1  0
 37 57  1  0
 37 58  1  0
 38 39  1  0
 38 59  1  1
 39 60  1  0
 39 61  1  0
M  END
>  <i_m_ct_stereo_status>  (362) 
1

>  <s_m_source_file>  (362) 
/var/tmp/pbs.5076255.sched01/tmpo_pg7vmn/129owyy42_r.sdf

>  <i_m_source_file_index>  (362) 
13

>  <i_lp_mmshare_version>  (362) 
48012

>  <i_f3d_flags>  (362) 
0

>  <s_epik_input>  (362) 
RkMoRikoRiljKFtjSF0xKVtjSF1bY0hdW2NIXWMxTjJDKD1PKU4oW0NIM10pW0NAQEhdKEMoPUMyMylDKD1PKVtDSDJdW0NIMl0zKWM0W2NIXVtjSF1jKEMjTilbY0hdYzRDKD1PKU4oW0NIMl1bQ0BASF01NilbQ0BASF0oW0NIMl02KVtDSDJdW0NIMl01

>  <s_epik_cmdline>  (362) 
J2VwaWtfcHl0aG9uJywgJy1waHQnLCAnMi4wJywgJy1waCcsICc3LjAnLCAnLXRuJywgJzgnLCAnLW1hJywgJzIwMCcsICctaW1hZScsICc8aW5maWxlLm1hZT4nLCAnLW9tYWUnLCAnPG91dGZpbGUubWFlPic=

>  <r_lp_tautomer_probability>  (362) 
7.09039e-11

>  <r_epik_Ionization_Penalty>  (362) 
1.94355e-05

>  <r_epik_Ionization_Penalty_Charging>  (362) 
0

>  <r_epik_Ionization_Penalty_Neutral>  (362) 
1.94355e-05

>  <r_epik_State_Penalty>  (362) 
0.577197

>  <r_epik_Charging_Adjusted_Penalty>  (362) 
0.577197

>  <i_epik_Tot_Q>  (362) 
0

>  <i_epik_Tot_abs_Q>  (362) 
0

>  <s_lp_Force_Field>  (362) 
OPLS3e

>  <r_lp_Energy>  (362) 
96.7009

>  <b_lp_Chiralities_Consistent>  (362) 
1

>  <s_lp_Variant>  (362) 
99:0-1

>  <s_i_glide_gridfile>  (362) 
pfpi4k_grid

>  <i_i_glide_lignum>  (362) 
13

>  <i_i_glide_rotatable_bonds>  (362) 
7

>  <r_i_docking_score>  (362) 
-2.63226

>  <r_i_glide_ligand_efficiency>  (362) 
-0.0674938

>  <r_i_glide_ligand_efficiency_sa>  (362) 
-0.228886

>  <r_i_glide_ligand_efficiency_ln>  (362) 
-0.564431

>  <r_i_glide_gscore>  (362) 
-2.63226

>  <r_i_glide_lipo>  (362) 
-0.100851

>  <r_i_glide_hbond>  (362) 
-0.00240154

>  <r_i_glide_metal>  (362) 
-0

>  <r_i_glide_rewards>  (362) 
-0.831023

>  <r_i_glide_evdw>  (362) 
-27.4492

>  <r_i_glide_ecoul>  (362) 
-2.71559

>  <r_i_glide_erotb>  (362) 
0.288937

>  <r_i_glide_esite>  (362) 
-0.207123

>  <r_i_glide_emodel>  (362) 
-39.8249

>  <r_i_glide_energy>  (362) 
-30.1648

>  <r_i_glide_einternal>  (362) 
1.54966

>  <r_i_glide_intrahb_reward>  (362) 
-0.5

>  <i_i_glide_confnum>  (362) 
4

>  <i_i_glide_posenum>  (362) 
3

>  <r_i_glide_eff_state_penalty>  (362) 
0

>  <ligand_id>  (362) 
99

>  <original_smiles>  (362) 
CN1C(=O)N(c2cccc(C(F)(F)F)c2)C2=C(C(=O)CC2)C1c1ccc(C#N)cc1C(=O)N1CC2CCC1C2

>  <smiles>  (362) 
[H]OC1=C2C([H])(C([H])=C1[H])N(c1c([H])c([H])c([H])c(C(F)(F)F)c1[H])C(=O)N(C([H])([H])[H])C2([H])c1c([H])c([H])c(C#N)c([H])c1C(=O)N1C([H])([H])C2([H])C([H])([H])C([H])([H])C1([H])C2([H])[H]

$$$$
99:0:1
     RDKit          3D

 64 69  0  0  1  0  0  0  0  0999 V2000
    6.2320    0.3920    4.8331 C   0  0  0  0  0  0  0  0  0  0  0  0
    4.9312    0.1436    4.1897 N   0  0  0  0  0  0  0  0  0  0  0  0
    4.8348   -0.6521    3.0826 C   0  0  0  0  0  0  0  0  0  0  0  0
    5.8163   -1.2368    2.6199 O   0  0  0  0  0  0  0  0  0  0  0  0
    3.6259   -0.7331    2.4646 N   0  0  0  0  0  0  0  0  0  0  0  0
    3.4910   -1.5865    1.3401 C   0  0  0  0  0  0  0  0  0  0  0  0
    3.8340   -1.1357    0.0470 C   0  0  0  0  0  0  0  0  0  0  0  0
    3.6824   -2.0015   -1.0584 C   0  0  0  0  0  0  0  0  0  0  0  0
    3.2011   -3.3137   -0.8632 C   0  0  0  0  0  0  0  0  0  0  0  0
    2.8758   -3.7783    0.4321 C   0  0  0  0  0  0  0  0  0  0  0  0
    2.3549   -5.1928    0.6376 C   0  0  0  0  0  0  0  0  0  0  0  0
    1.8059   -5.3381    1.8464 F   0  0  0  0  0  0  0  0  0  0  0  0
    1.4183   -5.4851   -0.2678 F   0  0  0  0  0  0  0  0  0  0  0  0
    3.3588   -6.0603    0.5285 F   0  0  0  0  0  0  0  0  0  0  0  0
    3.0223   -2.9033    1.5309 C   0  0  0  0  0  0  0  0  0  0  0  0
    2.3872   -0.2231    3.0530 C   0  0  1  0  0  0  0  0  0  0  0  0
    2.6743    0.9514    3.9420 C   0  0  0  0  0  0  0  0  0  0  0  0
    2.0289    2.0655    3.5657 C   0  0  0  0  0  0  0  0  0  0  0  0
    2.1706    3.2874    4.0792 O   0  0  0  0  0  0  0  0  0  0  0  0
    1.2193    1.7486    2.4181 C   0  0  0  0  0  0  0  0  0  0  0  0
    1.4295    0.4698    2.0919 C   0  0  0  0  0  0  0  0  0  0  0  0
    3.7826    0.7196    4.9401 C   0  0  1  0  0  0  0  0  0  0  0  0
    3.2891   -0.1684    6.1147 C   0  0  0  0  0  0  0  0  0  0  0  0
    3.7535   -1.5117    6.2312 C   0  0  0  0  0  0  0  0  0  0  0  0
    3.3110   -2.3609    7.2669 C   0  0  0  0  0  0  0  0  0  0  0  0
    2.3950   -1.8846    8.2147 C   0  0  0  0  0  0  0  0  0  0  0  0
    1.9091   -2.7404    9.2761 C   0  0  0  0  0  0  0  0  0  0  0  0
    1.5138   -3.4182   10.1245 N   0  0  0  0  0  0  0  0  0  0  0  0
    1.9425   -0.5568    8.1317 C   0  0  0  0  0  0  0  0  0  0  0  0
    2.3285    0.3011    7.0727 C   0  0  0  0  0  0  0  0  0  0  0  0
    1.7449    1.6967    7.0362 C   0  0  0  0  0  0  0  0  0  0  0  0
    2.4973    2.6718    6.9907 O   0  0  0  0  0  0  0  0  0  0  0  0
    0.3950    1.8155    7.0076 N   0  0  0  0  0  0  0  0  0  0  0  0
   -0.6140    0.7630    7.0425 C   0  0  0  0  0  0  0  0  0  0  0  0
   -1.9278    1.5410    6.9729 C   0  0  1  0  0  0  0  0  0  0  0  0
   -2.1023    2.3475    8.2792 C   0  0  0  0  0  0  0  0  0  0  0  0
   -1.0084    3.4338    8.1602 C   0  0  0  0  0  0  0  0  0  0  0  0
   -0.3435    3.0634    6.8179 C   0  0  2  0  0  0  0  0  0  0  0  0
   -1.5458    2.6308    5.9841 C   0  0  0  0  0  0  0  0  0  0  0  0
    7.0820    0.1882    4.1774 H   0  0  0  0  0  0  0  0  0  0  0  0
    6.3407   -0.2249    5.7253 H   0  0  0  0  0  0  0  0  0  0  0  0
    6.3329    1.4227    5.1552 H   0  0  0  0  0  0  0  0  0  0  0  0
    4.1901   -0.1309   -0.1000 H   0  0  0  0  0  0  0  0  0  0  0  0
    3.9003   -1.6479   -2.0535 H   0  0  0  0  0  0  0  0  0  0  0  0
    3.0649   -3.9604   -1.7139 H   0  0  0  0  0  0  0  0  0  0  0  0
    2.7846   -3.2317    2.5265 H   0  0  0  0  0  0  0  0  0  0  0  0
    0.5660    2.4349    1.8994 H   0  0  0  0  0  0  0  0  0  0  0  0
    4.0989    1.6796    5.3379 H   0  0  0  0  0  0  0  0  0  0  0  0
    4.4673   -1.9270    5.5367 H   0  0  0  0  0  0  0  0  0  0  0  0
    3.6863   -3.3713    7.3277 H   0  0  0  0  0  0  0  0  0  0  0  0
    1.2827   -0.1943    8.8980 H   0  0  0  0  0  0  0  0  0  0  0  0
   -0.4875    0.0755    6.1943 H   0  0  0  0  0  0  0  0  0  0  0  0
   -0.6074    0.1960    7.9793 H   0  0  0  0  0  0  0  0  0  0  0  0
   -2.7911    0.9329    6.7050 H   0  0  0  0  0  0  0  0  0  0  0  0
   -3.0939    2.8043    8.3235 H   0  0  0  0  0  0  0  0  0  0  0  0
   -1.9716    1.7414    9.1773 H   0  0  0  0  0  0  0  0  0  0  0  0
   -1.4619    4.4237    8.1119 H   0  0  0  0  0  0  0  0  0  0  0  0
   -0.3000    3.4196    8.9937 H   0  0  0  0  0  0  0  0  0  0  0  0
    0.2342    3.8809    6.3648 H   0  0  0  0  0  0  0  0  0  0  0  0
   -1.2720    2.2387    4.9988 H   0  0  0  0  0  0  0  0  0  0  0  0
   -2.3176    3.3958    5.8759 H   0  0  0  0  0  0  0  0  0  0  0  0
    0.9564   -0.0498    1.2701 H   0  0  0  0  0  0  0  0  0  0  0  0
    1.8786   -1.0045    3.6195 H   0  0  0  0  0  0  0  0  0  0  0  0
    2.7980    3.2284    4.7803 H   0  0  0  0  0  0  0  0  0  0  0  0
  1  2  1  0
  1 40  1  0
  1 41  1  0
  1 42  1  0
  2 22  1  0
  2  3  1  0
  3  4  2  0
  3  5  1  0
  5  6  1  0
  5 16  1  0
  6 15  1  0
  6  7  2  0
  7  8  1  0
  7 43  1  0
  8  9  2  0
  8 44  1  0
  9 10  1  0
  9 45  1  0
 10 11  1  0
 10 15  2  0
 11 12  1  0
 11 13  1  0
 11 14  1  0
 15 46  1  0
 16 21  1  0
 16 63  1  1
 16 17  1  0
 17 22  1  0
 17 18  2  0
 18 19  1  0
 18 20  1  0
 19 64  1  0
 20 21  2  0
 20 47  1  0
 21 62  1  0
 22 23  1  0
 22 48  1  1
 23 30  1  0
 23 24  2  0
 24 25  1  0
 24 49  1  0
 25 26  2  0
 25 50  1  0
 26 27  1  0
 26 29  1  0
 27 28  3  0
 29 30  2  0
 29 51  1  0
 30 31  1  0
 31 32  2  0
 31 33  1  0
 33 38  1  0
 33 34  1  0
 34 35  1  0
 34 52  1  0
 34 53  1  0
 35 39  1  0
 35 36  1  0
 35 54  1  6
 36 37  1  0
 36 55  1  0
 36 56  1  0
 37 38  1  0
 37 57  1  0
 37 58  1  0
 38 39  1  0
 38 59  1  6
 39 60  1  0
 39 61  1  0
M  END
>  <i_m_ct_stereo_status>  (363) 
1

>  <s_m_source_file>  (363) 
/var/tmp/pbs.5076255.sched01/tmpo_pg7vmn/129owyy42_r.sdf

>  <i_m_source_file_index>  (363) 
13

>  <i_lp_mmshare_version>  (363) 
48012

>  <i_f3d_flags>  (363) 
0

>  <s_epik_input>  (363) 
RkMoRikoRiljKFtjSF0xKVtjSF1bY0hdW2NIXWMxTjJDKD1PKU4oW0NIM10pW0NAQEhdKEMoPUMyMylDKD1PKVtDSDJdW0NIMl0zKWM0W2NIXVtjSF1jKEMjTilbY0hdYzRDKD1PKU4oW0NIMl1bQ0BASF01NilbQ0BASF0oW0NIMl02KVtDSDJdW0NIMl01

>  <s_epik_cmdline>  (363) 
J2VwaWtfcHl0aG9uJywgJy1waHQnLCAnMi4wJywgJy1waCcsICc3LjAnLCAnLXRuJywgJzgnLCAnLW1hJywgJzIwMCcsICctaW1hZScsICc8aW5maWxlLm1hZT4nLCAnLW9tYWUnLCAnPG91dGZpbGUubWFlPic=

>  <r_lp_tautomer_probability>  (363) 
7.09039e-11

>  <r_epik_Ionization_Penalty>  (363) 
1.94355e-05

>  <r_epik_Ionization_Penalty_Charging>  (363) 
0

>  <r_epik_Ionization_Penalty_Neutral>  (363) 
1.94355e-05

>  <r_epik_State_Penalty>  (363) 
0.577197

>  <r_epik_Charging_Adjusted_Penalty>  (363) 
0.577197

>  <i_epik_Tot_Q>  (363) 
0

>  <i_epik_Tot_abs_Q>  (363) 
0

>  <s_lp_Force_Field>  (363) 
OPLS3e

>  <r_lp_Energy>  (363) 
96.7009

>  <b_lp_Chiralities_Consistent>  (363) 
1

>  <s_lp_Variant>  (363) 
99:0-1

>  <s_i_glide_gridfile>  (363) 
pfpi4k_grid

>  <i_i_glide_lignum>  (363) 
13

>  <i_i_glide_rotatable_bonds>  (363) 
7

>  <r_i_docking_score>  (363) 
-2.58114

>  <r_i_glide_ligand_efficiency>  (363) 
-0.066183

>  <r_i_glide_ligand_efficiency_sa>  (363) 
-0.224441

>  <r_i_glide_ligand_efficiency_ln>  (363) 
-0.553469

>  <r_i_glide_gscore>  (363) 
-2.58114

>  <r_i_glide_lipo>  (363) 
-0.262736

>  <r_i_glide_hbond>  (363) 
0

>  <r_i_glide_metal>  (363) 
-0

>  <r_i_glide_rewards>  (363) 
-0.759184

>  <r_i_glide_evdw>  (363) 
-28.6905

>  <r_i_glide_ecoul>  (363) 
-1.69801

>  <r_i_glide_erotb>  (363) 
0.288937

>  <r_i_glide_esite>  (363) 
-0.158926

>  <r_i_glide_emodel>  (363) 
-39.2645

>  <r_i_glide_energy>  (363) 
-30.3885

>  <r_i_glide_einternal>  (363) 
3.10695

>  <r_i_glide_intrahb_reward>  (363) 
-0.5

>  <i_i_glide_confnum>  (363) 
3

>  <i_i_glide_posenum>  (363) 
37

>  <r_i_glide_eff_state_penalty>  (363) 
0

>  <ligand_id>  (363) 
99

>  <original_smiles>  (363) 
CN1C(=O)N(c2cccc(C(F)(F)F)c2)C2=C(C(=O)CC2)C1c1ccc(C#N)cc1C(=O)N1CC2CCC1C2

>  <smiles>  (363) 
[H]OC1=C2C([H])(C([H])=C1[H])N(c1c([H])c([H])c([H])c(C(F)(F)F)c1[H])C(=O)N(C([H])([H])[H])C2([H])c1c([H])c([H])c(C#N)c([H])c1C(=O)N1C([H])([H])C2([H])C([H])([H])C([H])([H])C1([H])C2([H])[H]

$$$$
99:0:2
     RDKit          3D

 64 69  0  0  1  0  0  0  0  0999 V2000
   -0.7181   -4.5193    7.5418 C   0  0  0  0  0  0  0  0  0  0  0  0
    0.0581   -4.8029    6.3258 N   0  0  0  0  0  0  0  0  0  0  0  0
    0.5817   -3.7874    5.5854 C   0  0  0  0  0  0  0  0  0  0  0  0
    0.4642   -2.6190    5.9775 O   0  0  0  0  0  0  0  0  0  0  0  0
    1.1640   -4.0943    4.3884 N   0  0  0  0  0  0  0  0  0  0  0  0
    1.7348   -3.0645    3.5704 C   0  0  0  0  0  0  0  0  0  0  0  0
    1.0191   -1.8789    3.2604 C   0  0  0  0  0  0  0  0  0  0  0  0
    1.6015   -0.8718    2.4658 C   0  0  0  0  0  0  0  0  0  0  0  0
    2.9014   -1.0501    1.9473 C   0  0  0  0  0  0  0  0  0  0  0  0
    3.6240   -2.2325    2.2273 C   0  0  0  0  0  0  0  0  0  0  0  0
    5.0145   -2.4513    1.6695 C   0  0  0  0  0  0  0  0  0  0  0  0
    5.7248   -3.2672    2.4497 F   0  0  0  0  0  0  0  0  0  0  0  0
    4.9226   -3.0003    0.4613 F   0  0  0  0  0  0  0  0  0  0  0  0
    5.6658   -1.2931    1.5757 F   0  0  0  0  0  0  0  0  0  0  0  0
    3.0340   -3.2307    3.0318 C   0  0  0  0  0  0  0  0  0  0  0  0
    1.4564   -5.4802    3.9988 C   0  0  1  0  0  0  0  0  0  0  0  0
    0.4920   -6.4329    4.6272 C   0  0  0  0  0  0  0  0  0  0  0  0
   -0.1901   -7.1633    3.7347 C   0  0  0  0  0  0  0  0  0  0  0  0
   -1.1574   -8.0312    4.0048 O   0  0  0  0  0  0  0  0  0  0  0  0
    0.2829   -6.8385    2.4089 C   0  0  0  0  0  0  0  0  0  0  0  0
    1.1918   -5.8624    2.5378 C   0  0  0  0  0  0  0  0  0  0  0  0
    0.3144   -6.2476    6.1118 C   0  0  1  0  0  0  0  0  0  0  0  0
    1.5397   -6.7749    6.9088 C   0  0  0  0  0  0  0  0  0  0  0  0
    2.4475   -5.8664    7.5276 C   0  0  0  0  0  0  0  0  0  0  0  0
    3.5766   -6.3218    8.2435 C   0  0  0  0  0  0  0  0  0  0  0  0
    3.8342   -7.6986    8.3465 C   0  0  0  0  0  0  0  0  0  0  0  0
    4.9991   -8.1726    9.0626 C   0  0  0  0  0  0  0  0  0  0  0  0
    5.9283   -8.5550    9.6337 N   0  0  0  0  0  0  0  0  0  0  0  0
    2.9519   -8.6140    7.7420 C   0  0  0  0  0  0  0  0  0  0  0  0
    1.8281   -8.1750    6.9990 C   0  0  0  0  0  0  0  0  0  0  0  0
    0.9556   -9.2196    6.3545 C   0  0  0  0  0  0  0  0  0  0  0  0
   -0.1826   -9.3863    6.7886 O   0  0  0  0  0  0  0  0  0  0  0  0
    1.4681   -9.8912    5.3005 N   0  0  0  0  0  0  0  0  0  0  0  0
    0.7594  -10.8937    4.5257 C   0  0  0  0  0  0  0  0  0  0  0  0
    1.8013  -11.3136    3.4734 C   0  0  1  0  0  0  0  0  0  0  0  0
    2.0581  -10.1323    2.5082 C   0  0  0  0  0  0  0  0  0  0  0  0
    2.7973   -9.1190    3.4085 C   0  0  0  0  0  0  0  0  0  0  0  0
    2.8187   -9.8541    4.7587 C   0  0  2  0  0  0  0  0  0  0  0  0
    3.0627  -11.2864    4.3265 C   0  0  0  0  0  0  0  0  0  0  0  0
   -1.0957   -3.4965    7.5791 H   0  0  0  0  0  0  0  0  0  0  0  0
   -0.0909   -4.6594    8.4236 H   0  0  0  0  0  0  0  0  0  0  0  0
   -1.5895   -5.1649    7.6203 H   0  0  0  0  0  0  0  0  0  0  0  0
    0.0178   -1.7320    3.6280 H   0  0  0  0  0  0  0  0  0  0  0  0
    1.0419    0.0210    2.2428 H   0  0  0  0  0  0  0  0  0  0  0  0
    3.3380   -0.2839    1.3254 H   0  0  0  0  0  0  0  0  0  0  0  0
    3.5976   -4.1249    3.2362 H   0  0  0  0  0  0  0  0  0  0  0  0
    0.0041   -7.3229    1.4827 H   0  0  0  0  0  0  0  0  0  0  0  0
   -0.5652   -6.8049    6.4100 H   0  0  0  0  0  0  0  0  0  0  0  0
    2.3013   -4.8000    7.4797 H   0  0  0  0  0  0  0  0  0  0  0  0
    4.2389   -5.6048    8.6954 H   0  0  0  0  0  0  0  0  0  0  0  0
    3.1467   -9.6691    7.8200 H   0  0  0  0  0  0  0  0  0  0  0  0
    0.4625  -11.7433    5.1570 H   0  0  0  0  0  0  0  0  0  0  0  0
   -0.1441  -10.4890    4.0480 H   0  0  0  0  0  0  0  0  0  0  0  0
    1.6003  -12.2594    2.9765 H   0  0  0  0  0  0  0  0  0  0  0  0
    2.7095  -10.4323    1.6816 H   0  0  0  0  0  0  0  0  0  0  0  0
    1.1325   -9.7317    2.0882 H   0  0  0  0  0  0  0  0  0  0  0  0
    3.8073   -8.9342    3.0427 H   0  0  0  0  0  0  0  0  0  0  0  0
    2.3012   -8.1642    3.4975 H   0  0  0  0  0  0  0  0  0  0  0  0
    3.6110   -9.4716    5.4160 H   0  0  0  0  0  0  0  0  0  0  0  0
    3.0391  -11.9941    5.1626 H   0  0  0  0  0  0  0  0  0  0  0  0
    3.9847  -11.4116    3.7544 H   0  0  0  0  0  0  0  0  0  0  0  0
    1.7689   -5.4351    1.7217 H   0  0  0  0  0  0  0  0  0  0  0  0
    2.4681   -5.7628    4.2995 H   0  0  0  0  0  0  0  0  0  0  0  0
   -1.2748   -8.5752    3.2460 H   0  0  0  0  0  0  0  0  0  0  0  0
  1  2  1  0
  1 40  1  0
  1 41  1  0
  1 42  1  0
  2 22  1  0
  2  3  1  0
  3  4  2  0
  3  5  1  0
  5  6  1  0
  5 16  1  0
  6 15  1  0
  6  7  2  0
  7  8  1  0
  7 43  1  0
  8  9  2  0
  8 44  1  0
  9 10  1  0
  9 45  1  0
 10 11  1  0
 10 15  2  0
 11 12  1  0
 11 13  1  0
 11 14  1  0
 15 46  1  0
 16 21  1  0
 16 63  1  1
 16 17  1  0
 17 22  1  0
 17 18  2  0
 18 19  1  0
 18 20  1  0
 19 64  1  0
 20 21  2  0
 20 47  1  0
 21 62  1  0
 22 23  1  0
 22 48  1  1
 23 30  1  0
 23 24  2  0
 24 25  1  0
 24 49  1  0
 25 26  2  0
 25 50  1  0
 26 27  1  0
 26 29  1  0
 27 28  3  0
 29 30  2  0
 29 51  1  0
 30 31  1  0
 31 32  2  0
 31 33  1  0
 33 38  1  0
 33 34  1  0
 34 35  1  0
 34 52  1  0
 34 53  1  0
 35 39  1  0
 35 36  1  0
 35 54  1  6
 36 37  1  0
 36 55  1  0
 36 56  1  0
 37 38  1  0
 37 57  1  0
 37 58  1  0
 38 39  1  0
 38 59  1  1
 39 60  1  0
 39 61  1  0
M  END
>  <i_m_ct_stereo_status>  (364) 
1

>  <s_m_source_file>  (364) 
/var/tmp/pbs.5076255.sched01/tmpo_pg7vmn/129owyy42_r.sdf

>  <i_m_source_file_index>  (364) 
13

>  <i_lp_mmshare_version>  (364) 
48012

>  <i_f3d_flags>  (364) 
0

>  <s_epik_input>  (364) 
RkMoRikoRiljKFtjSF0xKVtjSF1bY0hdW2NIXWMxTjJDKD1PKU4oW0NIM10pW0NAQEhdKEMoPUMyMylDKD1PKVtDSDJdW0NIMl0zKWM0W2NIXVtjSF1jKEMjTilbY0hdYzRDKD1PKU4oW0NIMl1bQ0BASF01NilbQ0BASF0oW0NIMl02KVtDSDJdW0NIMl01

>  <s_epik_cmdline>  (364) 
J2VwaWtfcHl0aG9uJywgJy1waHQnLCAnMi4wJywgJy1waCcsICc3LjAnLCAnLXRuJywgJzgnLCAnLW1hJywgJzIwMCcsICctaW1hZScsICc8aW5maWxlLm1hZT4nLCAnLW9tYWUnLCAnPG91dGZpbGUubWFlPic=

>  <r_lp_tautomer_probability>  (364) 
7.09039e-11

>  <r_epik_Ionization_Penalty>  (364) 
1.94355e-05

>  <r_epik_Ionization_Penalty_Charging>  (364) 
0

>  <r_epik_Ionization_Penalty_Neutral>  (364) 
1.94355e-05

>  <r_epik_State_Penalty>  (364) 
0.577197

>  <r_epik_Charging_Adjusted_Penalty>  (364) 
0.577197

>  <i_epik_Tot_Q>  (364) 
0

>  <i_epik_Tot_abs_Q>  (364) 
0

>  <s_lp_Force_Field>  (364) 
OPLS3e

>  <r_lp_Energy>  (364) 
96.7009

>  <b_lp_Chiralities_Consistent>  (364) 
1

>  <s_lp_Variant>  (364) 
99:0-1

>  <s_i_glide_gridfile>  (364) 
pfpi4k_grid

>  <i_i_glide_lignum>  (364) 
13

>  <i_i_glide_rotatable_bonds>  (364) 
7

>  <r_i_docking_score>  (364) 
-2.30533

>  <r_i_glide_ligand_efficiency>  (364) 
-0.0591111

>  <r_i_glide_ligand_efficiency_sa>  (364) 
-0.200458

>  <r_i_glide_ligand_efficiency_ln>  (364) 
-0.494329

>  <r_i_glide_gscore>  (364) 
-2.30533

>  <r_i_glide_lipo>  (364) 
-0.304106

>  <r_i_glide_hbond>  (364) 
0

>  <r_i_glide_metal>  (364) 
-0

>  <r_i_glide_rewards>  (364) 
-0.279322

>  <r_i_glide_evdw>  (364) 
-31.1677

>  <r_i_glide_ecoul>  (364) 
-2.26879

>  <r_i_glide_erotb>  (364) 
0.288937

>  <r_i_glide_esite>  (364) 
-0.112141

>  <r_i_glide_emodel>  (364) 
-36.8564

>  <r_i_glide_energy>  (364) 
-33.4364

>  <r_i_glide_einternal>  (364) 
2.29564

>  <r_i_glide_intrahb_reward>  (364) 
-0

>  <i_i_glide_confnum>  (364) 
4

>  <i_i_glide_posenum>  (364) 
8

>  <r_i_glide_eff_state_penalty>  (364) 
0

>  <ligand_id>  (364) 
99

>  <original_smiles>  (364) 
CN1C(=O)N(c2cccc(C(F)(F)F)c2)C2=C(C(=O)CC2)C1c1ccc(C#N)cc1C(=O)N1CC2CCC1C2

>  <smiles>  (364) 
[H]OC1=C2C([H])(C([H])=C1[H])N(c1c([H])c([H])c([H])c(C(F)(F)F)c1[H])C(=O)N(C([H])([H])[H])C2([H])c1c([H])c([H])c(C#N)c([H])c1C(=O)N1C([H])([H])C2([H])C([H])([H])C([H])([H])C1([H])C2([H])[H]

$$$$
99:1:0
     RDKit          3D

 64 69  0  0  1  0  0  0  0  0999 V2000
    0.6884   -2.3829    5.9348 C   0  0  0  0  0  0  0  0  0  0  0  0
    0.4258   -0.9486    5.7739 N   0  0  0  0  0  0  0  0  0  0  0  0
   -0.1122   -0.2397    6.8092 C   0  0  0  0  0  0  0  0  0  0  0  0
   -0.1743   -0.7227    7.9548 O   0  0  0  0  0  0  0  0  0  0  0  0
   -0.6631    0.9776    6.5042 N   0  0  0  0  0  0  0  0  0  0  0  0
   -1.2866    1.7616    7.5107 C   0  0  0  0  0  0  0  0  0  0  0  0
   -2.6251    2.1864    7.3830 C   0  0  0  0  0  0  0  0  0  0  0  0
   -3.2238    2.9647    8.3870 C   0  0  0  0  0  0  0  0  0  0  0  0
   -2.4956    3.3136    9.5362 C   0  0  0  0  0  0  0  0  0  0  0  0
   -1.1621    2.8852    9.6830 C   0  0  0  0  0  0  0  0  0  0  0  0
   -0.3508    3.2339   10.9211 C   0  0  0  0  0  0  0  0  0  0  0  0
   -0.9570    4.1588   11.6656 F   0  0  0  0  0  0  0  0  0  0  0  0
   -0.1689    2.1361   11.6540 F   0  0  0  0  0  0  0  0  0  0  0  0
    0.8426    3.7049   10.5565 F   0  0  0  0  0  0  0  0  0  0  0  0
   -0.5625    2.1161    8.6685 C   0  0  0  0  0  0  0  0  0  0  0  0
   -0.5455    1.5129    5.2179 C   0  0  0  0  0  0  0  0  0  0  0  0
    0.2178    0.9580    4.2852 C   0  0  0  0  0  0  0  0  0  0  0  0
    0.1395    1.7443    3.0813 C   0  0  0  0  0  0  0  0  0  0  0  0
    0.7641    1.4792    1.9253 O   0  0  0  0  0  0  0  0  0  0  0  0
   -0.6769    2.7755    3.3040 C   0  0  0  0  0  0  0  0  0  0  0  0
   -1.2292    2.7737    4.7135 C   0  0  0  0  0  0  0  0  0  0  0  0
    0.9933   -0.3203    4.5524 C   0  0  1  0  0  0  0  0  0  0  0  0
    2.5074   -0.0669    4.7014 C   0  0  0  0  0  0  0  0  0  0  0  0
    2.9320    0.8299    5.7184 C   0  0  0  0  0  0  0  0  0  0  0  0
    4.2934    1.1095    5.9287 C   0  0  0  0  0  0  0  0  0  0  0  0
    5.2538    0.4507    5.1414 C   0  0  0  0  0  0  0  0  0  0  0  0
    6.6665    0.7307    5.3211 C   0  0  0  0  0  0  0  0  0  0  0  0
    7.7936    0.9483    5.4569 N   0  0  0  0  0  0  0  0  0  0  0  0
    4.8528   -0.4707    4.1569 C   0  0  0  0  0  0  0  0  0  0  0  0
    3.4883   -0.7185    3.8920 C   0  0  0  0  0  0  0  0  0  0  0  0
    3.1367   -1.6852    2.7858 C   0  0  0  0  0  0  0  0  0  0  0  0
    2.2844   -2.5546    2.9580 O   0  0  0  0  0  0  0  0  0  0  0  0
    3.7771   -1.5621    1.5858 N   0  0  0  0  0  0  0  0  0  0  0  0
    4.7878   -0.5581    1.1784 C   0  0  0  0  0  0  0  0  0  0  0  0
    5.1249   -1.0213   -0.2450 C   0  0  1  0  0  0  0  0  0  0  0  0
    5.8775   -2.3680   -0.1694 C   0  0  0  0  0  0  0  0  0  0  0  0
    4.7748   -3.3571    0.2735 C   0  0  0  0  0  0  0  0  0  0  0  0
    3.5560   -2.4356    0.4049 C   0  0  2  0  0  0  0  0  0  0  0  0
    3.7557   -1.4649   -0.7525 C   0  0  0  0  0  0  0  0  0  0  0  0
    0.0875   -2.8465    6.7213 H   0  0  0  0  0  0  0  0  0  0  0  0
    1.7358   -2.5435    6.1861 H   0  0  0  0  0  0  0  0  0  0  0  0
    0.4566   -2.9235    5.0181 H   0  0  0  0  0  0  0  0  0  0  0  0
   -3.2083    1.9149    6.5161 H   0  0  0  0  0  0  0  0  0  0  0  0
   -4.2491    3.2925    8.2806 H   0  0  0  0  0  0  0  0  0  0  0  0
   -2.9660    3.8992   10.3088 H   0  0  0  0  0  0  0  0  0  0  0  0
    0.4612    1.7855    8.7828 H   0  0  0  0  0  0  0  0  0  0  0  0
   -0.9427    3.5143    2.5721 H   0  0  0  0  0  0  0  0  0  0  0  0
    0.7141   -0.9616    3.7080 H   0  0  0  0  0  0  0  0  0  0  0  0
    2.2122    1.3317    6.3694 H   0  0  0  0  0  0  0  0  0  0  0  0
    4.5994    1.8176    6.6938 H   0  0  0  0  0  0  0  0  0  0  0  0
    5.6019   -0.9823    3.5674 H   0  0  0  0  0  0  0  0  0  0  0  0
    4.3259    0.4315    1.1838 H   0  0  0  0  0  0  0  0  0  0  0  0
    5.6679   -0.5874    1.8076 H   0  0  0  0  0  0  0  0  0  0  0  0
    5.6199   -0.2615   -0.8428 H   0  0  0  0  0  0  0  0  0  0  0  0
    6.2707   -2.6466   -1.1464 H   0  0  0  0  0  0  0  0  0  0  0  0
    6.7046   -2.3412    0.5402 H   0  0  0  0  0  0  0  0  0  0  0  0
    4.5982   -4.0972   -0.5016 H   0  0  0  0  0  0  0  0  0  0  0  0
    5.0126   -3.8787    1.2040 H   0  0  0  0  0  0  0  0  0  0  0  0
    2.5911   -2.9333    0.4029 H   0  0  0  0  0  0  0  0  0  0  0  0
    3.0148   -0.6743   -0.7622 H   0  0  0  0  0  0  0  0  0  0  0  0
    3.7898   -1.9539   -1.7294 H   0  0  0  0  0  0  0  0  0  0  0  0
   -2.3179    2.6949    4.6734 H   0  0  0  0  0  0  0  0  0  0  0  0
   -0.9269    3.6648    5.2693 H   0  0  0  0  0  0  0  0  0  0  0  0
    1.2266    0.6575    2.0145 H   0  0  0  0  0  0  0  0  0  0  0  0
  1  2  1  0
  1 40  1  0
  1 41  1  0
  1 42  1  0
  2 22  1  0
  2  3  1  0
  3  4  2  0
  3  5  1  0
  5  6  1  0
  5 16  1  0
  6 15  1  0
  6  7  2  0
  7  8  1  0
  7 43  1  0
  8  9  2  0
  8 44  1  0
  9 10  1  0
  9 45  1  0
 10 11  1  0
 10 15  2  0
 11 12  1  0
 11 13  1  0
 11 14  1  0
 15 46  1  0
 16 21  1  0
 16 17  2  0
 17 22  1  0
 17 18  1  0
 18 19  1  0
 18 20  2  0
 19 64  1  0
 20 21  1  0
 20 47  1  0
 21 62  1  0
 21 63  1  0
 22 23  1  0
 22 48  1  6
 23 30  1  0
 23 24  2  0
 24 25  1  0
 24 49  1  0
 25 26  2  0
 25 50  1  0
 26 27  1  0
 26 29  1  0
 27 28  3  0
 29 30  2  0
 29 51  1  0
 30 31  1  0
 31 32  2  0
 31 33  1  0
 33 38  1  0
 33 34  1  0
 34 35  1  0
 34 52  1  0
 34 53  1  0
 35 39  1  0
 35 36  1  0
 35 54  1  6
 36 37  1  0
 36 55  1  0
 36 56  1  0
 37 38  1  0
 37 57  1  0
 37 58  1  0
 38 39  1  0
 38 59  1  1
 39 60  1  0
 39 61  1  0
M  END
>  <i_m_ct_stereo_status>  (365) 
1

>  <s_m_source_file>  (365) 
/var/tmp/pbs.5076255.sched01/tmpo_pg7vmn/129owyy42_r.sdf

>  <i_m_source_file_index>  (365) 
14

>  <i_lp_mmshare_version>  (365) 
48012

>  <i_f3d_flags>  (365) 
0

>  <s_epik_input>  (365) 
RkMoRikoRiljKFtjSF0xKVtjSF1bY0hdW2NIXWMxTjJDKD1PKU4oW0NIM10pW0NAQEhdKEMoPUMyMylDKD1PKVtDSDJdW0NIMl0zKWM0W2NIXVtjSF1jKEMjTilbY0hdYzRDKD1PKU4oW0NIMl1bQ0BASF01NilbQ0BASF0oW0NIMl02KVtDSDJdW0NIMl01

>  <s_epik_cmdline>  (365) 
J2VwaWtfcHl0aG9uJywgJy1waHQnLCAnMi4wJywgJy1waCcsICc3LjAnLCAnLXRuJywgJzgnLCAnLW1hJywgJzIwMCcsICctaW1hZScsICc8aW5maWxlLm1hZT4nLCAnLW9tYWUnLCAnPG91dGZpbGUubWFlPic=

>  <r_lp_tautomer_probability>  (365) 
7.09039e-11

>  <r_epik_Ionization_Penalty>  (365) 
2.75993e-05

>  <r_epik_Ionization_Penalty_Charging>  (365) 
0

>  <r_epik_Ionization_Penalty_Neutral>  (365) 
2.75993e-05

>  <r_epik_State_Penalty>  (365) 
0.577197

>  <r_epik_Charging_Adjusted_Penalty>  (365) 
0.577197

>  <i_epik_Tot_Q>  (365) 
0

>  <i_epik_Tot_abs_Q>  (365) 
0

>  <s_lp_Force_Field>  (365) 
OPLS3e

>  <r_lp_Energy>  (365) 
89.3096

>  <b_lp_Chiralities_Consistent>  (365) 
1

>  <s_lp_Variant>  (365) 
99:0-2

>  <s_i_glide_gridfile>  (365) 
pfpi4k_grid

>  <i_i_glide_lignum>  (365) 
14

>  <i_i_glide_rotatable_bonds>  (365) 
7

>  <r_i_docking_score>  (365) 
-2.35184

>  <r_i_glide_ligand_efficiency>  (365) 
-0.0603036

>  <r_i_glide_ligand_efficiency_sa>  (365) 
-0.204502

>  <r_i_glide_ligand_efficiency_ln>  (365) 
-0.504301

>  <r_i_glide_gscore>  (365) 
-2.35184

>  <r_i_glide_lipo>  (365) 
-0.380025

>  <r_i_glide_hbond>  (365) 
-0.0196708

>  <r_i_glide_metal>  (365) 
-0

>  <r_i_glide_rewards>  (365) 
-0.291816

>  <r_i_glide_evdw>  (365) 
-31.5235

>  <r_i_glide_ecoul>  (365) 
-1.1873

>  <r_i_glide_erotb>  (365) 
0.288937

>  <r_i_glide_esite>  (365) 
-0.194995

>  <r_i_glide_emodel>  (365) 
-35.9608

>  <r_i_glide_energy>  (365) 
-32.7108

>  <r_i_glide_einternal>  (365) 
2.0931

>  <r_i_glide_intrahb_reward>  (365) 
-0

>  <i_i_glide_confnum>  (365) 
1

>  <i_i_glide_posenum>  (365) 
21

>  <r_i_glide_eff_state_penalty>  (365) 
0

>  <ligand_id>  (365) 
99

>  <original_smiles>  (365) 
CN1C(=O)N(c2cccc(C(F)(F)F)c2)C2=C(C(=O)CC2)C1c1ccc(C#N)cc1C(=O)N1CC2CCC1C2

>  <smiles>  (365) 
[H]OC1=C([H])C([H])([H])C2=C1C([H])(c1c([H])c([H])c(C#N)c([H])c1C(=O)N1C([H])([H])C3([H])C([H])([H])C([H])([H])C1([H])C3([H])[H])N(C([H])([H])[H])C(=O)N2c1c([H])c([H])c([H])c(C(F)(F)F)c1[H]

$$$$
99:1:1
     RDKit          3D

 64 69  0  0  1  0  0  0  0  0999 V2000
    5.3063    0.8331    5.6143 C   0  0  0  0  0  0  0  0  0  0  0  0
    4.1958    0.4394    4.7359 N   0  0  0  0  0  0  0  0  0  0  0  0
    4.3944   -0.5307    3.7810 C   0  0  0  0  0  0  0  0  0  0  0  0
    5.3966   -1.2483    3.7750 O   0  0  0  0  0  0  0  0  0  0  0  0
    3.4337   -0.6399    2.8234 N   0  0  0  0  0  0  0  0  0  0  0  0
    3.5574   -1.5967    1.7942 C   0  0  0  0  0  0  0  0  0  0  0  0
    3.0216   -2.8838    1.9818 C   0  0  0  0  0  0  0  0  0  0  0  0
    3.1558   -3.8519    0.9735 C   0  0  0  0  0  0  0  0  0  0  0  0
    3.8151   -3.5268   -0.2248 C   0  0  0  0  0  0  0  0  0  0  0  0
    4.3496   -2.2356   -0.4215 C   0  0  0  0  0  0  0  0  0  0  0  0
    5.0724   -1.8730   -1.7077 C   0  0  0  0  0  0  0  0  0  0  0  0
    4.7065   -0.6576   -2.1181 F   0  0  0  0  0  0  0  0  0  0  0  0
    6.3853   -1.8533   -1.4847 F   0  0  0  0  0  0  0  0  0  0  0  0
    4.8153   -2.7390   -2.6881 F   0  0  0  0  0  0  0  0  0  0  0  0
    4.2214   -1.2693    0.5983 C   0  0  0  0  0  0  0  0  0  0  0  0
    2.2545    0.1167    2.8831 C   0  0  0  0  0  0  0  0  0  0  0  0
    1.9458    0.8841    3.9175 C   0  0  0  0  0  0  0  0  0  0  0  0
    0.7216    1.5825    3.5976 C   0  0  0  0  0  0  0  0  0  0  0  0
    0.1164    2.5171    4.3193 O   0  0  0  0  0  0  0  0  0  0  0  0
    0.3015    1.1969    2.3951 C   0  0  0  0  0  0  0  0  0  0  0  0
    1.2462    0.2019    1.7448 C   0  0  0  0  0  0  0  0  0  0  0  0
    2.8570    0.9591    5.1356 C   0  0  1  0  0  0  0  0  0  0  0  0
    2.2658    0.2053    6.3635 C   0  0  0  0  0  0  0  0  0  0  0  0
    2.6578   -1.1510    6.5801 C   0  0  0  0  0  0  0  0  0  0  0  0
    2.1744   -1.9044    7.6648 C   0  0  0  0  0  0  0  0  0  0  0  0
    1.2918   -1.3048    8.5726 C   0  0  0  0  0  0  0  0  0  0  0  0
    0.7614   -2.0489    9.6920 C   0  0  0  0  0  0  0  0  0  0  0  0
    0.3257   -2.6375   10.5869 N   0  0  0  0  0  0  0  0  0  0  0  0
    0.9129    0.0393    8.4041 C   0  0  0  0  0  0  0  0  0  0  0  0
    1.3433    0.8038    7.2918 C   0  0  0  0  0  0  0  0  0  0  0  0
    0.8211    2.2209    7.1586 C   0  0  0  0  0  0  0  0  0  0  0  0
    1.6155    3.1471    6.9868 O   0  0  0  0  0  0  0  0  0  0  0  0
   -0.5296    2.4227    7.2014 N   0  0  0  0  0  0  0  0  0  0  0  0
   -1.6064    1.4461    7.4386 C   0  0  0  0  0  0  0  0  0  0  0  0
   -2.8624    2.3248    7.3763 C   0  0  1  0  0  0  0  0  0  0  0  0
   -2.8604    3.2794    8.5915 C   0  0  0  0  0  0  0  0  0  0  0  0
   -1.7176    4.2659    8.2615 C   0  0  0  0  0  0  0  0  0  0  0  0
   -1.2059    3.7044    6.9219 C   0  0  2  0  0  0  0  0  0  0  0  0
   -2.5041    3.2636    6.2381 C   0  0  0  0  0  0  0  0  0  0  0  0
    6.2881    0.5926    5.1952 H   0  0  0  0  0  0  0  0  0  0  0  0
    5.2324    0.3313    6.5806 H   0  0  0  0  0  0  0  0  0  0  0  0
    5.3007    1.9095    5.7859 H   0  0  0  0  0  0  0  0  0  0  0  0
    2.5283   -3.1259    2.9061 H   0  0  0  0  0  0  0  0  0  0  0  0
    2.7544   -4.8405    1.1233 H   0  0  0  0  0  0  0  0  0  0  0  0
    3.9106   -4.2757   -0.9952 H   0  0  0  0  0  0  0  0  0  0  0  0
    4.6431   -0.2869    0.4640 H   0  0  0  0  0  0  0  0  0  0  0  0
   -0.5770    1.5665    1.8780 H   0  0  0  0  0  0  0  0  0  0  0  0
    3.0171    2.0165    5.3534 H   0  0  0  0  0  0  0  0  0  0  0  0
    3.3536   -1.6649    5.9312 H   0  0  0  0  0  0  0  0  0  0  0  0
    2.5060   -2.9252    7.7975 H   0  0  0  0  0  0  0  0  0  0  0  0
    0.2674    0.4974    9.1374 H   0  0  0  0  0  0  0  0  0  0  0  0
   -1.5879    0.7027    6.6278 H   0  0  0  0  0  0  0  0  0  0  0  0
   -1.5638    0.9732    8.4303 H   0  0  0  0  0  0  0  0  0  0  0  0
   -3.7870    1.7642    7.2595 H   0  0  0  0  0  0  0  0  0  0  0  0
   -3.8106    3.8080    8.6755 H   0  0  0  0  0  0  0  0  0  0  0  0
   -2.6749    2.7525    9.5282 H   0  0  0  0  0  0  0  0  0  0  0  0
   -2.1042    5.2773    8.1253 H   0  0  0  0  0  0  0  0  0  0  0  0
   -0.9274    4.2876    9.0187 H   0  0  0  0  0  0  0  0  0  0  0  0
   -0.6082    4.4056    6.3283 H   0  0  0  0  0  0  0  0  0  0  0  0
   -2.3632    2.7429    5.2844 H   0  0  0  0  0  0  0  0  0  0  0  0
   -3.2301    4.0658    6.1046 H   0  0  0  0  0  0  0  0  0  0  0  0
    1.6856    0.6152    0.8402 H   0  0  0  0  0  0  0  0  0  0  0  0
    0.7637   -0.7497    1.5527 H   0  0  0  0  0  0  0  0  0  0  0  0
   -0.6096    2.8215    3.7972 H   0  0  0  0  0  0  0  0  0  0  0  0
  1  2  1  0
  1 40  1  0
  1 41  1  0
  1 42  1  0
  2 22  1  0
  2  3  1  0
  3  4  2  0
  3  5  1  0
  5  6  1  0
  5 16  1  0
  6 15  1  0
  6  7  2  0
  7  8  1  0
  7 43  1  0
  8  9  2  0
  8 44  1  0
  9 10  1  0
  9 45  1  0
 10 11  1  0
 10 15  2  0
 11 12  1  0
 11 13  1  0
 11 14  1  0
 15 46  1  0
 16 21  1  0
 16 17  2  0
 17 22  1  0
 17 18  1  0
 18 19  1  0
 18 20  2  0
 19 64  1  0
 20 21  1  0
 20 47  1  0
 21 62  1  0
 21 63  1  0
 22 23  1  0
 22 48  1  1
 23 30  1  0
 23 24  2  0
 24 25  1  0
 24 49  1  0
 25 26  2  0
 25 50  1  0
 26 27  1  0
 26 29  1  0
 27 28  3  0
 29 30  2  0
 29 51  1  0
 30 31  1  0
 31 32  2  0
 31 33  1  0
 33 38  1  0
 33 34  1  0
 34 35  1  0
 34 52  1  0
 34 53  1  0
 35 39  1  0
 35 36  1  0
 35 54  1  6
 36 37  1  0
 36 55  1  0
 36 56  1  0
 37 38  1  0
 37 57  1  0
 37 58  1  0
 38 39  1  0
 38 59  1  6
 39 60  1  0
 39 61  1  0
M  END
>  <i_m_ct_stereo_status>  (366) 
1

>  <s_m_source_file>  (366) 
/var/tmp/pbs.5076255.sched01/tmpo_pg7vmn/129owyy42_r.sdf

>  <i_m_source_file_index>  (366) 
14

>  <i_lp_mmshare_version>  (366) 
48012

>  <i_f3d_flags>  (366) 
0

>  <s_epik_input>  (366) 
RkMoRikoRiljKFtjSF0xKVtjSF1bY0hdW2NIXWMxTjJDKD1PKU4oW0NIM10pW0NAQEhdKEMoPUMyMylDKD1PKVtDSDJdW0NIMl0zKWM0W2NIXVtjSF1jKEMjTilbY0hdYzRDKD1PKU4oW0NIMl1bQ0BASF01NilbQ0BASF0oW0NIMl02KVtDSDJdW0NIMl01

>  <s_epik_cmdline>  (366) 
J2VwaWtfcHl0aG9uJywgJy1waHQnLCAnMi4wJywgJy1waCcsICc3LjAnLCAnLXRuJywgJzgnLCAnLW1hJywgJzIwMCcsICctaW1hZScsICc8aW5maWxlLm1hZT4nLCAnLW9tYWUnLCAnPG91dGZpbGUubWFlPic=

>  <r_lp_tautomer_probability>  (366) 
7.09039e-11

>  <r_epik_Ionization_Penalty>  (366) 
2.75993e-05

>  <r_epik_Ionization_Penalty_Charging>  (366) 
0

>  <r_epik_Ionization_Penalty_Neutral>  (366) 
2.75993e-05

>  <r_epik_State_Penalty>  (366) 
0.577197

>  <r_epik_Charging_Adjusted_Penalty>  (366) 
0.577197

>  <i_epik_Tot_Q>  (366) 
0

>  <i_epik_Tot_abs_Q>  (366) 
0

>  <s_lp_Force_Field>  (366) 
OPLS3e

>  <r_lp_Energy>  (366) 
89.3096

>  <b_lp_Chiralities_Consistent>  (366) 
1

>  <s_lp_Variant>  (366) 
99:0-2

>  <s_i_glide_gridfile>  (366) 
pfpi4k_grid

>  <i_i_glide_lignum>  (366) 
14

>  <i_i_glide_rotatable_bonds>  (366) 
7

>  <r_i_docking_score>  (366) 
-2.20843

>  <r_i_glide_ligand_efficiency>  (366) 
-0.0566264

>  <r_i_glide_ligand_efficiency_sa>  (366) 
-0.192032

>  <r_i_glide_ligand_efficiency_ln>  (366) 
-0.47355

>  <r_i_glide_gscore>  (366) 
-2.20843

>  <r_i_glide_lipo>  (366) 
-0.325363

>  <r_i_glide_hbond>  (366) 
0

>  <r_i_glide_metal>  (366) 
-0

>  <r_i_glide_rewards>  (366) 
-0.268195

>  <r_i_glide_evdw>  (366) 
-31.0745

>  <r_i_glide_ecoul>  (366) 
-1.48575

>  <r_i_glide_erotb>  (366) 
0.288937

>  <r_i_glide_esite>  (366) 
-0.12722

>  <r_i_glide_emodel>  (366) 
-35.9376

>  <r_i_glide_energy>  (366) 
-32.5603

>  <r_i_glide_einternal>  (366) 
1.42046

>  <r_i_glide_intrahb_reward>  (366) 
-0

>  <i_i_glide_confnum>  (366) 
3

>  <i_i_glide_posenum>  (366) 
9

>  <r_i_glide_eff_state_penalty>  (366) 
0

>  <ligand_id>  (366) 
99

>  <original_smiles>  (366) 
CN1C(=O)N(c2cccc(C(F)(F)F)c2)C2=C(C(=O)CC2)C1c1ccc(C#N)cc1C(=O)N1CC2CCC1C2

>  <smiles>  (366) 
[H]OC1=C([H])C([H])([H])C2=C1C([H])(c1c([H])c([H])c(C#N)c([H])c1C(=O)N1C([H])([H])C3([H])C([H])([H])C([H])([H])C1([H])C3([H])[H])N(C([H])([H])[H])C(=O)N2c1c([H])c([H])c([H])c(C(F)(F)F)c1[H]

$$$$
99:1:2
     RDKit          3D

 64 69  0  0  1  0  0  0  0  0999 V2000
    4.2918    2.0690    5.7866 C   0  0  0  0  0  0  0  0  0  0  0  0
    3.3506    1.3652    4.9068 N   0  0  0  0  0  0  0  0  0  0  0  0
    3.8185    0.4964    3.9544 C   0  0  0  0  0  0  0  0  0  0  0  0
    4.9798    0.0983    3.9502 O   0  0  0  0  0  0  0  0  0  0  0  0
    2.9327    0.1752    2.9609 N   0  0  0  0  0  0  0  0  0  0  0  0
    3.3411   -0.7109    1.9352 C   0  0  0  0  0  0  0  0  0  0  0  0
    4.1258   -0.2535    0.8605 C   0  0  0  0  0  0  0  0  0  0  0  0
    4.5331   -1.1532   -0.1426 C   0  0  0  0  0  0  0  0  0  0  0  0
    4.1609   -2.5124   -0.0625 C   0  0  0  0  0  0  0  0  0  0  0  0
    3.3816   -2.9765    1.0227 C   0  0  0  0  0  0  0  0  0  0  0  0
    2.9755   -4.4402    1.1166 C   0  0  0  0  0  0  0  0  0  0  0  0
    2.2689   -4.6961    2.2212 F   0  0  0  0  0  0  0  0  0  0  0  0
    2.2201   -4.7625    0.0714 F   0  0  0  0  0  0  0  0  0  0  0  0
    4.0615   -5.2120    1.1247 F   0  0  0  0  0  0  0  0  0  0  0  0
    2.9715   -2.0656    2.0187 C   0  0  0  0  0  0  0  0  0  0  0  0
    1.5964    0.5650    3.0147 C   0  0  0  0  0  0  0  0  0  0  0  0
    1.0710    1.1835    4.0693 C   0  0  0  0  0  0  0  0  0  0  0  0
   -0.2980    1.5009    3.7765 C   0  0  0  0  0  0  0  0  0  0  0  0
   -1.1451    2.1292    4.5974 O   0  0  0  0  0  0  0  0  0  0  0  0
   -0.5879    1.0660    2.5437 C   0  0  0  0  0  0  0  0  0  0  0  0
    0.6050    0.3927    1.8792 C   0  0  0  0  0  0  0  0  0  0  0  0
    1.9215    1.5102    5.2719 C   0  0  1  0  0  0  0  0  0  0  0  0
    1.5455    0.6206    6.4731 C   0  0  0  0  0  0  0  0  0  0  0  0
    1.8105   -0.7766    6.3711 C   0  0  0  0  0  0  0  0  0  0  0  0
    1.5128   -1.6687    7.4203 C   0  0  0  0  0  0  0  0  0  0  0  0
    0.9688   -1.1651    8.6111 C   0  0  0  0  0  0  0  0  0  0  0  0
    0.6292   -2.0490    9.7106 C   0  0  0  0  0  0  0  0  0  0  0  0
    0.3511   -2.7486   10.5863 N   0  0  0  0  0  0  0  0  0  0  0  0
    0.7396    0.2172    8.7408 C   0  0  0  0  0  0  0  0  0  0  0  0
    0.9594    1.1223    7.6754 C   0  0  0  0  0  0  0  0  0  0  0  0
    0.6251    2.5844    7.8904 C   0  0  0  0  0  0  0  0  0  0  0  0
    1.4605    3.4534    7.6453 O   0  0  0  0  0  0  0  0  0  0  0  0
   -0.6147    2.9040    8.3402 N   0  0  0  0  0  0  0  0  0  0  0  0
   -1.7365    2.0179    8.6793 C   0  0  0  0  0  0  0  0  0  0  0  0
   -2.8100    2.9910    9.1570 C   0  0  1  0  0  0  0  0  0  0  0  0
   -2.3455    3.6219   10.4902 C   0  0  0  0  0  0  0  0  0  0  0  0
   -1.1816    4.5400   10.0506 C   0  0  0  0  0  0  0  0  0  0  0  0
   -1.1245    4.2708    8.5364 C   0  0  2  0  0  0  0  0  0  0  0  0
   -2.6016    4.1336    8.1804 C   0  0  0  0  0  0  0  0  0  0  0  0
    5.3014    2.1143    5.3769 H   0  0  0  0  0  0  0  0  0  0  0  0
    4.3516    1.5658    6.7507 H   0  0  0  0  0  0  0  0  0  0  0  0
    3.9798    3.1014    5.9504 H   0  0  0  0  0  0  0  0  0  0  0  0
    4.4053    0.7878    0.8051 H   0  0  0  0  0  0  0  0  0  0  0  0
    5.1163   -0.7897   -0.9745 H   0  0  0  0  0  0  0  0  0  0  0  0
    4.4664   -3.1984   -0.8354 H   0  0  0  0  0  0  0  0  0  0  0  0
    2.3859   -2.3947    2.8611 H   0  0  0  0  0  0  0  0  0  0  0  0
   -1.5397    1.1625    2.0449 H   0  0  0  0  0  0  0  0  0  0  0  0
    1.7439    2.5758    5.4244 H   0  0  0  0  0  0  0  0  0  0  0  0
    2.2546   -1.2000    5.4755 H   0  0  0  0  0  0  0  0  0  0  0  0
    1.7158   -2.7258    7.3183 H   0  0  0  0  0  0  0  0  0  0  0  0
    0.3887    0.5824    9.6957 H   0  0  0  0  0  0  0  0  0  0  0  0
   -2.0421    1.4387    7.8016 H   0  0  0  0  0  0  0  0  0  0  0  0
   -1.5242    1.3539    9.5180 H   0  0  0  0  0  0  0  0  0  0  0  0
   -3.8055    2.5566    9.1951 H   0  0  0  0  0  0  0  0  0  0  0  0
   -3.1503    4.2033   10.9407 H   0  0  0  0  0  0  0  0  0  0  0  0
   -2.0239    2.8825   11.2272 H   0  0  0  0  0  0  0  0  0  0  0  0
   -1.4299    5.5817   10.2496 H   0  0  0  0  0  0  0  0  0  0  0  0
   -0.2406    4.3090   10.5592 H   0  0  0  0  0  0  0  0  0  0  0  0
   -0.5982    5.0366    7.9643 H   0  0  0  0  0  0  0  0  0  0  0  0
   -2.7717    3.8382    7.1405 H   0  0  0  0  0  0  0  0  0  0  0  0
   -3.1996    5.0117    8.4290 H   0  0  0  0  0  0  0  0  0  0  0  0
    0.9060    0.9126    0.9688 H   0  0  0  0  0  0  0  0  0  0  0  0
    0.4077   -0.6559    1.6752 H   0  0  0  0  0  0  0  0  0  0  0  0
   -1.9600    2.2289    4.1283 H   0  0  0  0  0  0  0  0  0  0  0  0
  1  2  1  0
  1 40  1  0
  1 41  1  0
  1 42  1  0
  2 22  1  0
  2  3  1  0
  3  4  2  0
  3  5  1  0
  5  6  1  0
  5 16  1  0
  6 15  1  0
  6  7  2  0
  7  8  1  0
  7 43  1  0
  8  9  2  0
  8 44  1  0
  9 10  1  0
  9 45  1  0
 10 11  1  0
 10 15  2  0
 11 12  1  0
 11 13  1  0
 11 14  1  0
 15 46  1  0
 16 21  1  0
 16 17  2  0
 17 22  1  0
 17 18  1  0
 18 19  1  0
 18 20  2  0
 19 64  1  0
 20 21  1  0
 20 47  1  0
 21 62  1  0
 21 63  1  0
 22 23  1  0
 22 48  1  1
 23 30  1  0
 23 24  2  0
 24 25  1  0
 24 49  1  0
 25 26  2  0
 25 50  1  0
 26 27  1  0
 26 29  1  0
 27 28  3  0
 29 30  2  0
 29 51  1  0
 30 31  1  0
 31 32  2  0
 31 33  1  0
 33 38  1  0
 33 34  1  0
 34 35  1  0
 34 52  1  0
 34 53  1  0
 35 39  1  0
 35 36  1  0
 35 54  1  1
 36 37  1  0
 36 55  1  0
 36 56  1  0
 37 38  1  0
 37 57  1  0
 37 58  1  0
 38 39  1  0
 38 59  1  6
 39 60  1  0
 39 61  1  0
M  END
>  <i_m_ct_stereo_status>  (367) 
1

>  <s_m_source_file>  (367) 
/var/tmp/pbs.5076255.sched01/tmpo_pg7vmn/129owyy42_r.sdf

>  <i_m_source_file_index>  (367) 
14

>  <i_lp_mmshare_version>  (367) 
48012

>  <i_f3d_flags>  (367) 
0

>  <s_epik_input>  (367) 
RkMoRikoRiljKFtjSF0xKVtjSF1bY0hdW2NIXWMxTjJDKD1PKU4oW0NIM10pW0NAQEhdKEMoPUMyMylDKD1PKVtDSDJdW0NIMl0zKWM0W2NIXVtjSF1jKEMjTilbY0hdYzRDKD1PKU4oW0NIMl1bQ0BASF01NilbQ0BASF0oW0NIMl02KVtDSDJdW0NIMl01

>  <s_epik_cmdline>  (367) 
J2VwaWtfcHl0aG9uJywgJy1waHQnLCAnMi4wJywgJy1waCcsICc3LjAnLCAnLXRuJywgJzgnLCAnLW1hJywgJzIwMCcsICctaW1hZScsICc8aW5maWxlLm1hZT4nLCAnLW9tYWUnLCAnPG91dGZpbGUubWFlPic=

>  <r_lp_tautomer_probability>  (367) 
7.09039e-11

>  <r_epik_Ionization_Penalty>  (367) 
2.75993e-05

>  <r_epik_Ionization_Penalty_Charging>  (367) 
0

>  <r_epik_Ionization_Penalty_Neutral>  (367) 
2.75993e-05

>  <r_epik_State_Penalty>  (367) 
0.577197

>  <r_epik_Charging_Adjusted_Penalty>  (367) 
0.577197

>  <i_epik_Tot_Q>  (367) 
0

>  <i_epik_Tot_abs_Q>  (367) 
0

>  <s_lp_Force_Field>  (367) 
OPLS3e

>  <r_lp_Energy>  (367) 
89.3096

>  <b_lp_Chiralities_Consistent>  (367) 
1

>  <s_lp_Variant>  (367) 
99:0-2

>  <s_i_glide_gridfile>  (367) 
pfpi4k_grid

>  <i_i_glide_lignum>  (367) 
14

>  <i_i_glide_rotatable_bonds>  (367) 
7

>  <r_i_docking_score>  (367) 
-1.83701

>  <r_i_glide_ligand_efficiency>  (367) 
-0.0471029

>  <r_i_glide_ligand_efficiency_sa>  (367) 
-0.159736

>  <r_i_glide_ligand_efficiency_ln>  (367) 
-0.393908

>  <r_i_glide_gscore>  (367) 
-1.83701

>  <r_i_glide_lipo>  (367) 
-0.180897

>  <r_i_glide_hbond>  (367) 
0

>  <r_i_glide_metal>  (367) 
-0

>  <r_i_glide_rewards>  (367) 
-0.0445458

>  <r_i_glide_evdw>  (367) 
-31.2434

>  <r_i_glide_ecoul>  (367) 
-1.48435

>  <r_i_glide_erotb>  (367) 
0.288937

>  <r_i_glide_esite>  (367) 
-0.115684

>  <r_i_glide_emodel>  (367) 
-35.6418

>  <r_i_glide_energy>  (367) 
-32.7278

>  <r_i_glide_einternal>  (367) 
1.47024

>  <r_i_glide_intrahb_reward>  (367) 
-0

>  <i_i_glide_confnum>  (367) 
1

>  <i_i_glide_posenum>  (367) 
31

>  <r_i_glide_eff_state_penalty>  (367) 
0

>  <ligand_id>  (367) 
99

>  <original_smiles>  (367) 
CN1C(=O)N(c2cccc(C(F)(F)F)c2)C2=C(C(=O)CC2)C1c1ccc(C#N)cc1C(=O)N1CC2CCC1C2

>  <smiles>  (367) 
[H]OC1=C([H])C([H])([H])C2=C1C([H])(c1c([H])c([H])c(C#N)c([H])c1C(=O)N1C([H])([H])C3([H])C([H])([H])C([H])([H])C1([H])C3([H])[H])N(C([H])([H])[H])C(=O)N2c1c([H])c([H])c([H])c(C(F)(F)F)c1[H]

$$$$
99:2:0
     RDKit          3D

 64 69  0  0  1  0  0  0  0  0999 V2000
    1.7721   -4.8775    3.8176 C   0  0  0  0  0  0  0  0  0  0  0  0
    2.5576   -3.9078    3.0380 N   0  0  0  0  0  0  0  0  0  0  0  0
    2.6444   -2.6279    3.5120 C   0  0  0  0  0  0  0  0  0  0  0  0
    2.3740   -2.3590    4.6796 O   0  0  0  0  0  0  0  0  0  0  0  0
    2.9401   -1.6544    2.5933 N   0  0  0  0  0  0  0  0  0  0  0  0
    2.6616   -0.2967    2.8987 C   0  0  0  0  0  0  0  0  0  0  0  0
    1.7226    0.4312    2.1397 C   0  0  0  0  0  0  0  0  0  0  0  0
    1.4708    1.7832    2.4382 C   0  0  0  0  0  0  0  0  0  0  0  0
    2.1387    2.4034    3.5116 C   0  0  0  0  0  0  0  0  0  0  0  0
    3.0705    1.6780    4.2889 C   0  0  0  0  0  0  0  0  0  0  0  0
    3.7813    2.3178    5.4714 C   0  0  0  0  0  0  0  0  0  0  0  0
    3.0395    2.1549    6.5665 F   0  0  0  0  0  0  0  0  0  0  0  0
    4.9744    1.7591    5.6855 F   0  0  0  0  0  0  0  0  0  0  0  0
    3.9615    3.6199    5.2640 F   0  0  0  0  0  0  0  0  0  0  0  0
    3.3309    0.3300    3.9731 C   0  0  0  0  0  0  0  0  0  0  0  0
    3.4456   -1.9661    1.3247 C   0  0  0  0  0  0  0  0  0  0  0  0
    4.0849   -3.3043    1.1772 C   0  0  2  0  0  0  0  0  0  0  0  0
    4.3157   -3.2446   -0.3152 C   0  0  0  0  0  0  0  0  0  0  0  0
    4.9184   -4.2904   -0.8781 O   0  0  0  0  0  0  0  0  0  0  0  0
    3.9900   -2.0765   -0.8724 C   0  0  0  0  0  0  0  0  0  0  0  0
    3.4548   -1.2592    0.1846 C   0  0  0  0  0  0  0  0  0  0  0  0
    3.1152   -4.3708    1.7344 C   0  0  1  0  0  0  0  0  0  0  0  0
    3.7682   -5.7715    1.7643 C   0  0  0  0  0  0  0  0  0  0  0  0
    5.1840   -5.8553    1.9278 C   0  0  0  0  0  0  0  0  0  0  0  0
    5.8632   -7.0809    1.8971 C   0  0  0  0  0  0  0  0  0  0  0  0
    5.1433   -8.2637    1.7215 C   0  0  0  0  0  0  0  0  0  0  0  0
    5.8427   -9.5339    1.7383 C   0  0  0  0  0  0  0  0  0  0  0  0
    6.4085  -10.5448    1.7575 N   0  0  0  0  0  0  0  0  0  0  0  0
    3.7401   -8.2099    1.5502 C   0  0  0  0  0  0  0  0  0  0  0  0
    3.0288   -6.9849    1.6041 C   0  0  0  0  0  0  0  0  0  0  0  0
    1.5144   -7.0309    1.4584 C   0  0  0  0  0  0  0  0  0  0  0  0
    0.9273   -6.3393    0.6201 O   0  0  0  0  0  0  0  0  0  0  0  0
    0.8302   -7.8225    2.3221 N   0  0  0  0  0  0  0  0  0  0  0  0
    1.3468   -8.6389    3.4301 C   0  0  0  0  0  0  0  0  0  0  0  0
    0.0816   -9.2691    4.0052 C   0  0  1  0  0  0  0  0  0  0  0  0
   -0.7400   -8.1871    4.7186 C   0  0  0  0  0  0  0  0  0  0  0  0
   -1.2470   -7.3285    3.5407 C   0  0  0  0  0  0  0  0  0  0  0  0
   -0.6263   -8.0416    2.3171 C   0  0  2  0  0  0  0  0  0  0  0  0
   -0.7248   -9.4987    2.7323 C   0  0  0  0  0  0  0  0  0  0  0  0
    1.3383   -4.5053    4.7457 H   0  0  0  0  0  0  0  0  0  0  0  0
    2.3648   -5.7550    4.0755 H   0  0  0  0  0  0  0  0  0  0  0  0
    0.9113   -5.1576    3.2190 H   0  0  0  0  0  0  0  0  0  0  0  0
    1.1990   -0.0380    1.3196 H   0  0  0  0  0  0  0  0  0  0  0  0
    0.7662    2.3345    1.8321 H   0  0  0  0  0  0  0  0  0  0  0  0
    1.9292    3.4364    3.7412 H   0  0  0  0  0  0  0  0  0  0  0  0
    4.0348   -0.2338    4.5662 H   0  0  0  0  0  0  0  0  0  0  0  0
    4.1223   -1.8046   -1.9079 H   0  0  0  0  0  0  0  0  0  0  0  0
    2.2738   -4.3612    1.0411 H   0  0  0  0  0  0  0  0  0  0  0  0
    5.8297   -4.9947    2.0468 H   0  0  0  0  0  0  0  0  0  0  0  0
    6.9412   -7.0865    2.0001 H   0  0  0  0  0  0  0  0  0  0  0  0
    3.2237   -9.1425    1.3777 H   0  0  0  0  0  0  0  0  0  0  0  0
    1.9827   -9.4547    3.0887 H   0  0  0  0  0  0  0  0  0  0  0  0
    1.8870   -8.0337    4.1611 H   0  0  0  0  0  0  0  0  0  0  0  0
    0.2727  -10.1621    4.5943 H   0  0  0  0  0  0  0  0  0  0  0  0
   -1.5697   -8.6520    5.2558 H   0  0  0  0  0  0  0  0  0  0  0  0
   -0.1344   -7.6162    5.4254 H   0  0  0  0  0  0  0  0  0  0  0  0
   -2.3313   -7.3769    3.4939 H   0  0  0  0  0  0  0  0  0  0  0  0
   -0.9542   -6.2828    3.6465 H   0  0  0  0  0  0  0  0  0  0  0  0
   -1.0978   -7.8172    1.3616 H   0  0  0  0  0  0  0  0  0  0  0  0
   -0.2332  -10.1866    2.0394 H   0  0  0  0  0  0  0  0  0  0  0  0
   -1.7447   -9.8312    2.9169 H   0  0  0  0  0  0  0  0  0  0  0  0
    3.0542   -0.2698    0.0395 H   0  0  0  0  0  0  0  0  0  0  0  0
    5.0136   -3.1724    1.7344 H   0  0  0  0  0  0  0  0  0  0  0  0
    4.9962   -4.9561   -0.2118 H   0  0  0  0  0  0  0  0  0  0  0  0
  1  2  1  0
  1 40  1  0
  1 41  1  0
  1 42  1  0
  2 22  1  0
  2  3  1  0
  3  4  2  0
  3  5  1  0
  5  6  1  0
  5 16  1  0
  6 15  1  0
  6  7  2  0
  7  8  1  0
  7 43  1  0
  8  9  2  0
  8 44  1  0
  9 10  1  0
  9 45  1  0
 10 11  1  0
 10 15  2  0
 11 12  1  0
 11 13  1  0
 11 14  1  0
 15 46  1  0
 16 21  2  0
 16 17  1  0
 17 22  1  0
 17 63  1  1
 17 18  1  0
 18 19  1  0
 18 20  2  0
 19 64  1  0
 20 21  1  0
 20 47  1  0
 21 62  1  0
 22 23  1  0
 22 48  1  6
 23 30  1  0
 23 24  2  0
 24 25  1  0
 24 49  1  0
 25 26  2  0
 25 50  1  0
 26 27  1  0
 26 29  1  0
 27 28  3  0
 29 30  2  0
 29 51  1  0
 30 31  1  0
 31 32  2  0
 31 33  1  0
 33 38  1  0
 33 34  1  0
 34 35  1  0
 34 52  1  0
 34 53  1  0
 35 39  1  0
 35 36  1  0
 35 54  1  1
 36 37  1  0
 36 55  1  0
 36 56  1  0
 37 38  1  0
 37 57  1  0
 37 58  1  0
 38 39  1  0
 38 59  1  6
 39 60  1  0
 39 61  1  0
M  END
>  <i_m_ct_stereo_status>  (368) 
1

>  <s_m_source_file>  (368) 
/var/tmp/pbs.5076255.sched01/tmpo_pg7vmn/129owyy42_r.sdf

>  <i_m_source_file_index>  (368) 
15

>  <i_lp_mmshare_version>  (368) 
48012

>  <i_f3d_flags>  (368) 
0

>  <s_epik_input>  (368) 
RkMoRikoRiljKFtjSF0xKVtjSF1bY0hdW2NIXWMxTjJDKD1PKU4oW0NIM10pW0NAQEhdKEMoPUMyMylDKD1PKVtDSDJdW0NIMl0zKWM0W2NIXVtjSF1jKEMjTilbY0hdYzRDKD1PKU4oW0NIMl1bQ0BASF01NilbQ0BASF0oW0NIMl02KVtDSDJdW0NIMl01

>  <s_epik_cmdline>  (368) 
J2VwaWtfcHl0aG9uJywgJy1waHQnLCAnMi4wJywgJy1waCcsICc3LjAnLCAnLXRuJywgJzgnLCAnLW1hJywgJzIwMCcsICctaW1hZScsICc8aW5maWxlLm1hZT4nLCAnLW9tYWUnLCAnPG91dGZpbGUubWFlPic=

>  <r_lp_tautomer_probability>  (368) 
2.46964e-11

>  <r_epik_Ionization_Penalty>  (368) 
0.0170084

>  <r_epik_Ionization_Penalty_Charging>  (368) 
0

>  <r_epik_Ionization_Penalty_Neutral>  (368) 
0.0170084

>  <r_epik_State_Penalty>  (368) 
1.24399

>  <r_epik_Charging_Adjusted_Penalty>  (368) 
1.24399

>  <i_epik_Tot_Q>  (368) 
0

>  <i_epik_Tot_abs_Q>  (368) 
0

>  <s_lp_Force_Field>  (368) 
OPLS3e

>  <r_lp_Energy>  (368) 
90.3843

>  <b_lp_Chiralities_Consistent>  (368) 
1

>  <s_lp_Variant>  (368) 
99:0-3

>  <s_i_glide_gridfile>  (368) 
pfpi4k_grid

>  <i_i_glide_lignum>  (368) 
15

>  <i_i_glide_rotatable_bonds>  (368) 
7

>  <r_i_docking_score>  (368) 
-2.96928

>  <r_i_glide_ligand_efficiency>  (368) 
-0.0761355

>  <r_i_glide_ligand_efficiency_sa>  (368) 
-0.258191

>  <r_i_glide_ligand_efficiency_ln>  (368) 
-0.636699

>  <r_i_glide_gscore>  (368) 
-2.96928

>  <r_i_glide_lipo>  (368) 
-0.273365

>  <r_i_glide_hbond>  (368) 
-0.16

>  <r_i_glide_metal>  (368) 
-0

>  <r_i_glide_rewards>  (368) 
-0.00301512

>  <r_i_glide_evdw>  (368) 
-39.4361

>  <r_i_glide_ecoul>  (368) 
-4.98863

>  <r_i_glide_erotb>  (368) 
0.288937

>  <r_i_glide_esite>  (368) 
-0.101739

>  <r_i_glide_emodel>  (368) 
-47.9545

>  <r_i_glide_energy>  (368) 
-44.4248

>  <r_i_glide_einternal>  (368) 
8.34573

>  <r_i_glide_intrahb_reward>  (368) 
-0

>  <i_i_glide_confnum>  (368) 
4

>  <i_i_glide_posenum>  (368) 
24

>  <r_i_glide_eff_state_penalty>  (368) 
0

>  <ligand_id>  (368) 
99

>  <original_smiles>  (368) 
CN1C(=O)N(c2cccc(C(F)(F)F)c2)C2=C(C(=O)CC2)C1c1ccc(C#N)cc1C(=O)N1CC2CCC1C2

>  <smiles>  (368) 
[H]OC1=C([H])C([H])=C2N(c3c([H])c([H])c([H])c(C(F)(F)F)c3[H])C(=O)N(C([H])([H])[H])C([H])(c3c([H])c([H])c(C#N)c([H])c3C(=O)N3C([H])([H])C4([H])C([H])([H])C([H])([H])C3([H])C4([H])[H])C12[H]

$$$$
99:2:1
     RDKit          3D

 64 69  0  0  1  0  0  0  0  0999 V2000
    3.6647   -5.7755    5.2090 C   0  0  0  0  0  0  0  0  0  0  0  0
    4.0979   -4.7760    4.2147 N   0  0  0  0  0  0  0  0  0  0  0  0
    4.4186   -3.5111    4.6186 C   0  0  0  0  0  0  0  0  0  0  0  0
    4.6779   -3.2718    5.7997 O   0  0  0  0  0  0  0  0  0  0  0  0
    4.3423   -2.5149    3.6774 N   0  0  0  0  0  0  0  0  0  0  0  0
    4.2446   -1.1565    4.0935 C   0  0  0  0  0  0  0  0  0  0  0  0
    3.1287   -0.3667    3.7444 C   0  0  0  0  0  0  0  0  0  0  0  0
    3.0646    0.9851    4.1251 C   0  0  0  0  0  0  0  0  0  0  0  0
    4.0957    1.5483    4.8998 C   0  0  0  0  0  0  0  0  0  0  0  0
    5.2010    0.7606    5.2877 C   0  0  0  0  0  0  0  0  0  0  0  0
    6.3255    1.3229    6.1437 C   0  0  0  0  0  0  0  0  0  0  0  0
    6.4501    0.5985    7.2571 F   0  0  0  0  0  0  0  0  0  0  0  0
    7.4749    1.2662    5.4719 F   0  0  0  0  0  0  0  0  0  0  0  0
    6.0937    2.5890    6.4850 F   0  0  0  0  0  0  0  0  0  0  0  0
    5.2732   -0.5812    4.8772 C   0  0  0  0  0  0  0  0  0  0  0  0
    4.2546   -2.8079    2.3014 C   0  0  0  0  0  0  0  0  0  0  0  0
    4.7178   -4.1776    1.8929 C   0  0  2  0  0  0  0  0  0  0  0  0
    4.2925   -4.0949    0.4444 C   0  0  0  0  0  0  0  0  0  0  0  0
    4.5657   -5.1611   -0.3150 O   0  0  0  0  0  0  0  0  0  0  0  0
    3.7888   -2.9085    0.0873 C   0  0  0  0  0  0  0  0  0  0  0  0
    3.7806   -2.0881    1.2682 C   0  0  0  0  0  0  0  0  0  0  0  0
    4.0166   -5.2045    2.7973 C   0  0  1  0  0  0  0  0  0  0  0  0
    4.5736   -6.6127    2.5317 C   0  0  0  0  0  0  0  0  0  0  0  0
    5.9705   -6.8119    2.6672 C   0  0  0  0  0  0  0  0  0  0  0  0
    6.5592   -8.0612    2.3979 C   0  0  0  0  0  0  0  0  0  0  0  0
    5.7526   -9.1334    1.9905 C   0  0  0  0  0  0  0  0  0  0  0  0
    6.3381  -10.4396    1.7522 C   0  0  0  0  0  0  0  0  0  0  0  0
    6.8094  -11.4820    1.5685 N   0  0  0  0  0  0  0  0  0  0  0  0
    4.3633   -8.9465    1.8364 C   0  0  0  0  0  0  0  0  0  0  0  0
    3.7487   -7.7068    2.1338 C   0  0  0  0  0  0  0  0  0  0  0  0
    2.2452   -7.5861    1.9911 C   0  0  0  0  0  0  0  0  0  0  0  0
    1.7476   -6.7354    1.2478 O   0  0  0  0  0  0  0  0  0  0  0  0
    1.4788   -8.4243    2.7276 N   0  0  0  0  0  0  0  0  0  0  0  0
    1.9155   -9.5060    3.6168 C   0  0  0  0  0  0  0  0  0  0  0  0
    0.5911  -10.0512    4.1477 C   0  0  1  0  0  0  0  0  0  0  0  0
   -0.0270   -9.0094    5.0961 C   0  0  0  0  0  0  0  0  0  0  0  0
   -0.4493   -7.8836    4.1261 C   0  0  0  0  0  0  0  0  0  0  0  0
    0.0080   -8.4381    2.7588 C   0  0  2  0  0  0  0  0  0  0  0  0
   -0.2894   -9.9197    2.9092 C   0  0  0  0  0  0  0  0  0  0  0  0
    3.6651   -5.4084    6.2363 H   0  0  0  0  0  0  0  0  0  0  0  0
    4.3020   -6.6589    5.1971 H   0  0  0  0  0  0  0  0  0  0  0  0
    2.6392   -6.0816    4.9986 H   0  0  0  0  0  0  0  0  0  0  0  0
    2.3116   -0.7858    3.1771 H   0  0  0  0  0  0  0  0  0  0  0  0
    2.2212    1.5857    3.8181 H   0  0  0  0  0  0  0  0  0  0  0  0
    4.0301    2.5828    5.1989 H   0  0  0  0  0  0  0  0  0  0  0  0
    6.1174   -1.1724    5.1907 H   0  0  0  0  0  0  0  0  0  0  0  0
    3.4625   -2.5964   -0.8960 H   0  0  0  0  0  0  0  0  0  0  0  0
    2.9530   -5.1310    2.5839 H   0  0  0  0  0  0  0  0  0  0  0  0
    6.6184   -5.9947    2.9569 H   0  0  0  0  0  0  0  0  0  0  0  0
    7.6289   -8.1873    2.5015 H   0  0  0  0  0  0  0  0  0  0  0  0
    3.7729   -9.7809    1.4886 H   0  0  0  0  0  0  0  0  0  0  0  0
    2.4163  -10.3032    3.0659 H   0  0  0  0  0  0  0  0  0  0  0  0
    2.5727   -9.1344    4.4084 H   0  0  0  0  0  0  0  0  0  0  0  0
    0.6633  -11.0553    4.5589 H   0  0  0  0  0  0  0  0  0  0  0  0
   -0.8907   -9.4289    5.6131 H   0  0  0  0  0  0  0  0  0  0  0  0
    0.6842   -8.6713    5.8503 H   0  0  0  0  0  0  0  0  0  0  0  0
   -1.5300   -7.7634    4.1452 H   0  0  0  0  0  0  0  0  0  0  0  0
    0.0128   -6.9253    4.3720 H   0  0  0  0  0  0  0  0  0  0  0  0
   -0.4679   -7.9700    1.8934 H   0  0  0  0  0  0  0  0  0  0  0  0
    0.0568  -10.5253    2.0667 H   0  0  0  0  0  0  0  0  0  0  0  0
   -1.3398  -10.1274    3.1006 H   0  0  0  0  0  0  0  0  0  0  0  0
    3.3753   -1.0870    1.2826 H   0  0  0  0  0  0  0  0  0  0  0  0
    5.8036   -4.1842    1.9677 H   0  0  0  0  0  0  0  0  0  0  0  0
    4.2240   -4.9915   -1.1815 H   0  0  0  0  0  0  0  0  0  0  0  0
  1  2  1  0
  1 40  1  0
  1 41  1  0
  1 42  1  0
  2 22  1  0
  2  3  1  0
  3  4  2  0
  3  5  1  0
  5  6  1  0
  5 16  1  0
  6 15  1  0
  6  7  2  0
  7  8  1  0
  7 43  1  0
  8  9  2  0
  8 44  1  0
  9 10  1  0
  9 45  1  0
 10 11  1  0
 10 15  2  0
 11 12  1  0
 11 13  1  0
 11 14  1  0
 15 46  1  0
 16 21  2  0
 16 17  1  0
 17 22  1  0
 17 63  1  6
 17 18  1  0
 18 19  1  0
 18 20  2  0
 19 64  1  0
 20 21  1  0
 20 47  1  0
 21 62  1  0
 22 23  1  0
 22 48  1  6
 23 30  1  0
 23 24  2  0
 24 25  1  0
 24 49  1  0
 25 26  2  0
 25 50  1  0
 26 27  1  0
 26 29  1  0
 27 28  3  0
 29 30  2  0
 29 51  1  0
 30 31  1  0
 31 32  2  0
 31 33  1  0
 33 38  1  0
 33 34  1  0
 34 35  1  0
 34 52  1  0
 34 53  1  0
 35 39  1  0
 35 36  1  0
 35 54  1  1
 36 37  1  0
 36 55  1  0
 36 56  1  0
 37 38  1  0
 37 57  1  0
 37 58  1  0
 38 39  1  0
 38 59  1  6
 39 60  1  0
 39 61  1  0
M  END
>  <i_m_ct_stereo_status>  (369) 
1

>  <s_m_source_file>  (369) 
/var/tmp/pbs.5076255.sched01/tmpo_pg7vmn/129owyy42_r.sdf

>  <i_m_source_file_index>  (369) 
15

>  <i_lp_mmshare_version>  (369) 
48012

>  <i_f3d_flags>  (369) 
0

>  <s_epik_input>  (369) 
RkMoRikoRiljKFtjSF0xKVtjSF1bY0hdW2NIXWMxTjJDKD1PKU4oW0NIM10pW0NAQEhdKEMoPUMyMylDKD1PKVtDSDJdW0NIMl0zKWM0W2NIXVtjSF1jKEMjTilbY0hdYzRDKD1PKU4oW0NIMl1bQ0BASF01NilbQ0BASF0oW0NIMl02KVtDSDJdW0NIMl01

>  <s_epik_cmdline>  (369) 
J2VwaWtfcHl0aG9uJywgJy1waHQnLCAnMi4wJywgJy1waCcsICc3LjAnLCAnLXRuJywgJzgnLCAnLW1hJywgJzIwMCcsICctaW1hZScsICc8aW5maWxlLm1hZT4nLCAnLW9tYWUnLCAnPG91dGZpbGUubWFlPic=

>  <r_lp_tautomer_probability>  (369) 
2.46964e-11

>  <r_epik_Ionization_Penalty>  (369) 
0.0170084

>  <r_epik_Ionization_Penalty_Charging>  (369) 
0

>  <r_epik_Ionization_Penalty_Neutral>  (369) 
0.0170084

>  <r_epik_State_Penalty>  (369) 
1.24399

>  <r_epik_Charging_Adjusted_Penalty>  (369) 
1.24399

>  <i_epik_Tot_Q>  (369) 
0

>  <i_epik_Tot_abs_Q>  (369) 
0

>  <s_lp_Force_Field>  (369) 
OPLS3e

>  <r_lp_Energy>  (369) 
90.3843

>  <b_lp_Chiralities_Consistent>  (369) 
1

>  <s_lp_Variant>  (369) 
99:0-3

>  <s_i_glide_gridfile>  (369) 
pfpi4k_grid

>  <i_i_glide_lignum>  (369) 
15

>  <i_i_glide_rotatable_bonds>  (369) 
7

>  <r_i_docking_score>  (369) 
-2.94942

>  <r_i_glide_ligand_efficiency>  (369) 
-0.0756262

>  <r_i_glide_ligand_efficiency_sa>  (369) 
-0.256464

>  <r_i_glide_ligand_efficiency_ln>  (369) 
-0.63244

>  <r_i_glide_gscore>  (369) 
-2.94942

>  <r_i_glide_lipo>  (369) 
-0.313252

>  <r_i_glide_hbond>  (369) 
-0.237721

>  <r_i_glide_metal>  (369) 
-0

>  <r_i_glide_rewards>  (369) 
-0.16983

>  <r_i_glide_evdw>  (369) 
-32.212

>  <r_i_glide_ecoul>  (369) 
-5.454

>  <r_i_glide_erotb>  (369) 
0.288937

>  <r_i_glide_esite>  (369) 
-0.0888547

>  <r_i_glide_emodel>  (369) 
-44.286

>  <r_i_glide_energy>  (369) 
-37.666

>  <r_i_glide_einternal>  (369) 
2.71522

>  <r_i_glide_intrahb_reward>  (369) 
-0

>  <i_i_glide_confnum>  (369) 
4

>  <i_i_glide_posenum>  (369) 
1

>  <r_i_glide_eff_state_penalty>  (369) 
0

>  <ligand_id>  (369) 
99

>  <original_smiles>  (369) 
CN1C(=O)N(c2cccc(C(F)(F)F)c2)C2=C(C(=O)CC2)C1c1ccc(C#N)cc1C(=O)N1CC2CCC1C2

>  <smiles>  (369) 
[H]OC1=C([H])C([H])=C2N(c3c([H])c([H])c([H])c(C(F)(F)F)c3[H])C(=O)N(C([H])([H])[H])C([H])(c3c([H])c([H])c(C#N)c([H])c3C(=O)N3C([H])([H])C4([H])C([H])([H])C([H])([H])C3([H])C4([H])[H])C12[H]

$$$$
99:2:2
     RDKit          3D

 64 69  0  0  1  0  0  0  0  0999 V2000
    1.8182   -4.2612    5.4092 C   0  0  0  0  0  0  0  0  0  0  0  0
    2.5145   -3.4670    4.3819 N   0  0  0  0  0  0  0  0  0  0  0  0
    2.5574   -2.1042    4.4951 C   0  0  0  0  0  0  0  0  0  0  0  0
    2.3236   -1.5497    5.5648 O   0  0  0  0  0  0  0  0  0  0  0  0
    2.7624   -1.3982    3.3337 N   0  0  0  0  0  0  0  0  0  0  0  0
    2.4134   -0.0182    3.2832 C   0  0  0  0  0  0  0  0  0  0  0  0
    1.4358    0.4519    2.3798 C   0  0  0  0  0  0  0  0  0  0  0  0
    1.1317    1.8220    2.3206 C   0  0  0  0  0  0  0  0  0  0  0  0
    1.7751    2.7303    3.1846 C   0  0  0  0  0  0  0  0  0  0  0  0
    2.7366    2.2688    4.1121 C   0  0  0  0  0  0  0  0  0  0  0  0
    3.4113    3.2220    5.0912 C   0  0  0  0  0  0  0  0  0  0  0  0
    2.5502    3.5363    6.0576 F   0  0  0  0  0  0  0  0  0  0  0  0
    4.4921    2.6797    5.6585 F   0  0  0  0  0  0  0  0  0  0  0  0
    3.7835    4.3391    4.4714 F   0  0  0  0  0  0  0  0  0  0  0  0
    3.0549    0.8960    4.1453 C   0  0  0  0  0  0  0  0  0  0  0  0
    3.2368   -2.0160    2.1704 C   0  0  0  0  0  0  0  0  0  0  0  0
    3.9193   -3.3428    2.3431 C   0  0  2  0  0  0  0  0  0  0  0  0
    4.0555   -3.6696    0.8739 C   0  0  0  0  0  0  0  0  0  0  0  0
    4.6838   -4.8037    0.5660 O   0  0  0  0  0  0  0  0  0  0  0  0
    3.6392   -2.7043    0.0504 C   0  0  0  0  0  0  0  0  0  0  0  0
    3.1316   -1.6504    0.8791 C   0  0  0  0  0  0  0  0  0  0  0  0
    3.0005   -4.2274    3.2075 C   0  0  1  0  0  0  0  0  0  0  0  0
    3.7249   -5.5355    3.5594 C   0  0  0  0  0  0  0  0  0  0  0  0
    4.9219   -5.4450    4.3198 C   0  0  0  0  0  0  0  0  0  0  0  0
    5.6624   -6.5953    4.6529 C   0  0  0  0  0  0  0  0  0  0  0  0
    5.2269   -7.8512    4.2094 C   0  0  0  0  0  0  0  0  0  0  0  0
    5.9537   -9.0603    4.5586 C   0  0  0  0  0  0  0  0  0  0  0  0
    6.5309  -10.0263    4.8370 N   0  0  0  0  0  0  0  0  0  0  0  0
    4.0599   -7.9466    3.4201 C   0  0  0  0  0  0  0  0  0  0  0  0
    3.2697   -6.8125    3.1229 C   0  0  0  0  0  0  0  0  0  0  0  0
    1.9944   -7.0005    2.3187 C   0  0  0  0  0  0  0  0  0  0  0  0
    1.7945   -6.3598    1.2841 O   0  0  0  0  0  0  0  0  0  0  0  0
    1.0715   -7.8661    2.7992 N   0  0  0  0  0  0  0  0  0  0  0  0
    1.1626   -8.7412    3.9749 C   0  0  0  0  0  0  0  0  0  0  0  0
   -0.1850   -9.4490    3.9700 C   0  0  1  0  0  0  0  0  0  0  0  0
   -1.2754   -8.4404    4.3440 C   0  0  0  0  0  0  0  0  0  0  0  0
   -1.3268   -7.5293    3.1027 C   0  0  0  0  0  0  0  0  0  0  0  0
   -0.2435   -8.1441    2.1960 C   0  0  2  0  0  0  0  0  0  0  0  0
   -0.4113   -9.6288    2.4784 C   0  0  0  0  0  0  0  0  0  0  0  0
    1.4043   -3.6663    6.2233 H   0  0  0  0  0  0  0  0  0  0  0  0
    2.4821   -4.9933    5.8671 H   0  0  0  0  0  0  0  0  0  0  0  0
    0.9758   -4.7847    4.9554 H   0  0  0  0  0  0  0  0  0  0  0  0
    0.9195   -0.2253    1.7152 H   0  0  0  0  0  0  0  0  0  0  0  0
    0.4004    2.1571    1.5975 H   0  0  0  0  0  0  0  0  0  0  0  0
    1.5196    3.7804    3.1385 H   0  0  0  0  0  0  0  0  0  0  0  0
    3.7843    0.5305    4.8520 H   0  0  0  0  0  0  0  0  0  0  0  0
    3.6889   -2.7099   -1.0282 H   0  0  0  0  0  0  0  0  0  0  0  0
    2.0842   -4.3874    2.6411 H   0  0  0  0  0  0  0  0  0  0  0  0
    5.2981   -4.4797    4.6409 H   0  0  0  0  0  0  0  0  0  0  0  0
    6.5711   -6.5106    5.2380 H   0  0  0  0  0  0  0  0  0  0  0  0
    3.7853   -8.9219    3.0475 H   0  0  0  0  0  0  0  0  0  0  0  0
    1.9162   -9.5161    3.8565 H   0  0  0  0  0  0  0  0  0  0  0  0
    1.3497   -8.1714    4.8857 H   0  0  0  0  0  0  0  0  0  0  0  0
   -0.1853  -10.3695    4.5478 H   0  0  0  0  0  0  0  0  0  0  0  0
   -2.2246   -8.9572    4.4802 H   0  0  0  0  0  0  0  0  0  0  0  0
   -1.0231   -7.9019    5.2584 H   0  0  0  0  0  0  0  0  0  0  0  0
   -2.3044   -7.6021    2.6312 H   0  0  0  0  0  0  0  0  0  0  0  0
   -1.1280   -6.4886    3.3585 H   0  0  0  0  0  0  0  0  0  0  0  0
   -0.3247   -7.8581    1.1472 H   0  0  0  0  0  0  0  0  0  0  0  0
    0.3519  -10.2537    2.0053 H   0  0  0  0  0  0  0  0  0  0  0  0
   -1.4015  -10.0087    2.2313 H   0  0  0  0  0  0  0  0  0  0  0  0
    2.6622   -0.7707    0.4679 H   0  0  0  0  0  0  0  0  0  0  0  0
    4.8938   -3.1433    2.7941 H   0  0  0  0  0  0  0  0  0  0  0  0
    4.8715   -5.2356    1.3848 H   0  0  0  0  0  0  0  0  0  0  0  0
  1  2  1  0
  1 40  1  0
  1 41  1  0
  1 42  1  0
  2 22  1  0
  2  3  1  0
  3  4  2  0
  3  5  1  0
  5  6  1  0
  5 16  1  0
  6 15  1  0
  6  7  2  0
  7  8  1  0
  7 43  1  0
  8  9  2  0
  8 44  1  0
  9 10  1  0
  9 45  1  0
 10 11  1  0
 10 15  2  0
 11 12  1  0
 11 13  1  0
 11 14  1  0
 15 46  1  0
 16 21  2  0
 16 17  1  0
 17 22  1  0
 17 63  1  1
 17 18  1  0
 18 19  1  0
 18 20  2  0
 19 64  1  0
 20 21  1  0
 20 47  1  0
 21 62  1  0
 22 23  1  0
 22 48  1  6
 23 30  1  0
 23 24  2  0
 24 25  1  0
 24 49  1  0
 25 26  2  0
 25 50  1  0
 26 27  1  0
 26 29  1  0
 27 28  3  0
 29 30  2  0
 29 51  1  0
 30 31  1  0
 31 32  2  0
 31 33  1  0
 33 38  1  0
 33 34  1  0
 34 35  1  0
 34 52  1  0
 34 53  1  0
 35 39  1  0
 35 36  1  0
 35 54  1  1
 36 37  1  0
 36 55  1  0
 36 56  1  0
 37 38  1  0
 37 57  1  0
 37 58  1  0
 38 39  1  0
 38 59  1  6
 39 60  1  0
 39 61  1  0
M  END
>  <i_m_ct_stereo_status>  (370) 
1

>  <s_m_source_file>  (370) 
/var/tmp/pbs.5076255.sched01/tmpo_pg7vmn/129owyy42_r.sdf

>  <i_m_source_file_index>  (370) 
15

>  <i_lp_mmshare_version>  (370) 
48012

>  <i_f3d_flags>  (370) 
0

>  <s_epik_input>  (370) 
RkMoRikoRiljKFtjSF0xKVtjSF1bY0hdW2NIXWMxTjJDKD1PKU4oW0NIM10pW0NAQEhdKEMoPUMyMylDKD1PKVtDSDJdW0NIMl0zKWM0W2NIXVtjSF1jKEMjTilbY0hdYzRDKD1PKU4oW0NIMl1bQ0BASF01NilbQ0BASF0oW0NIMl02KVtDSDJdW0NIMl01

>  <s_epik_cmdline>  (370) 
J2VwaWtfcHl0aG9uJywgJy1waHQnLCAnMi4wJywgJy1waCcsICc3LjAnLCAnLXRuJywgJzgnLCAnLW1hJywgJzIwMCcsICctaW1hZScsICc8aW5maWxlLm1hZT4nLCAnLW9tYWUnLCAnPG91dGZpbGUubWFlPic=

>  <r_lp_tautomer_probability>  (370) 
2.46964e-11

>  <r_epik_Ionization_Penalty>  (370) 
0.0170084

>  <r_epik_Ionization_Penalty_Charging>  (370) 
0

>  <r_epik_Ionization_Penalty_Neutral>  (370) 
0.0170084

>  <r_epik_State_Penalty>  (370) 
1.24399

>  <r_epik_Charging_Adjusted_Penalty>  (370) 
1.24399

>  <i_epik_Tot_Q>  (370) 
0

>  <i_epik_Tot_abs_Q>  (370) 
0

>  <s_lp_Force_Field>  (370) 
OPLS3e

>  <r_lp_Energy>  (370) 
90.3843

>  <b_lp_Chiralities_Consistent>  (370) 
1

>  <s_lp_Variant>  (370) 
99:0-3

>  <s_i_glide_gridfile>  (370) 
pfpi4k_grid

>  <i_i_glide_lignum>  (370) 
15

>  <i_i_glide_rotatable_bonds>  (370) 
7

>  <r_i_docking_score>  (370) 
-1.8144

>  <r_i_glide_ligand_efficiency>  (370) 
-0.0465231

>  <r_i_glide_ligand_efficiency_sa>  (370) 
-0.15777

>  <r_i_glide_ligand_efficiency_ln>  (370) 
-0.389059

>  <r_i_glide_gscore>  (370) 
-1.8144

>  <r_i_glide_lipo>  (370) 
-0.0822568

>  <r_i_glide_hbond>  (370) 
0

>  <r_i_glide_metal>  (370) 
-0

>  <r_i_glide_rewards>  (370) 
-0.00164943

>  <r_i_glide_evdw>  (370) 
-30.4004

>  <r_i_glide_ecoul>  (370) 
-3.01609

>  <r_i_glide_erotb>  (370) 
0.288937

>  <r_i_glide_esite>  (370) 
-0.0469973

>  <r_i_glide_emodel>  (370) 
-35.878

>  <r_i_glide_energy>  (370) 
-33.4165

>  <r_i_glide_einternal>  (370) 
4.34903

>  <r_i_glide_intrahb_reward>  (370) 
-0

>  <i_i_glide_confnum>  (370) 
4

>  <i_i_glide_posenum>  (370) 
10

>  <r_i_glide_eff_state_penalty>  (370) 
0

>  <ligand_id>  (370) 
99

>  <original_smiles>  (370) 
CN1C(=O)N(c2cccc(C(F)(F)F)c2)C2=C(C(=O)CC2)C1c1ccc(C#N)cc1C(=O)N1CC2CCC1C2

>  <smiles>  (370) 
[H]OC1=C([H])C([H])=C2N(c3c([H])c([H])c([H])c(C(F)(F)F)c3[H])C(=O)N(C([H])([H])[H])C([H])(c3c([H])c([H])c(C#N)c([H])c3C(=O)N3C([H])([H])C4([H])C([H])([H])C([H])([H])C3([H])C4([H])[H])C12[H]

$$$$
99:3:0
     RDKit          3D

 64 69  0  0  1  0  0  0  0  0999 V2000
   -0.1804   -4.7537    5.8727 C   0  0  0  0  0  0  0  0  0  0  0  0
    0.2865   -3.3874    5.6020 N   0  0  0  0  0  0  0  0  0  0  0  0
    0.0705   -2.3983    6.5193 C   0  0  0  0  0  0  0  0  0  0  0  0
   -0.3013   -2.6551    7.6661 O   0  0  0  0  0  0  0  0  0  0  0  0
    0.2089   -1.1050    6.0838 N   0  0  0  0  0  0  0  0  0  0  0  0
   -0.1243   -0.0273    6.9430 C   0  0  0  0  0  0  0  0  0  0  0  0
    0.5461    0.1143    8.1758 C   0  0  0  0  0  0  0  0  0  0  0  0
    0.2234    1.1686    9.0429 C   0  0  0  0  0  0  0  0  0  0  0  0
   -0.7622    2.1027    8.6697 C   0  0  0  0  0  0  0  0  0  0  0  0
   -1.4257    1.9851    7.4293 C   0  0  0  0  0  0  0  0  0  0  0  0
   -2.4648    3.0042    7.0040 C   0  0  0  0  0  0  0  0  0  0  0  0
   -2.2838    4.1483    7.6549 F   0  0  0  0  0  0  0  0  0  0  0  0
   -2.3967    3.2469    5.6949 F   0  0  0  0  0  0  0  0  0  0  0  0
   -3.6810    2.5499    7.2903 F   0  0  0  0  0  0  0  0  0  0  0  0
   -1.1205    0.9069    6.5747 C   0  0  0  0  0  0  0  0  0  0  0  0
    0.6787   -0.8115    4.7900 C   0  0  0  0  0  0  0  0  0  0  0  0
    1.1894   -1.8487    3.9593 C   0  0  0  0  0  0  0  0  0  0  0  0
    1.5345   -1.2898    2.7980 C   0  0  0  0  0  0  0  0  0  0  0  0
    1.9667   -1.8628    1.6798 O   0  0  0  0  0  0  0  0  0  0  0  0
    1.3325    0.2099    2.7389 C   0  0  0  0  0  0  0  0  0  0  0  0
    0.7626    0.3662    4.1429 C   0  0  0  0  0  0  0  0  0  0  0  0
    1.1933   -3.2806    4.4274 C   0  0  1  0  0  0  0  0  0  0  0  0
    2.6273   -3.7786    4.7502 C   0  0  0  0  0  0  0  0  0  0  0  0
    3.1708   -3.5014    6.0393 C   0  0  0  0  0  0  0  0  0  0  0  0
    4.4562   -3.9282    6.4121 C   0  0  0  0  0  0  0  0  0  0  0  0
    5.2276   -4.6626    5.5003 C   0  0  0  0  0  0  0  0  0  0  0  0
    6.5678   -5.0893    5.8490 C   0  0  0  0  0  0  0  0  0  0  0  0
    7.6399   -5.4291    6.1185 N   0  0  0  0  0  0  0  0  0  0  0  0
    4.7007   -4.9645    4.2367 C   0  0  0  0  0  0  0  0  0  0  0  0
    3.4401   -4.4851    3.8068 C   0  0  0  0  0  0  0  0  0  0  0  0
    3.0053   -4.7745    2.3835 C   0  0  0  0  0  0  0  0  0  0  0  0
    1.9009   -5.2823    2.1669 O   0  0  0  0  0  0  0  0  0  0  0  0
    3.8434   -4.4344    1.3715 N   0  0  0  0  0  0  0  0  0  0  0  0
    3.5343   -4.6492   -0.0514 C   0  0  0  0  0  0  0  0  0  0  0  0
    4.8082   -4.1320   -0.7471 C   0  0  1  0  0  0  0  0  0  0  0  0
    4.8889   -2.5929   -0.5777 C   0  0  0  0  0  0  0  0  0  0  0  0
    5.1745   -2.4250    0.9323 C   0  0  0  0  0  0  0  0  0  0  0  0
    5.2149   -3.8879    1.4203 C   0  0  2  0  0  0  0  0  0  0  0  0
    5.8703   -4.6013    0.2427 C   0  0  0  0  0  0  0  0  0  0  0  0
   -1.0005   -4.7759    6.5941 H   0  0  0  0  0  0  0  0  0  0  0  0
    0.6301   -5.3644    6.2722 H   0  0  0  0  0  0  0  0  0  0  0  0
   -0.5583   -5.2265    4.9671 H   0  0  0  0  0  0  0  0  0  0  0  0
    1.3088   -0.5920    8.4591 H   0  0  0  0  0  0  0  0  0  0  0  0
    0.7376    1.2611    9.9837 H   0  0  0  0  0  0  0  0  0  0  0  0
   -0.9956    2.9131    9.3391 H   0  0  0  0  0  0  0  0  0  0  0  0
   -1.6358    0.8066    5.6337 H   0  0  0  0  0  0  0  0  0  0  0  0
    0.6223    0.5126    1.9715 H   0  0  0  0  0  0  0  0  0  0  0  0
    0.7156   -3.8571    3.6394 H   0  0  0  0  0  0  0  0  0  0  0  0
    2.6182   -2.9579    6.7929 H   0  0  0  0  0  0  0  0  0  0  0  0
    4.8365   -3.6891    7.3990 H   0  0  0  0  0  0  0  0  0  0  0  0
    5.2977   -5.5539    3.5512 H   0  0  0  0  0  0  0  0  0  0  0  0
    3.3708   -5.7134   -0.2564 H   0  0  0  0  0  0  0  0  0  0  0  0
    2.6421   -4.0928   -0.3678 H   0  0  0  0  0  0  0  0  0  0  0  0
    4.9360   -4.4873   -1.7745 H   0  0  0  0  0  0  0  0  0  0  0  0
    5.7239   -2.1885   -1.1561 H   0  0  0  0  0  0  0  0  0  0  0  0
    3.9648   -2.0905   -0.8817 H   0  0  0  0  0  0  0  0  0  0  0  0
    6.1457   -1.9685    1.0992 H   0  0  0  0  0  0  0  0  0  0  0  0
    4.4264   -1.8358    1.4607 H   0  0  0  0  0  0  0  0  0  0  0  0
    5.7886   -3.9857    2.3430 H   0  0  0  0  0  0  0  0  0  0  0  0
    5.8926   -5.6885    0.3663 H   0  0  0  0  0  0  0  0  0  0  0  0
    6.8716   -4.2355    0.0257 H   0  0  0  0  0  0  0  0  0  0  0  0
    0.4742    1.3379    4.5206 H   0  0  0  0  0  0  0  0  0  0  0  0
    2.2637    0.7644    2.6239 H   0  0  0  0  0  0  0  0  0  0  0  0
    1.9341   -1.2034    0.9966 H   0  0  0  0  0  0  0  0  0  0  0  0
  1  2  1  0
  1 40  1  0
  1 41  1  0
  1 42  1  0
  2 22  1  0
  2  3  1  0
  3  4  2  0
  3  5  1  0
  5  6  1  0
  5 16  1  0
  6 15  1  0
  6  7  2  0
  7  8  1  0
  7 43  1  0
  8  9  2  0
  8 44  1  0
  9 10  1  0
  9 45  1  0
 10 11  1  0
 10 15  2  0
 11 12  1  0
 11 13  1  0
 11 14  1  0
 15 46  1  0
 16 21  2  0
 16 17  1  0
 17 18  2  0
 17 22  1  0
 18 20  1  0
 18 19  1  0
 19 64  1  0
 20 21  1  0
 20 47  1  0
 20 63  1  0
 21 62  1  0
 22 23  1  0
 22 48  1  6
 23 30  1  0
 23 24  2  0
 24 25  1  0
 24 49  1  0
 25 26  2  0
 25 50  1  0
 26 27  1  0
 26 29  1  0
 27 28  3  0
 29 30  2  0
 29 51  1  0
 30 31  1  0
 31 32  2  0
 31 33  1  0
 33 38  1  0
 33 34  1  0
 34 35  1  0
 34 52  1  0
 34 53  1  0
 35 39  1  0
 35 36  1  0
 35 54  1  6
 36 37  1  0
 36 55  1  0
 36 56  1  0
 37 38  1  0
 37 57  1  0
 37 58  1  0
 38 39  1  0
 38 59  1  1
 39 60  1  0
 39 61  1  0
M  END
>  <i_m_ct_stereo_status>  (371) 
1

>  <s_m_source_file>  (371) 
/var/tmp/pbs.5076255.sched01/tmpo_pg7vmn/129owyy42_r.sdf

>  <i_m_source_file_index>  (371) 
16

>  <i_lp_mmshare_version>  (371) 
48012

>  <i_f3d_flags>  (371) 
0

>  <s_epik_input>  (371) 
RkMoRikoRiljKFtjSF0xKVtjSF1bY0hdW2NIXWMxTjJDKD1PKU4oW0NIM10pW0NAQEhdKEMoPUMyMylDKD1PKVtDSDJdW0NIMl0zKWM0W2NIXVtjSF1jKEMjTilbY0hdYzRDKD1PKU4oW0NIMl1bQ0BASF01NilbQ0BASF0oW0NIMl02KVtDSDJdW0NIMl01

>  <s_epik_cmdline>  (371) 
J2VwaWtfcHl0aG9uJywgJy1waHQnLCAnMi4wJywgJy1waCcsICc3LjAnLCAnLXRuJywgJzgnLCAnLW1hJywgJzIwMCcsICctaW1hZScsICc8aW5maWxlLm1hZT4nLCAnLW9tYWUnLCAnPG91dGZpbGUubWFlPic=

>  <r_lp_tautomer_probability>  (371) 
2.46964e-11

>  <r_epik_Ionization_Penalty>  (371) 
0.0300427

>  <r_epik_Ionization_Penalty_Charging>  (371) 
0

>  <r_epik_Ionization_Penalty_Neutral>  (371) 
0.0300427

>  <r_epik_State_Penalty>  (371) 
1.24399

>  <r_epik_Charging_Adjusted_Penalty>  (371) 
1.24399

>  <i_epik_Tot_Q>  (371) 
0

>  <i_epik_Tot_abs_Q>  (371) 
0

>  <s_lp_Force_Field>  (371) 
OPLS3e

>  <r_lp_Energy>  (371) 
89.2534

>  <b_lp_Chiralities_Consistent>  (371) 
1

>  <s_lp_Variant>  (371) 
99:0-4

>  <s_i_glide_gridfile>  (371) 
pfpi4k_grid

>  <i_i_glide_lignum>  (371) 
16

>  <i_i_glide_rotatable_bonds>  (371) 
7

>  <r_i_docking_score>  (371) 
-2.55943

>  <r_i_glide_ligand_efficiency>  (371) 
-0.0656265

>  <r_i_glide_ligand_efficiency_sa>  (371) 
-0.222553

>  <r_i_glide_ligand_efficiency_ln>  (371) 
-0.548815

>  <r_i_glide_gscore>  (371) 
-2.55943

>  <r_i_glide_lipo>  (371) 
-0.328993

>  <r_i_glide_hbond>  (371) 
-0.0679884

>  <r_i_glide_metal>  (371) 
-0

>  <r_i_glide_rewards>  (371) 
-0.237708

>  <r_i_glide_evdw>  (371) 
-26.7747

>  <r_i_glide_ecoul>  (371) 
-5.46828

>  <r_i_glide_erotb>  (371) 
0.288937

>  <r_i_glide_esite>  (371) 
-0.0547007

>  <r_i_glide_emodel>  (371) 
-35.8232

>  <r_i_glide_energy>  (371) 
-32.243

>  <r_i_glide_einternal>  (371) 
3.55113

>  <r_i_glide_intrahb_reward>  (371) 
-0

>  <i_i_glide_confnum>  (371) 
5

>  <i_i_glide_posenum>  (371) 
1

>  <r_i_glide_eff_state_penalty>  (371) 
0

>  <ligand_id>  (371) 
99

>  <original_smiles>  (371) 
CN1C(=O)N(c2cccc(C(F)(F)F)c2)C2=C(C(=O)CC2)C1c1ccc(C#N)cc1C(=O)N1CC2CCC1C2

>  <smiles>  (371) 
[H]OC1=C2C(=C([H])C1([H])[H])N(c1c([H])c([H])c([H])c(C(F)(F)F)c1[H])C(=O)N(C([H])([H])[H])C2([H])c1c([H])c([H])c(C#N)c([H])c1C(=O)N1C([H])([H])C2([H])C([H])([H])C([H])([H])C1([H])C2([H])[H]

$$$$
99:3:1
     RDKit          3D

 64 69  0  0  1  0  0  0  0  0999 V2000
   -1.9402   -4.6207    7.2078 C   0  0  0  0  0  0  0  0  0  0  0  0
   -0.6451   -4.3758    6.5505 N   0  0  0  0  0  0  0  0  0  0  0  0
    0.0545   -3.2338    6.8148 C   0  0  0  0  0  0  0  0  0  0  0  0
   -0.2116   -2.5343    7.8035 O   0  0  0  0  0  0  0  0  0  0  0  0
    1.0089   -2.8703    5.9076 N   0  0  0  0  0  0  0  0  0  0  0  0
    1.6836   -1.6377    6.0403 C   0  0  0  0  0  0  0  0  0  0  0  0
    3.0825   -1.6143    6.2278 C   0  0  0  0  0  0  0  0  0  0  0  0
    3.7482   -0.3881    6.3711 C   0  0  0  0  0  0  0  0  0  0  0  0
    3.0197    0.8148    6.3419 C   0  0  0  0  0  0  0  0  0  0  0  0
    1.6174    0.7973    6.1714 C   0  0  0  0  0  0  0  0  0  0  0  0
    0.8179    2.0946    6.1259 C   0  0  0  0  0  0  0  0  0  0  0  0
    1.4693    3.0755    6.7547 F   0  0  0  0  0  0  0  0  0  0  0  0
    0.6307    2.4438    4.8526 F   0  0  0  0  0  0  0  0  0  0  0  0
   -0.3730    1.9327    6.7085 F   0  0  0  0  0  0  0  0  0  0  0  0
    0.9525   -0.4321    6.0196 C   0  0  0  0  0  0  0  0  0  0  0  0
    1.3977   -3.7285    4.8680 C   0  0  0  0  0  0  0  0  0  0  0  0
    0.8874   -5.0574    4.7816 C   0  0  0  0  0  0  0  0  0  0  0  0
    1.4132   -5.6087    3.6798 C   0  0  0  0  0  0  0  0  0  0  0  0
    1.2323   -6.8137    3.1236 O   0  0  0  0  0  0  0  0  0  0  0  0
    2.3520   -4.7101    2.9210 C   0  0  0  0  0  0  0  0  0  0  0  0
    2.2298   -3.5162    3.8376 C   0  0  0  0  0  0  0  0  0  0  0  0
   -0.0972   -5.5607    5.8203 C   0  0  1  0  0  0  0  0  0  0  0  0
    0.5494   -6.5911    6.7768 C   0  0  0  0  0  0  0  0  0  0  0  0
    1.1392   -6.1185    7.9854 C   0  0  0  0  0  0  0  0  0  0  0  0
    1.7454   -6.9700    8.9176 C   0  0  0  0  0  0  0  0  0  0  0  0
    1.7033   -8.3630    8.6714 C   0  0  0  0  0  0  0  0  0  0  0  0
    2.3252   -9.3090    9.5811 C   0  0  0  0  0  0  0  0  0  0  0  0
    2.8218  -10.0636   10.3012 N   0  0  0  0  0  0  0  0  0  0  0  0
    1.0364   -8.8584    7.5385 C   0  0  0  0  0  0  0  0  0  0  0  0
    0.5377   -8.0101    6.5200 C   0  0  0  0  0  0  0  0  0  0  0  0
    0.0348   -8.6338    5.2218 C   0  0  0  0  0  0  0  0  0  0  0  0
   -0.9843   -8.1940    4.6782 O   0  0  0  0  0  0  0  0  0  0  0  0
    0.7575   -9.6392    4.6391 N   0  0  0  0  0  0  0  0  0  0  0  0
    0.4084  -10.2124    3.3316 C   0  0  0  0  0  0  0  0  0  0  0  0
    1.4766  -11.3044    3.1593 C   0  0  1  0  0  0  0  0  0  0  0  0
    2.8482  -10.6308    2.9393 C   0  0  0  0  0  0  0  0  0  0  0  0
    3.1241   -9.9668    4.2991 C   0  0  0  0  0  0  0  0  0  0  0  0
    1.9284  -10.4047    5.1056 C   0  0  2  0  0  0  0  0  0  0  0  0
    1.5895  -11.7766    4.5964 C   0  0  0  0  0  0  0  0  0  0  0  0
   -2.4153   -3.7104    7.5681 H   0  0  0  0  0  0  0  0  0  0  0  0
   -1.7945   -5.2764    8.0644 H   0  0  0  0  0  0  0  0  0  0  0  0
   -2.6640   -5.0797    6.5322 H   0  0  0  0  0  0  0  0  0  0  0  0
    3.6431   -2.5401    6.2574 H   0  0  0  0  0  0  0  0  0  0  0  0
    4.8233   -0.3706    6.5015 H   0  0  0  0  0  0  0  0  0  0  0  0
    3.5405    1.7605    6.4464 H   0  0  0  0  0  0  0  0  0  0  0  0
   -0.1230   -0.4535    5.8804 H   0  0  0  0  0  0  0  0  0  0  0  0
    1.9842   -4.5011    1.9166 H   0  0  0  0  0  0  0  0  0  0  0  0
   -0.9749   -5.9383    5.2811 H   0  0  0  0  0  0  0  0  0  0  0  0
    1.1412   -5.0614    8.2700 H   0  0  0  0  0  0  0  0  0  0  0  0
    2.1700   -6.5989    9.8349 H   0  0  0  0  0  0  0  0  0  0  0  0
    0.9085   -9.9223    7.4490 H   0  0  0  0  0  0  0  0  0  0  0  0
   -0.6054  -10.6445    3.3299 H   0  0  0  0  0  0  0  0  0  0  0  0
    0.4347   -9.4861    2.5010 H   0  0  0  0  0  0  0  0  0  0  0  0
    1.2208  -12.0963    2.5087 H   0  0  0  0  0  0  0  0  0  0  0  0
    3.6200  -11.3843    2.7436 H   0  0  0  0  0  0  0  0  0  0  0  0
    2.8407   -9.8880    2.1359 H   0  0  0  0  0  0  0  0  0  0  0  0
    4.0121  -10.3924    4.7818 H   0  0  0  0  0  0  0  0  0  0  0  0
    3.2446   -8.8760    4.2665 H   0  0  0  0  0  0  0  0  0  0  0  0
    2.2014  -10.4516    6.1547 H   0  0  0  0  0  0  0  0  0  0  0  0
    0.6537  -12.1801    5.0129 H   0  0  0  0  0  0  0  0  0  0  0  0
    2.4027  -12.4827    4.7872 H   0  0  0  0  0  0  0  0  0  0  0  0
    2.7539   -2.6043    3.6415 H   0  0  0  0  0  0  0  0  0  0  0  0
    3.3622   -5.1169    2.9027 H   0  0  0  0  0  0  0  0  0  0  0  0
    0.6696   -7.3124    3.6976 H   0  0  0  0  0  0  0  0  0  0  0  0
  1  2  1  0
  1 40  1  0
  1 41  1  0
  1 42  1  0
  2 22  1  0
  2  3  1  0
  3  4  2  0
  3  5  1  0
  5  6  1  0
  5 16  1  0
  6 15  1  0
  6  7  2  0
  7  8  1  0
  7 43  1  0
  8  9  2  0
  8 44  1  0
  9 10  1  0
  9 45  1  0
 10 11  1  0
 10 15  2  0
 11 12  1  0
 11 13  1  0
 11 14  1  0
 15 46  1  0
 16 21  2  0
 16 17  1  0
 17 18  2  0
 17 22  1  0
 18 20  1  0
 18 19  1  0
 19 64  1  0
 20 21  1  0
 20 47  1  0
 20 63  1  0
 21 62  1  0
 22 23  1  0
 22 48  1  6
 23 30  1  0
 23 24  2  0
 24 25  1  0
 24 49  1  0
 25 26  2  0
 25 50  1  0
 26 27  1  0
 26 29  1  0
 27 28  3  0
 29 30  2  0
 29 51  1  0
 30 31  1  0
 31 32  2  0
 31 33  1  0
 33 38  1  0
 33 34  1  0
 34 35  1  0
 34 52  1  0
 34 53  1  0
 35 39  1  0
 35 36  1  0
 35 54  1  6
 36 37  1  0
 36 55  1  0
 36 56  1  0
 37 38  1  0
 37 57  1  0
 37 58  1  0
 38 39  1  0
 38 59  1  1
 39 60  1  0
 39 61  1  0
M  END
>  <i_m_ct_stereo_status>  (372) 
1

>  <s_m_source_file>  (372) 
/var/tmp/pbs.5076255.sched01/tmpo_pg7vmn/129owyy42_r.sdf

>  <i_m_source_file_index>  (372) 
16

>  <i_lp_mmshare_version>  (372) 
48012

>  <i_f3d_flags>  (372) 
0

>  <s_epik_input>  (372) 
RkMoRikoRiljKFtjSF0xKVtjSF1bY0hdW2NIXWMxTjJDKD1PKU4oW0NIM10pW0NAQEhdKEMoPUMyMylDKD1PKVtDSDJdW0NIMl0zKWM0W2NIXVtjSF1jKEMjTilbY0hdYzRDKD1PKU4oW0NIMl1bQ0BASF01NilbQ0BASF0oW0NIMl02KVtDSDJdW0NIMl01

>  <s_epik_cmdline>  (372) 
J2VwaWtfcHl0aG9uJywgJy1waHQnLCAnMi4wJywgJy1waCcsICc3LjAnLCAnLXRuJywgJzgnLCAnLW1hJywgJzIwMCcsICctaW1hZScsICc8aW5maWxlLm1hZT4nLCAnLW9tYWUnLCAnPG91dGZpbGUubWFlPic=

>  <r_lp_tautomer_probability>  (372) 
2.46964e-11

>  <r_epik_Ionization_Penalty>  (372) 
0.0300427

>  <r_epik_Ionization_Penalty_Charging>  (372) 
0

>  <r_epik_Ionization_Penalty_Neutral>  (372) 
0.0300427

>  <r_epik_State_Penalty>  (372) 
1.24399

>  <r_epik_Charging_Adjusted_Penalty>  (372) 
1.24399

>  <i_epik_Tot_Q>  (372) 
0

>  <i_epik_Tot_abs_Q>  (372) 
0

>  <s_lp_Force_Field>  (372) 
OPLS3e

>  <r_lp_Energy>  (372) 
89.2534

>  <b_lp_Chiralities_Consistent>  (372) 
1

>  <s_lp_Variant>  (372) 
99:0-4

>  <s_i_glide_gridfile>  (372) 
pfpi4k_grid

>  <i_i_glide_lignum>  (372) 
16

>  <i_i_glide_rotatable_bonds>  (372) 
7

>  <r_i_docking_score>  (372) 
-2.25924

>  <r_i_glide_ligand_efficiency>  (372) 
-0.0579292

>  <r_i_glide_ligand_efficiency_sa>  (372) 
-0.19645

>  <r_i_glide_ligand_efficiency_ln>  (372) 
-0.484445

>  <r_i_glide_gscore>  (372) 
-2.25924

>  <r_i_glide_lipo>  (372) 
-0.262826

>  <r_i_glide_hbond>  (372) 
-0.0875581

>  <r_i_glide_metal>  (372) 
-0

>  <r_i_glide_rewards>  (372) 
0

>  <r_i_glide_evdw>  (372) 
-28.3706

>  <r_i_glide_ecoul>  (372) 
-4.03272

>  <r_i_glide_erotb>  (372) 
0.288937

>  <r_i_glide_esite>  (372) 
-0.174353

>  <r_i_glide_emodel>  (372) 
-35.3236

>  <r_i_glide_energy>  (372) 
-32.4034

>  <r_i_glide_einternal>  (372) 
1.53643

>  <r_i_glide_intrahb_reward>  (372) 
-0

>  <i_i_glide_confnum>  (372) 
5

>  <i_i_glide_posenum>  (372) 
2

>  <r_i_glide_eff_state_penalty>  (372) 
0

>  <ligand_id>  (372) 
99

>  <original_smiles>  (372) 
CN1C(=O)N(c2cccc(C(F)(F)F)c2)C2=C(C(=O)CC2)C1c1ccc(C#N)cc1C(=O)N1CC2CCC1C2

>  <smiles>  (372) 
[H]OC1=C2C(=C([H])C1([H])[H])N(c1c([H])c([H])c([H])c(C(F)(F)F)c1[H])C(=O)N(C([H])([H])[H])C2([H])c1c([H])c([H])c(C#N)c([H])c1C(=O)N1C([H])([H])C2([H])C([H])([H])C([H])([H])C1([H])C2([H])[H]

$$$$
99:3:2
     RDKit          3D

 64 69  0  0  1  0  0  0  0  0999 V2000
   -0.1959   -3.2292    5.4651 C   0  0  0  0  0  0  0  0  0  0  0  0
    0.5279   -1.9892    5.1702 N   0  0  0  0  0  0  0  0  0  0  0  0
    0.3662   -0.9073    5.9943 C   0  0  0  0  0  0  0  0  0  0  0  0
   -0.1600   -1.0218    7.1041 O   0  0  0  0  0  0  0  0  0  0  0  0
    0.7180    0.3116    5.4712 N   0  0  0  0  0  0  0  0  0  0  0  0
    0.4555    1.5046    6.2059 C   0  0  0  0  0  0  0  0  0  0  0  0
    1.5109    2.3936    6.5102 C   0  0  0  0  0  0  0  0  0  0  0  0
    1.2605    3.5680    7.2406 C   0  0  0  0  0  0  0  0  0  0  0  0
   -0.0428    3.8562    7.6827 C   0  0  0  0  0  0  0  0  0  0  0  0
   -1.1028    2.9719    7.3890 C   0  0  0  0  0  0  0  0  0  0  0  0
   -2.5139    3.2605    7.8638 C   0  0  0  0  0  0  0  0  0  0  0  0
   -3.3826    2.9372    6.9066 F   0  0  0  0  0  0  0  0  0  0  0  0
   -2.7797    2.5415    8.9521 F   0  0  0  0  0  0  0  0  0  0  0  0
   -2.6696    4.5491    8.1603 F   0  0  0  0  0  0  0  0  0  0  0  0
   -0.8519    1.8041    6.6428 C   0  0  0  0  0  0  0  0  0  0  0  0
    1.3755    0.4207    4.2410 C   0  0  0  0  0  0  0  0  0  0  0  0
    1.8226   -0.7341    3.5384 C   0  0  0  0  0  0  0  0  0  0  0  0
    2.4014   -0.3235    2.4033 C   0  0  0  0  0  0  0  0  0  0  0  0
    2.9665   -1.0230    1.4166 O   0  0  0  0  0  0  0  0  0  0  0  0
    2.4044    1.1773    2.2296 C   0  0  0  0  0  0  0  0  0  0  0  0
    1.6933    1.5165    3.5254 C   0  0  0  0  0  0  0  0  0  0  0  0
    1.5563   -2.1049    4.1026 C   0  0  1  0  0  0  0  0  0  0  0  0
    2.8427   -2.7623    4.6431 C   0  0  0  0  0  0  0  0  0  0  0  0
    3.5530   -2.0918    5.6780 C   0  0  0  0  0  0  0  0  0  0  0  0
    4.7338   -2.6267    6.2258 C   0  0  0  0  0  0  0  0  0  0  0  0
    5.2063   -3.8655    5.7699 C   0  0  0  0  0  0  0  0  0  0  0  0
    6.4358   -4.4325    6.2991 C   0  0  0  0  0  0  0  0  0  0  0  0
    7.4143   -4.8880    6.7123 N   0  0  0  0  0  0  0  0  0  0  0  0
    4.4913   -4.5569    4.7757 C   0  0  0  0  0  0  0  0  0  0  0  0
    3.3436   -4.0065    4.1604 C   0  0  0  0  0  0  0  0  0  0  0  0
    2.6822   -4.7804    3.0371 C   0  0  0  0  0  0  0  0  0  0  0  0
    1.4777   -5.0438    3.0811 O   0  0  0  0  0  0  0  0  0  0  0  0
    3.4503   -5.1585    1.9841 N   0  0  0  0  0  0  0  0  0  0  0  0
    2.9624   -5.9678    0.8558 C   0  0  0  0  0  0  0  0  0  0  0  0
    4.2300   -6.1207   -0.0031 C   0  0  1  0  0  0  0  0  0  0  0  0
    4.5914   -4.7490   -0.6191 C   0  0  0  0  0  0  0  0  0  0  0  0
    5.0461   -3.9365    0.6036 C   0  0  0  0  0  0  0  0  0  0  0  0
    4.8927   -4.9563    1.7336 C   0  0  2  0  0  0  0  0  0  0  0  0
    5.2892   -6.2646    1.0766 C   0  0  0  0  0  0  0  0  0  0  0  0
   -1.0842   -3.0684    6.0806 H   0  0  0  0  0  0  0  0  0  0  0  0
    0.4546   -3.9271    5.9903 H   0  0  0  0  0  0  0  0  0  0  0  0
   -0.5434   -3.6965    4.5464 H   0  0  0  0  0  0  0  0  0  0  0  0
    2.5147    2.1728    6.1856 H   0  0  0  0  0  0  0  0  0  0  0  0
    2.0724    4.2436    7.4636 H   0  0  0  0  0  0  0  0  0  0  0  0
   -0.2274    4.7537    8.2505 H   0  0  0  0  0  0  0  0  0  0  0  0
   -1.6659    1.1305    6.4184 H   0  0  0  0  0  0  0  0  0  0  0  0
    1.8381    1.4986    1.3545 H   0  0  0  0  0  0  0  0  0  0  0  0
    1.0983   -2.6363    3.2678 H   0  0  0  0  0  0  0  0  0  0  0  0
    3.2056   -1.1422    6.0664 H   0  0  0  0  0  0  0  0  0  0  0  0
    5.2744   -2.0867    6.9949 H   0  0  0  0  0  0  0  0  0  0  0  0
    4.8569   -5.5212    4.4600 H   0  0  0  0  0  0  0  0  0  0  0  0
    2.5938   -6.9357    1.2070 H   0  0  0  0  0  0  0  0  0  0  0  0
    2.1602   -5.4645    0.3109 H   0  0  0  0  0  0  0  0  0  0  0  0
    4.2160   -6.9387   -0.7217 H   0  0  0  0  0  0  0  0  0  0  0  0
    5.4147   -4.8502   -1.3262 H   0  0  0  0  0  0  0  0  0  0  0  0
    3.7455   -4.2791   -1.1255 H   0  0  0  0  0  0  0  0  0  0  0  0
    6.0916   -3.6502    0.5226 H   0  0  0  0  0  0  0  0  0  0  0  0
    4.4523   -3.0390    0.7748 H   0  0  0  0  0  0  0  0  0  0  0  0
    5.5483   -4.7013    2.5642 H   0  0  0  0  0  0  0  0  0  0  0  0
    5.1406   -7.1374    1.7209 H   0  0  0  0  0  0  0  0  0  0  0  0
    6.3098   -6.2553    0.6992 H   0  0  0  0  0  0  0  0  0  0  0  0
    1.4932    2.5401    3.7936 H   0  0  0  0  0  0  0  0  0  0  0  0
    3.4141    1.5876    2.2055 H   0  0  0  0  0  0  0  0  0  0  0  0
    2.8436   -1.9368    1.6110 H   0  0  0  0  0  0  0  0  0  0  0  0
  1  2  1  0
  1 40  1  0
  1 41  1  0
  1 42  1  0
  2 22  1  0
  2  3  1  0
  3  4  2  0
  3  5  1  0
  5  6  1  0
  5 16  1  0
  6 15  1  0
  6  7  2  0
  7  8  1  0
  7 43  1  0
  8  9  2  0
  8 44  1  0
  9 10  1  0
  9 45  1  0
 10 11  1  0
 10 15  2  0
 11 12  1  0
 11 13  1  0
 11 14  1  0
 15 46  1  0
 16 21  2  0
 16 17  1  0
 17 18  2  0
 17 22  1  0
 18 20  1  0
 18 19  1  0
 19 64  1  0
 20 21  1  0
 20 47  1  0
 20 63  1  0
 21 62  1  0
 22 23  1  0
 22 48  1  6
 23 30  1  0
 23 24  2  0
 24 25  1  0
 24 49  1  0
 25 26  2  0
 25 50  1  0
 26 27  1  0
 26 29  1  0
 27 28  3  0
 29 30  2  0
 29 51  1  0
 30 31  1  0
 31 32  2  0
 31 33  1  0
 33 38  1  0
 33 34  1  0
 34 35  1  0
 34 52  1  0
 34 53  1  0
 35 39  1  0
 35 36  1  0
 35 54  1  6
 36 37  1  0
 36 55  1  0
 36 56  1  0
 37 38  1  0
 37 57  1  0
 37 58  1  0
 38 39  1  0
 38 59  1  1
 39 60  1  0
 39 61  1  0
M  END
>  <i_m_ct_stereo_status>  (373) 
1

>  <s_m_source_file>  (373) 
/var/tmp/pbs.5076255.sched01/tmpo_pg7vmn/129owyy42_r.sdf

>  <i_m_source_file_index>  (373) 
16

>  <i_lp_mmshare_version>  (373) 
48012

>  <i_f3d_flags>  (373) 
0

>  <s_epik_input>  (373) 
RkMoRikoRiljKFtjSF0xKVtjSF1bY0hdW2NIXWMxTjJDKD1PKU4oW0NIM10pW0NAQEhdKEMoPUMyMylDKD1PKVtDSDJdW0NIMl0zKWM0W2NIXVtjSF1jKEMjTilbY0hdYzRDKD1PKU4oW0NIMl1bQ0BASF01NilbQ0BASF0oW0NIMl02KVtDSDJdW0NIMl01

>  <s_epik_cmdline>  (373) 
J2VwaWtfcHl0aG9uJywgJy1waHQnLCAnMi4wJywgJy1waCcsICc3LjAnLCAnLXRuJywgJzgnLCAnLW1hJywgJzIwMCcsICctaW1hZScsICc8aW5maWxlLm1hZT4nLCAnLW9tYWUnLCAnPG91dGZpbGUubWFlPic=

>  <r_lp_tautomer_probability>  (373) 
2.46964e-11

>  <r_epik_Ionization_Penalty>  (373) 
0.0300427

>  <r_epik_Ionization_Penalty_Charging>  (373) 
0

>  <r_epik_Ionization_Penalty_Neutral>  (373) 
0.0300427

>  <r_epik_State_Penalty>  (373) 
1.24399

>  <r_epik_Charging_Adjusted_Penalty>  (373) 
1.24399

>  <i_epik_Tot_Q>  (373) 
0

>  <i_epik_Tot_abs_Q>  (373) 
0

>  <s_lp_Force_Field>  (373) 
OPLS3e

>  <r_lp_Energy>  (373) 
89.2534

>  <b_lp_Chiralities_Consistent>  (373) 
1

>  <s_lp_Variant>  (373) 
99:0-4

>  <s_i_glide_gridfile>  (373) 
pfpi4k_grid

>  <i_i_glide_lignum>  (373) 
16

>  <i_i_glide_rotatable_bonds>  (373) 
7

>  <r_i_docking_score>  (373) 
-2.07181

>  <r_i_glide_ligand_efficiency>  (373) 
-0.0531234

>  <r_i_glide_ligand_efficiency_sa>  (373) 
-0.180153

>  <r_i_glide_ligand_efficiency_ln>  (373) 
-0.444255

>  <r_i_glide_gscore>  (373) 
-2.07181

>  <r_i_glide_lipo>  (373) 
-0.309786

>  <r_i_glide_hbond>  (373) 
0

>  <r_i_glide_metal>  (373) 
-0

>  <r_i_glide_rewards>  (373) 
-0.250394

>  <r_i_glide_evdw>  (373) 
-26.741

>  <r_i_glide_ecoul>  (373) 
-2.80555

>  <r_i_glide_erotb>  (373) 
0.288937

>  <r_i_glide_esite>  (373) 
-0.0426845

>  <r_i_glide_emodel>  (373) 
-33.6513

>  <r_i_glide_energy>  (373) 
-29.5466

>  <r_i_glide_einternal>  (373) 
0.676112

>  <r_i_glide_intrahb_reward>  (373) 
-0

>  <i_i_glide_confnum>  (373) 
5

>  <i_i_glide_posenum>  (373) 
30

>  <r_i_glide_eff_state_penalty>  (373) 
0

>  <ligand_id>  (373) 
99

>  <original_smiles>  (373) 
CN1C(=O)N(c2cccc(C(F)(F)F)c2)C2=C(C(=O)CC2)C1c1ccc(C#N)cc1C(=O)N1CC2CCC1C2

>  <smiles>  (373) 
[H]OC1=C2C(=C([H])C1([H])[H])N(c1c([H])c([H])c([H])c(C(F)(F)F)c1[H])C(=O)N(C([H])([H])[H])C2([H])c1c([H])c([H])c(C#N)c([H])c1C(=O)N1C([H])([H])C2([H])C([H])([H])C([H])([H])C1([H])C2([H])[H]

$$$$
100:0:0
     RDKit          3D

 24 25  0  0  1  0  0  0  0  0999 V2000
   -9.3921   -3.6498   -6.0053 C   0  0  0  0  0  0  0  0  0  0  0  0
   -8.6931   -4.6650   -5.4450 C   0  0  0  0  0  0  0  0  0  0  0  0
   -7.4991   -4.5193   -4.5205 C   0  0  0  0  0  0  0  0  0  0  0  0
   -5.9080   -5.1740   -5.1193 S   0  0  0  0  0  0  0  0  0  0  0  0
   -6.0736   -6.8140   -5.7479 C   0  0  0  0  0  0  0  0  0  0  0  0
   -7.1231   -7.1562   -6.6193 C   0  0  0  0  0  0  0  0  0  0  0  0
   -7.2573   -8.4998   -6.9975 C   0  0  0  0  0  0  0  0  0  0  0  0
   -8.6341   -8.9533   -7.9407 Cl  0  0  0  0  0  0  0  0  0  0  0  0
   -6.2818   -9.4369   -6.6233 C   0  0  0  0  0  0  0  0  0  0  0  0
   -6.3644  -10.7178   -7.0533 N   0  0  0  0  0  0  0  0  0  0  0  0
   -5.3848  -11.5885   -6.7393 C   0  0  0  0  0  0  0  0  0  0  0  0
   -4.2755  -11.2203   -5.9742 C   0  0  0  0  0  0  0  0  0  0  0  0
   -4.1736   -9.8913   -5.5170 C   0  0  0  0  0  0  0  0  0  0  0  0
   -5.2011   -8.9740   -5.8260 C   0  0  0  0  0  0  0  0  0  0  0  0
   -5.1322   -7.6907   -5.3694 N   0  0  0  0  0  0  0  0  0  0  0  0
   -9.2042   -2.6118   -5.8073 H   0  0  0  0  0  0  0  0  0  0  0  0
  -10.1892   -3.9023   -6.6738 H   0  0  0  0  0  0  0  0  0  0  0  0
   -9.0255   -5.6661   -5.6471 H   0  0  0  0  0  0  0  0  0  0  0  0
   -7.3283   -3.4627   -4.3212 H   0  0  0  0  0  0  0  0  0  0  0  0
   -7.7198   -5.0084   -3.5828 H   0  0  0  0  0  0  0  0  0  0  0  0
   -7.7935   -6.4616   -7.0489 H   0  0  0  0  0  0  0  0  0  0  0  0
   -5.5117  -12.5983   -7.1160 H   0  0  0  0  0  0  0  0  0  0  0  0
   -3.5123  -11.9422   -5.7171 H   0  0  0  0  0  0  0  0  0  0  0  0
   -3.3347   -9.5752   -4.9062 H   0  0  0  0  0  0  0  0  0  0  0  0
  1  2  2  0
  1 16  1  0
  1 17  1  0
  2  3  1  0
  2 18  1  0
  3  4  1  0
  3 19  1  0
  3 20  1  0
  4  5  1  0
  5 15  2  0
  5  6  1  0
  6  7  2  0
  6 21  1  0
  7  8  1  0
  7  9  1  0
  9 14  2  0
  9 10  1  0
 10 11  2  0
 11 12  1  0
 11 22  1  0
 12 13  2  0
 12 23  1  0
 13 14  1  0
 13 24  1  0
 14 15  1  0
M  END
>  <i_m_ct_stereo_status>  (374) 
1

>  <s_m_source_file>  (374) 
/var/tmp/pbs.5076255.sched01/tmpo_pg7vmn/129owyy42_r.sdf

>  <i_m_source_file_index>  (374) 
17

>  <i_lp_mmshare_version>  (374) 
48012

>  <i_f3d_flags>  (374) 
0

>  <s_epik_input>  (374) 
W0NIMl09W0NIXVtDSDJdU2MoW2NIXWMxQ2wpbmMoYzEyKVtjSF1bY0hdW2NIXW4y

>  <s_epik_cmdline>  (374) 
J2VwaWtfcHl0aG9uJywgJy1waHQnLCAnMi4wJywgJy1waCcsICc3LjAnLCAnLXRuJywgJzgnLCAnLW1hJywgJzIwMCcsICctaW1hZScsICc8aW5maWxlLm1hZT4nLCAnLW9tYWUnLCAnPG91dGZpbGUubWFlPic=

>  <r_lp_tautomer_probability>  (374) 
1

>  <r_epik_Ionization_Penalty>  (374) 
3.8164e-05

>  <r_epik_Ionization_Penalty_Charging>  (374) 
0

>  <r_epik_Ionization_Penalty_Neutral>  (374) 
3.8164e-05

>  <r_epik_State_Penalty>  (374) 
-0

>  <r_epik_Charging_Adjusted_Penalty>  (374) 
0

>  <i_epik_Tot_Q>  (374) 
0

>  <i_epik_Tot_abs_Q>  (374) 
0

>  <s_lp_Force_Field>  (374) 
OPLS3e

>  <r_lp_Energy>  (374) 
24.3733

>  <b_lp_Chiralities_Consistent>  (374) 
1

>  <s_lp_Variant>  (374) 
100:0-1

>  <s_i_glide_gridfile>  (374) 
pfpi4k_grid

>  <i_i_glide_lignum>  (374) 
17

>  <i_i_glide_rotatable_bonds>  (374) 
3

>  <r_i_docking_score>  (374) 
-6.23889

>  <r_i_glide_ligand_efficiency>  (374) 
-0.415926

>  <r_i_glide_ligand_efficiency_sa>  (374) 
-1.02576

>  <r_i_glide_ligand_efficiency_ln>  (374) 
-1.68253

>  <r_i_glide_gscore>  (374) 
-6.23889

>  <r_i_glide_lipo>  (374) 
-2.69607

>  <r_i_glide_hbond>  (374) 
0

>  <r_i_glide_metal>  (374) 
-0

>  <r_i_glide_rewards>  (374) 
-2.47842

>  <r_i_glide_evdw>  (374) 
-28.7456

>  <r_i_glide_ecoul>  (374) 
-1.61243

>  <r_i_glide_erotb>  (374) 
0.614735

>  <r_i_glide_esite>  (374) 
0

>  <r_i_glide_emodel>  (374) 
-40.1109

>  <r_i_glide_energy>  (374) 
-30.358

>  <r_i_glide_einternal>  (374) 
1.139

>  <r_i_glide_intrahb_reward>  (374) 
-0

>  <i_i_glide_confnum>  (374) 
4

>  <i_i_glide_posenum>  (374) 
1

>  <r_i_glide_eff_state_penalty>  (374) 
0

>  <ligand_id>  (374) 
100

>  <original_smiles>  (374) 
C=CCSc1cc(Cl)c2ncccc2n1

>  <smiles>  (374) 
[H]C([H])=C([H])C([H])([H])Sc1nc2c([H])c([H])c([H])nc2c(Cl)c1[H]

$$$$
100:0:1
     RDKit          3D

 24 25  0  0  1  0  0  0  0  0999 V2000
   -6.0951   -4.3931   -4.1361 C   0  0  0  0  0  0  0  0  0  0  0  0
   -5.2871   -5.2707   -4.7661 C   0  0  0  0  0  0  0  0  0  0  0  0
   -5.3401   -6.7793   -4.6316 C   0  0  0  0  0  0  0  0  0  0  0  0
   -5.7920   -7.7270   -6.1456 S   0  0  0  0  0  0  0  0  0  0  0  0
   -7.2662   -7.0806   -6.8819 C   0  0  0  0  0  0  0  0  0  0  0  0
   -7.8829   -5.9199   -6.4388 C   0  0  0  0  0  0  0  0  0  0  0  0
   -8.9549   -5.3746   -7.0806 C   0  0  0  0  0  0  0  0  0  0  0  0
   -9.6184   -3.8860   -6.4960 Cl  0  0  0  0  0  0  0  0  0  0  0  0
   -9.4946   -6.0656   -8.1732 C   0  0  0  0  0  0  0  0  0  0  0  0
  -10.5748   -5.5636   -8.7947 N   0  0  0  0  0  0  0  0  0  0  0  0
  -11.1415   -6.2669   -9.7955 C   0  0  0  0  0  0  0  0  0  0  0  0
  -10.5869   -7.4733  -10.2507 C   0  0  0  0  0  0  0  0  0  0  0  0
   -9.4404   -7.9918   -9.6333 C   0  0  0  0  0  0  0  0  0  0  0  0
   -8.8650   -7.2818   -8.5532 C   0  0  0  0  0  0  0  0  0  0  0  0
   -7.7596   -7.7630   -7.9328 N   0  0  0  0  0  0  0  0  0  0  0  0
   -6.8445   -4.7540   -3.4576 H   0  0  0  0  0  0  0  0  0  0  0  0
   -6.0623   -3.3273   -4.3362 H   0  0  0  0  0  0  0  0  0  0  0  0
   -4.6070   -4.8586   -5.4779 H   0  0  0  0  0  0  0  0  0  0  0  0
   -4.3422   -7.1238   -4.3749 H   0  0  0  0  0  0  0  0  0  0  0  0
   -6.0091   -7.0471   -3.8193 H   0  0  0  0  0  0  0  0  0  0  0  0
   -7.6080   -5.3792   -5.5774 H   0  0  0  0  0  0  0  0  0  0  0  0
  -12.0326   -5.8348  -10.2347 H   0  0  0  0  0  0  0  0  0  0  0  0
  -11.0398   -8.0072  -11.0791 H   0  0  0  0  0  0  0  0  0  0  0  0
   -8.9705   -8.9227   -9.9421 H   0  0  0  0  0  0  0  0  0  0  0  0
  1  2  2  0
  1 16  1  0
  1 17  1  0
  2  3  1  0
  2 18  1  0
  3  4  1  0
  3 19  1  0
  3 20  1  0
  4  5  1  0
  5 15  2  0
  5  6  1  0
  6  7  2  0
  6 21  1  0
  7  8  1  0
  7  9  1  0
  9 14  2  0
  9 10  1  0
 10 11  2  0
 11 12  1  0
 11 22  1  0
 12 13  2  0
 12 23  1  0
 13 14  1  0
 13 24  1  0
 14 15  1  0
M  END
>  <i_m_ct_stereo_status>  (375) 
1

>  <s_m_source_file>  (375) 
/var/tmp/pbs.5076255.sched01/tmpo_pg7vmn/129owyy42_r.sdf

>  <i_m_source_file_index>  (375) 
17

>  <i_lp_mmshare_version>  (375) 
48012

>  <i_f3d_flags>  (375) 
0

>  <s_epik_input>  (375) 
W0NIMl09W0NIXVtDSDJdU2MoW2NIXWMxQ2wpbmMoYzEyKVtjSF1bY0hdW2NIXW4y

>  <s_epik_cmdline>  (375) 
J2VwaWtfcHl0aG9uJywgJy1waHQnLCAnMi4wJywgJy1waCcsICc3LjAnLCAnLXRuJywgJzgnLCAnLW1hJywgJzIwMCcsICctaW1hZScsICc8aW5maWxlLm1hZT4nLCAnLW9tYWUnLCAnPG91dGZpbGUubWFlPic=

>  <r_lp_tautomer_probability>  (375) 
1

>  <r_epik_Ionization_Penalty>  (375) 
3.8164e-05

>  <r_epik_Ionization_Penalty_Charging>  (375) 
0

>  <r_epik_Ionization_Penalty_Neutral>  (375) 
3.8164e-05

>  <r_epik_State_Penalty>  (375) 
-0

>  <r_epik_Charging_Adjusted_Penalty>  (375) 
0

>  <i_epik_Tot_Q>  (375) 
0

>  <i_epik_Tot_abs_Q>  (375) 
0

>  <s_lp_Force_Field>  (375) 
OPLS3e

>  <r_lp_Energy>  (375) 
24.3733

>  <b_lp_Chiralities_Consistent>  (375) 
1

>  <s_lp_Variant>  (375) 
100:0-1

>  <s_i_glide_gridfile>  (375) 
pfpi4k_grid

>  <i_i_glide_lignum>  (375) 
17

>  <i_i_glide_rotatable_bonds>  (375) 
3

>  <r_i_docking_score>  (375) 
-5.14108

>  <r_i_glide_ligand_efficiency>  (375) 
-0.342739

>  <r_i_glide_ligand_efficiency_sa>  (375) 
-0.845267

>  <r_i_glide_ligand_efficiency_ln>  (375) 
-1.38647

>  <r_i_glide_gscore>  (375) 
-5.14108

>  <r_i_glide_lipo>  (375) 
-1.9341

>  <r_i_glide_hbond>  (375) 
-0.00730603

>  <r_i_glide_metal>  (375) 
-0

>  <r_i_glide_rewards>  (375) 
-2.28675

>  <r_i_glide_evdw>  (375) 
-26.5231

>  <r_i_glide_ecoul>  (375) 
-1.34342

>  <r_i_glide_erotb>  (375) 
0.614735

>  <r_i_glide_esite>  (375) 
0

>  <r_i_glide_emodel>  (375) 
-34.8445

>  <r_i_glide_energy>  (375) 
-27.8665

>  <r_i_glide_einternal>  (375) 
0.45084

>  <r_i_glide_intrahb_reward>  (375) 
-0

>  <i_i_glide_confnum>  (375) 
4

>  <i_i_glide_posenum>  (375) 
34

>  <r_i_glide_eff_state_penalty>  (375) 
0

>  <ligand_id>  (375) 
100

>  <original_smiles>  (375) 
C=CCSc1cc(Cl)c2ncccc2n1

>  <smiles>  (375) 
[H]C([H])=C([H])C([H])([H])Sc1nc2c([H])c([H])c([H])nc2c(Cl)c1[H]

$$$$
100:0:2
     RDKit          3D

 24 25  0  0  1  0  0  0  0  0999 V2000
   -5.5143   -4.9451   -4.7762 C   0  0  0  0  0  0  0  0  0  0  0  0
   -6.6066   -4.1733   -4.7308 C   0  0  0  0  0  0  0  0  0  0  0  0
   -8.0271   -4.6916   -4.7881 C   0  0  0  0  0  0  0  0  0  0  0  0
   -8.8993   -4.2085   -6.3085 S   0  0  0  0  0  0  0  0  0  0  0  0
   -8.9584   -5.6427   -7.3412 C   0  0  0  0  0  0  0  0  0  0  0  0
   -7.9010   -6.5694   -7.3884 C   0  0  0  0  0  0  0  0  0  0  0  0
   -8.0496   -7.6930   -8.2240 C   0  0  0  0  0  0  0  0  0  0  0  0
   -6.7641   -8.8460   -8.3131 Cl  0  0  0  0  0  0  0  0  0  0  0  0
   -9.2309   -7.8622   -8.9855 C   0  0  0  0  0  0  0  0  0  0  0  0
   -9.3826   -8.9362   -9.8022 N   0  0  0  0  0  0  0  0  0  0  0  0
  -10.5245   -9.0751  -10.5068 C   0  0  0  0  0  0  0  0  0  0  0  0
  -11.5820   -8.1504  -10.4321 C   0  0  0  0  0  0  0  0  0  0  0  0
  -11.4282   -7.0312   -9.5927 C   0  0  0  0  0  0  0  0  0  0  0  0
  -10.2397   -6.8591   -8.8531 C   0  0  0  0  0  0  0  0  0  0  0  0
  -10.0943   -5.7714   -8.0584 N   0  0  0  0  0  0  0  0  0  0  0  0
   -5.5763   -6.0187   -4.8605 H   0  0  0  0  0  0  0  0  0  0  0  0
   -4.5420   -4.4894   -4.7245 H   0  0  0  0  0  0  0  0  0  0  0  0
   -6.4806   -3.1046   -4.6477 H   0  0  0  0  0  0  0  0  0  0  0  0
   -8.0435   -5.7779   -4.7006 H   0  0  0  0  0  0  0  0  0  0  0  0
   -8.5708   -4.2837   -3.9340 H   0  0  0  0  0  0  0  0  0  0  0  0
   -6.9974   -6.4267   -6.8115 H   0  0  0  0  0  0  0  0  0  0  0  0
  -10.6000   -9.9496  -11.1408 H   0  0  0  0  0  0  0  0  0  0  0  0
  -12.4920   -8.2928  -11.0009 H   0  0  0  0  0  0  0  0  0  0  0  0
  -12.2218   -6.3036   -9.5092 H   0  0  0  0  0  0  0  0  0  0  0  0
  1  2  2  0
  1 16  1  0
  1 17  1  0
  2  3  1  0
  2 18  1  0
  3  4  1  0
  3 19  1  0
  3 20  1  0
  4  5  1  0
  5 15  2  0
  5  6  1  0
  6  7  2  0
  6 21  1  0
  7  8  1  0
  7  9  1  0
  9 14  2  0
  9 10  1  0
 10 11  2  0
 11 12  1  0
 11 22  1  0
 12 13  2  0
 12 23  1  0
 13 14  1  0
 13 24  1  0
 14 15  1  0
M  END
>  <i_m_ct_stereo_status>  (376) 
1

>  <s_m_source_file>  (376) 
/var/tmp/pbs.5076255.sched01/tmpo_pg7vmn/129owyy42_r.sdf

>  <i_m_source_file_index>  (376) 
17

>  <i_lp_mmshare_version>  (376) 
48012

>  <i_f3d_flags>  (376) 
0

>  <s_epik_input>  (376) 
W0NIMl09W0NIXVtDSDJdU2MoW2NIXWMxQ2wpbmMoYzEyKVtjSF1bY0hdW2NIXW4y

>  <s_epik_cmdline>  (376) 
J2VwaWtfcHl0aG9uJywgJy1waHQnLCAnMi4wJywgJy1waCcsICc3LjAnLCAnLXRuJywgJzgnLCAnLW1hJywgJzIwMCcsICctaW1hZScsICc8aW5maWxlLm1hZT4nLCAnLW9tYWUnLCAnPG91dGZpbGUubWFlPic=

>  <r_lp_tautomer_probability>  (376) 
1

>  <r_epik_Ionization_Penalty>  (376) 
3.8164e-05

>  <r_epik_Ionization_Penalty_Charging>  (376) 
0

>  <r_epik_Ionization_Penalty_Neutral>  (376) 
3.8164e-05

>  <r_epik_State_Penalty>  (376) 
-0

>  <r_epik_Charging_Adjusted_Penalty>  (376) 
0

>  <i_epik_Tot_Q>  (376) 
0

>  <i_epik_Tot_abs_Q>  (376) 
0

>  <s_lp_Force_Field>  (376) 
OPLS3e

>  <r_lp_Energy>  (376) 
24.3733

>  <b_lp_Chiralities_Consistent>  (376) 
1

>  <s_lp_Variant>  (376) 
100:0-1

>  <s_i_glide_gridfile>  (376) 
pfpi4k_grid

>  <i_i_glide_lignum>  (376) 
17

>  <i_i_glide_rotatable_bonds>  (376) 
3

>  <r_i_docking_score>  (376) 
-5.033

>  <r_i_glide_ligand_efficiency>  (376) 
-0.335534

>  <r_i_glide_ligand_efficiency_sa>  (376) 
-0.827497

>  <r_i_glide_ligand_efficiency_ln>  (376) 
-1.35732

>  <r_i_glide_gscore>  (376) 
-5.033

>  <r_i_glide_lipo>  (376) 
-1.92868

>  <r_i_glide_hbond>  (376) 
0

>  <r_i_glide_metal>  (376) 
-0

>  <r_i_glide_rewards>  (376) 
-2.22008

>  <r_i_glide_evdw>  (376) 
-24.7208

>  <r_i_glide_ecoul>  (376) 
-1.75295

>  <r_i_glide_erotb>  (376) 
0.614735

>  <r_i_glide_esite>  (376) 
0

>  <r_i_glide_emodel>  (376) 
-34.9645

>  <r_i_glide_energy>  (376) 
-26.4737

>  <r_i_glide_einternal>  (376) 
1.53416

>  <r_i_glide_intrahb_reward>  (376) 
-0

>  <i_i_glide_confnum>  (376) 
5

>  <i_i_glide_posenum>  (376) 
25

>  <r_i_glide_eff_state_penalty>  (376) 
0

>  <ligand_id>  (376) 
100

>  <original_smiles>  (376) 
C=CCSc1cc(Cl)c2ncccc2n1

>  <smiles>  (376) 
[H]C([H])=C([H])C([H])([H])Sc1nc2c([H])c([H])c([H])nc2c(Cl)c1[H]

$$$$
101:0:0
     RDKit          3D

 31 32  0  0  1  0  0  0  0  0999 V2000
    0.8624    1.7642    1.9477 N   0  0  0  0  0  0  0  0  0  0  0  0
    0.0932    1.1418    2.9283 C   0  0  0  0  0  0  0  0  0  0  0  0
    0.1635   -0.0848    3.5512 C   0  0  0  0  0  0  0  0  0  0  0  0
    1.2005   -1.1440    3.3314 C   0  0  0  0  0  0  0  0  0  0  0  0
    1.7009   -1.2177    2.0892 N   0  0  0  0  0  0  0  0  0  0  0  0
    1.5502   -1.9395    4.2003 O   0  0  0  0  0  0  0  0  0  0  0  0
   -0.8879   -0.1645    4.4757 N   0  0  0  0  0  0  0  0  0  0  0  0
   -1.5845    0.9406    4.4432 N   0  0  0  0  0  0  0  0  0  0  0  0
   -1.0208    1.7324    3.4963 N   0  0  0  0  0  0  0  0  0  0  0  0
   -1.5972    3.0262    3.1969 C   0  0  0  0  0  0  0  0  0  0  0  0
   -0.8322    4.1108    3.9347 C   0  0  0  0  0  0  0  0  0  0  0  0
   -1.2052    4.3875    5.0676 O   0  0  0  0  0  0  0  0  0  0  0  0
    0.1660    4.7291    3.2791 N   0  0  0  0  0  0  0  0  0  0  0  0
    1.1435    5.6287    3.7901 C   0  0  0  0  0  0  0  0  0  0  0  0
    2.4594    5.6265    3.2604 C   0  0  0  0  0  0  0  0  0  0  0  0
    3.4283    6.5422    3.7430 C   0  0  0  0  0  0  0  0  0  0  0  0
    3.0858    7.4671    4.7581 C   0  0  0  0  0  0  0  0  0  0  0  0
    1.7748    7.4775    5.2766 C   0  0  0  0  0  0  0  0  0  0  0  0
    1.3000    8.5732    6.5213 Cl  0  0  0  0  0  0  0  0  0  0  0  0
    0.8167    6.5750    4.7894 C   0  0  0  0  0  0  0  0  0  0  0  0
    0.6475    2.6789    1.5455 H   0  0  0  0  0  0  0  0  0  0  0  0
    1.6949    1.3692    1.5424 H   0  0  0  0  0  0  0  0  0  0  0  0
    2.3937   -1.9115    1.8523 H   0  0  0  0  0  0  0  0  0  0  0  0
    1.3211   -0.6164    1.3707 H   0  0  0  0  0  0  0  0  0  0  0  0
   -2.6478    3.0495    3.5021 H   0  0  0  0  0  0  0  0  0  0  0  0
   -1.5633    3.2133    2.1263 H   0  0  0  0  0  0  0  0  0  0  0  0
    0.2436    4.4942    2.2616 H   0  0  0  0  0  0  0  0  0  0  0  0
    2.7300    4.9327    2.4687 H   0  0  0  0  0  0  0  0  0  0  0  0
    4.4352    6.5437    3.3380 H   0  0  0  0  0  0  0  0  0  0  0  0
    3.8160    8.1711    5.1414 H   0  0  0  0  0  0  0  0  0  0  0  0
   -0.1833    6.6620    5.1876 H   0  0  0  0  0  0  0  0  0  0  0  0
  1  2  1  0
  1 22  1  0
  1 21  1  0
  2  3  2  0
  2  9  1  0
  3  4  1  0
  3  7  1  0
  4  5  1  0
  4  6  2  0
  5 23  1  0
  5 24  1  0
  7  8  2  0
  8  9  1  0
  9 10  1  0
 10 11  1  0
 10 25  1  0
 10 26  1  0
 11 12  2  0
 11 13  1  0
 13 14  1  0
 13 27  1  0
 14 20  1  0
 14 15  2  0
 15 16  1  0
 15 28  1  0
 16 17  2  0
 16 29  1  0
 17 18  1  0
 17 30  1  0
 18 19  1  0
 18 20  2  0
 20 31  1  0
M  END
>  <i_m_ct_stereo_status>  (377) 
1

>  <s_m_source_file>  (377) 
/var/tmp/pbs.5076255.sched01/tmpo_pg7vmn/129owyy42_r.sdf

>  <i_m_source_file_index>  (377) 
18

>  <i_lp_mmshare_version>  (377) 
48012

>  <i_f3d_flags>  (377) 
0

>  <s_epik_input>  (377) 
W0hdL049YzEvYyhDKD1PKVtOSDJdKW5bbkhdbjFbQ0gyXUMoPU8pW05IXWMyW2NIXVtjSF1bY0hdYyhDbClbY0hdMg==

>  <s_epik_cmdline>  (377) 
J2VwaWtfcHl0aG9uJywgJy1waHQnLCAnMi4wJywgJy1waCcsICc3LjAnLCAnLXRuJywgJzgnLCAnLW1hJywgJzIwMCcsICctaW1hZScsICc8aW5maWxlLm1hZT4nLCAnLW9tYWUnLCAnPG91dGZpbGUubWFlPic=

>  <r_lp_tautomer_probability>  (377) 
1

>  <r_epik_Ionization_Penalty>  (377) 
0.000388663

>  <r_epik_Ionization_Penalty_Charging>  (377) 
0

>  <r_epik_Ionization_Penalty_Neutral>  (377) 
0.000388663

>  <r_epik_State_Penalty>  (377) 
0.000341243

>  <r_epik_Charging_Adjusted_Penalty>  (377) 
0.000341243

>  <i_epik_Tot_Q>  (377) 
0

>  <i_epik_Tot_abs_Q>  (377) 
0

>  <s_lp_Force_Field>  (377) 
OPLS3e

>  <r_lp_Energy>  (377) 
13.7925

>  <b_lp_Chiralities_Consistent>  (377) 
1

>  <s_lp_Variant>  (377) 
101:0-1

>  <s_i_glide_gridfile>  (377) 
pfpi4k_grid

>  <i_i_glide_lignum>  (377) 
18

>  <i_i_glide_rotatable_bonds>  (377) 
5

>  <r_i_docking_score>  (377) 
-4.34039

>  <r_i_glide_ligand_efficiency>  (377) 
-0.21702

>  <r_i_glide_ligand_efficiency_sa>  (377) 
-0.589082

>  <r_i_glide_ligand_efficiency_ln>  (377) 
-1.08626

>  <r_i_glide_gscore>  (377) 
-4.34039

>  <r_i_glide_lipo>  (377) 
-0.112131

>  <r_i_glide_hbond>  (377) 
-0.338049

>  <r_i_glide_metal>  (377) 
-0

>  <r_i_glide_rewards>  (377) 
-1.39979

>  <r_i_glide_evdw>  (377) 
-21.3055

>  <r_i_glide_ecoul>  (377) 
-10.9535

>  <r_i_glide_erotb>  (377) 
0.6319

>  <r_i_glide_esite>  (377) 
-0.414017

>  <r_i_glide_emodel>  (377) 
-41.0149

>  <r_i_glide_energy>  (377) 
-32.259

>  <r_i_glide_einternal>  (377) 
4.65742

>  <r_i_glide_intrahb_reward>  (377) 
-0

>  <i_i_glide_confnum>  (377) 
4

>  <i_i_glide_posenum>  (377) 
14

>  <r_i_glide_eff_state_penalty>  (377) 
0

>  <ligand_id>  (377) 
101

>  <original_smiles>  (377) 
N=c1c(C(N)=O)n[nH]n1CC(=O)Nc1cccc(Cl)c1

>  <smiles>  (377) 
[H]c1c([H])c(Cl)c([H])c(N([H])C(=O)C([H])([H])n2nnc(C(=O)N([H])[H])c2N([H])[H])c1[H]

$$$$
101:0:1
     RDKit          3D

 31 32  0  0  1  0  0  0  0  0999 V2000
    0.8843    1.7556    1.7195 N   0  0  0  0  0  0  0  0  0  0  0  0
    0.2033    1.0446    2.7023 C   0  0  0  0  0  0  0  0  0  0  0  0
    0.3948   -0.1804    3.2753 C   0  0  0  0  0  0  0  0  0  0  0  0
    1.4973   -1.1471    2.9737 C   0  0  0  0  0  0  0  0  0  0  0  0
    1.8541   -1.2242    1.6888 N   0  0  0  0  0  0  0  0  0  0  0  0
    2.0176   -1.8586    3.8307 O   0  0  0  0  0  0  0  0  0  0  0  0
   -0.6017   -0.3758    4.2384 N   0  0  0  0  0  0  0  0  0  0  0  0
   -1.3856    0.6638    4.2629 N   0  0  0  0  0  0  0  0  0  0  0  0
   -0.9221    1.5402    3.3328 N   0  0  0  0  0  0  0  0  0  0  0  0
   -1.6055    2.8069    3.1250 C   0  0  0  0  0  0  0  0  0  0  0  0
   -1.0961    3.8798    4.0838 C   0  0  0  0  0  0  0  0  0  0  0  0
   -1.6984    4.0642    5.1379 O   0  0  0  0  0  0  0  0  0  0  0  0
   -0.0316    4.5907    3.6624 N   0  0  0  0  0  0  0  0  0  0  0  0
    0.7407    5.5859    4.3250 C   0  0  0  0  0  0  0  0  0  0  0  0
    0.3757    6.1915    5.5530 C   0  0  0  0  0  0  0  0  0  0  0  0
    1.1954    7.1821    6.1279 C   0  0  0  0  0  0  0  0  0  0  0  0
    2.3874    7.5739    5.4857 C   0  0  0  0  0  0  0  0  0  0  0  0
    2.7617    6.9731    4.2677 C   0  0  0  0  0  0  0  0  0  0  0  0
    4.2371    7.4319    3.4979 Cl  0  0  0  0  0  0  0  0  0  0  0  0
    1.9377    5.9876    3.6872 C   0  0  0  0  0  0  0  0  0  0  0  0
    0.6142    2.6744    1.3779 H   0  0  0  0  0  0  0  0  0  0  0  0
    1.7223    1.4174    1.2788 H   0  0  0  0  0  0  0  0  0  0  0  0
    2.5851   -1.8645    1.4023 H   0  0  0  0  0  0  0  0  0  0  0  0
    1.3534   -0.6944    0.9760 H   0  0  0  0  0  0  0  0  0  0  0  0
   -2.6802    2.6724    3.2606 H   0  0  0  0  0  0  0  0  0  0  0  0
   -1.4537    3.1328    2.0960 H   0  0  0  0  0  0  0  0  0  0  0  0
    0.2671    4.3758    2.7133 H   0  0  0  0  0  0  0  0  0  0  0  0
   -0.5283    5.9249    6.0773 H   0  0  0  0  0  0  0  0  0  0  0  0
    0.9069    7.6389    7.0650 H   0  0  0  0  0  0  0  0  0  0  0  0
    3.0168    8.3298    5.9338 H   0  0  0  0  0  0  0  0  0  0  0  0
    2.2301    5.5334    2.7492 H   0  0  0  0  0  0  0  0  0  0  0  0
  1  2  1  0
  1 22  1  0
  1 21  1  0
  2  3  2  0
  2  9  1  0
  3  4  1  0
  3  7  1  0
  4  5  1  0
  4  6  2  0
  5 23  1  0
  5 24  1  0
  7  8  2  0
  8  9  1  0
  9 10  1  0
 10 11  1  0
 10 25  1  0
 10 26  1  0
 11 12  2  0
 11 13  1  0
 13 14  1  0
 13 27  1  0
 14 20  1  0
 14 15  2  0
 15 16  1  0
 15 28  1  0
 16 17  2  0
 16 29  1  0
 17 18  1  0
 17 30  1  0
 18 19  1  0
 18 20  2  0
 20 31  1  0
M  END
>  <i_m_ct_stereo_status>  (378) 
1

>  <s_m_source_file>  (378) 
/var/tmp/pbs.5076255.sched01/tmpo_pg7vmn/129owyy42_r.sdf

>  <i_m_source_file_index>  (378) 
18

>  <i_lp_mmshare_version>  (378) 
48012

>  <i_f3d_flags>  (378) 
0

>  <s_epik_input>  (378) 
W0hdL049YzEvYyhDKD1PKVtOSDJdKW5bbkhdbjFbQ0gyXUMoPU8pW05IXWMyW2NIXVtjSF1bY0hdYyhDbClbY0hdMg==

>  <s_epik_cmdline>  (378) 
J2VwaWtfcHl0aG9uJywgJy1waHQnLCAnMi4wJywgJy1waCcsICc3LjAnLCAnLXRuJywgJzgnLCAnLW1hJywgJzIwMCcsICctaW1hZScsICc8aW5maWxlLm1hZT4nLCAnLW9tYWUnLCAnPG91dGZpbGUubWFlPic=

>  <r_lp_tautomer_probability>  (378) 
1

>  <r_epik_Ionization_Penalty>  (378) 
0.000388663

>  <r_epik_Ionization_Penalty_Charging>  (378) 
0

>  <r_epik_Ionization_Penalty_Neutral>  (378) 
0.000388663

>  <r_epik_State_Penalty>  (378) 
0.000341243

>  <r_epik_Charging_Adjusted_Penalty>  (378) 
0.000341243

>  <i_epik_Tot_Q>  (378) 
0

>  <i_epik_Tot_abs_Q>  (378) 
0

>  <s_lp_Force_Field>  (378) 
OPLS3e

>  <r_lp_Energy>  (378) 
13.7925

>  <b_lp_Chiralities_Consistent>  (378) 
1

>  <s_lp_Variant>  (378) 
101:0-1

>  <s_i_glide_gridfile>  (378) 
pfpi4k_grid

>  <i_i_glide_lignum>  (378) 
18

>  <i_i_glide_rotatable_bonds>  (378) 
5

>  <r_i_docking_score>  (378) 
-4.2236

>  <r_i_glide_ligand_efficiency>  (378) 
-0.21118

>  <r_i_glide_ligand_efficiency_sa>  (378) 
-0.573231

>  <r_i_glide_ligand_efficiency_ln>  (378) 
-1.05703

>  <r_i_glide_gscore>  (378) 
-4.2236

>  <r_i_glide_lipo>  (378) 
-0.142203

>  <r_i_glide_hbond>  (378) 
-0.402966

>  <r_i_glide_metal>  (378) 
-0

>  <r_i_glide_rewards>  (378) 
-1.39979

>  <r_i_glide_evdw>  (378) 
-22.4075

>  <r_i_glide_ecoul>  (378) 
-9.04638

>  <r_i_glide_erotb>  (378) 
0.6319

>  <r_i_glide_esite>  (378) 
-0.433208

>  <r_i_glide_emodel>  (378) 
-41.996

>  <r_i_glide_energy>  (378) 
-31.4539

>  <r_i_glide_einternal>  (378) 
0.906454

>  <r_i_glide_intrahb_reward>  (378) 
-0

>  <i_i_glide_confnum>  (378) 
4

>  <i_i_glide_posenum>  (378) 
24

>  <r_i_glide_eff_state_penalty>  (378) 
0

>  <ligand_id>  (378) 
101

>  <original_smiles>  (378) 
N=c1c(C(N)=O)n[nH]n1CC(=O)Nc1cccc(Cl)c1

>  <smiles>  (378) 
[H]c1c([H])c(Cl)c([H])c(N([H])C(=O)C([H])([H])n2nnc(C(=O)N([H])[H])c2N([H])[H])c1[H]

$$$$
101:0:2
     RDKit          3D

 31 32  0  0  1  0  0  0  0  0999 V2000
    0.3281    0.5017    2.5381 N   0  0  0  0  0  0  0  0  0  0  0  0
   -0.4109    0.5507    3.7249 C   0  0  0  0  0  0  0  0  0  0  0  0
   -0.6705   -0.3400    4.7481 C   0  0  0  0  0  0  0  0  0  0  0  0
   -0.1890   -1.7645    4.8929 C   0  0  0  0  0  0  0  0  0  0  0  0
    0.8541   -2.0740    4.1274 N   0  0  0  0  0  0  0  0  0  0  0  0
   -0.6913   -2.5713    5.6832 O   0  0  0  0  0  0  0  0  0  0  0  0
   -1.5465    0.2698    5.6671 N   0  0  0  0  0  0  0  0  0  0  0  0
   -1.7755    1.4828    5.2832 N   0  0  0  0  0  0  0  0  0  0  0  0
   -1.1129    1.6797    4.1056 N   0  0  0  0  0  0  0  0  0  0  0  0
   -1.2517    2.9427    3.3888 C   0  0  0  0  0  0  0  0  0  0  0  0
   -0.7226    4.1329    4.1980 C   0  0  0  0  0  0  0  0  0  0  0  0
   -1.2642    4.4201    5.2604 O   0  0  0  0  0  0  0  0  0  0  0  0
    0.3370    4.7776    3.6671 N   0  0  0  0  0  0  0  0  0  0  0  0
    1.1402    5.8142    4.2260 C   0  0  0  0  0  0  0  0  0  0  0  0
    0.7647    6.6090    5.3344 C   0  0  0  0  0  0  0  0  0  0  0  0
    1.6161    7.6319    5.7996 C   0  0  0  0  0  0  0  0  0  0  0  0
    2.8465    7.8692    5.1601 C   0  0  0  0  0  0  0  0  0  0  0  0
    3.2351    7.0736    4.0682 C   0  0  0  0  0  0  0  0  0  0  0  0
    4.7479    7.3503    3.2897 Cl  0  0  0  0  0  0  0  0  0  0  0  0
    2.3821    6.0546    3.6020 C   0  0  0  0  0  0  0  0  0  0  0  0
    0.3523    1.2572    1.8694 H   0  0  0  0  0  0  0  0  0  0  0  0
    0.7892   -0.2984    2.1391 H   0  0  0  0  0  0  0  0  0  0  0  0
    1.2704   -2.9894    4.1456 H   0  0  0  0  0  0  0  0  0  0  0  0
    1.2430   -1.3406    3.5582 H   0  0  0  0  0  0  0  0  0  0  0  0
   -2.3043    3.1070    3.1390 H   0  0  0  0  0  0  0  0  0  0  0  0
   -0.7148    2.8776    2.4388 H   0  0  0  0  0  0  0  0  0  0  0  0
    0.6060    4.4561    2.7410 H   0  0  0  0  0  0  0  0  0  0  0  0
   -0.1751    6.4753    5.8386 H   0  0  0  0  0  0  0  0  0  0  0  0
    1.3155    8.2464    6.6341 H   0  0  0  0  0  0  0  0  0  0  0  0
    3.4985    8.6558    5.5086 H   0  0  0  0  0  0  0  0  0  0  0  0
    2.6752    5.4646    2.7473 H   0  0  0  0  0  0  0  0  0  0  0  0
  1  2  1  0
  1 22  1  0
  1 21  1  0
  2  3  2  0
  2  9  1  0
  3  4  1  0
  3  7  1  0
  4  5  1  0
  4  6  2  0
  5 23  1  0
  5 24  1  0
  7  8  2  0
  8  9  1  0
  9 10  1  0
 10 11  1  0
 10 25  1  0
 10 26  1  0
 11 12  2  0
 11 13  1  0
 13 14  1  0
 13 27  1  0
 14 20  1  0
 14 15  2  0
 15 16  1  0
 15 28  1  0
 16 17  2  0
 16 29  1  0
 17 18  1  0
 17 30  1  0
 18 19  1  0
 18 20  2  0
 20 31  1  0
M  END
>  <i_m_ct_stereo_status>  (379) 
1

>  <s_m_source_file>  (379) 
/var/tmp/pbs.5076255.sched01/tmpo_pg7vmn/129owyy42_r.sdf

>  <i_m_source_file_index>  (379) 
18

>  <i_lp_mmshare_version>  (379) 
48012

>  <i_f3d_flags>  (379) 
0

>  <s_epik_input>  (379) 
W0hdL049YzEvYyhDKD1PKVtOSDJdKW5bbkhdbjFbQ0gyXUMoPU8pW05IXWMyW2NIXVtjSF1bY0hdYyhDbClbY0hdMg==

>  <s_epik_cmdline>  (379) 
J2VwaWtfcHl0aG9uJywgJy1waHQnLCAnMi4wJywgJy1waCcsICc3LjAnLCAnLXRuJywgJzgnLCAnLW1hJywgJzIwMCcsICctaW1hZScsICc8aW5maWxlLm1hZT4nLCAnLW9tYWUnLCAnPG91dGZpbGUubWFlPic=

>  <r_lp_tautomer_probability>  (379) 
1

>  <r_epik_Ionization_Penalty>  (379) 
0.000388663

>  <r_epik_Ionization_Penalty_Charging>  (379) 
0

>  <r_epik_Ionization_Penalty_Neutral>  (379) 
0.000388663

>  <r_epik_State_Penalty>  (379) 
0.000341243

>  <r_epik_Charging_Adjusted_Penalty>  (379) 
0.000341243

>  <i_epik_Tot_Q>  (379) 
0

>  <i_epik_Tot_abs_Q>  (379) 
0

>  <s_lp_Force_Field>  (379) 
OPLS3e

>  <r_lp_Energy>  (379) 
13.7925

>  <b_lp_Chiralities_Consistent>  (379) 
1

>  <s_lp_Variant>  (379) 
101:0-1

>  <s_i_glide_gridfile>  (379) 
pfpi4k_grid

>  <i_i_glide_lignum>  (379) 
18

>  <i_i_glide_rotatable_bonds>  (379) 
5

>  <r_i_docking_score>  (379) 
-3.74465

>  <r_i_glide_ligand_efficiency>  (379) 
-0.187233

>  <r_i_glide_ligand_efficiency_sa>  (379) 
-0.508227

>  <r_i_glide_ligand_efficiency_ln>  (379) 
-0.937162

>  <r_i_glide_gscore>  (379) 
-3.74465

>  <r_i_glide_lipo>  (379) 
-0.129541

>  <r_i_glide_hbond>  (379) 
-0.141574

>  <r_i_glide_metal>  (379) 
-0

>  <r_i_glide_rewards>  (379) 
-1.39979

>  <r_i_glide_evdw>  (379) 
-24.7261

>  <r_i_glide_ecoul>  (379) 
-7.60258

>  <r_i_glide_erotb>  (379) 
0.6319

>  <r_i_glide_esite>  (379) 
-0.328951

>  <r_i_glide_emodel>  (379) 
-40.824

>  <r_i_glide_energy>  (379) 
-32.3286

>  <r_i_glide_einternal>  (379) 
2.24666

>  <r_i_glide_intrahb_reward>  (379) 
-0

>  <i_i_glide_confnum>  (379) 
4

>  <i_i_glide_posenum>  (379) 
29

>  <r_i_glide_eff_state_penalty>  (379) 
0

>  <ligand_id>  (379) 
101

>  <original_smiles>  (379) 
N=c1c(C(N)=O)n[nH]n1CC(=O)Nc1cccc(Cl)c1

>  <smiles>  (379) 
[H]c1c([H])c(Cl)c([H])c(N([H])C(=O)C([H])([H])n2nnc(C(=O)N([H])[H])c2N([H])[H])c1[H]

$$$$
102:0:0
     RDKit          3D

 41 45  0  0  1  0  0  0  0  0999 V2000
    9.0677   -5.1179    1.6682 N   0  0  0  0  0  0  0  0  0  0  0  0
    7.7638   -5.0350    1.1737 C   0  0  0  0  0  0  0  0  0  0  0  0
    6.8669   -5.9784    1.5291 N   0  0  0  0  0  0  0  0  0  0  0  0
    5.6056   -5.9254    1.0459 C   0  0  0  0  0  0  0  0  0  0  0  0
    4.7421   -6.9651    1.4723 N   0  0  0  0  0  0  0  0  0  0  0  0
    5.0950   -8.1969    1.8922 C   0  0  0  0  0  0  0  0  0  0  0  0
    4.1115   -9.0160    2.2497 N   0  0  0  0  0  0  0  0  0  0  0  0
    2.9966   -8.2257    2.0333 C   0  0  0  0  0  0  0  0  0  0  0  0
    1.6227   -8.4954    2.2167 C   0  0  0  0  0  0  0  0  0  0  0  0
    0.6821   -7.4933    1.9204 C   0  0  0  0  0  0  0  0  0  0  0  0
   -0.9878   -7.8435    2.1914 Cl  0  0  0  0  0  0  0  0  0  0  0  0
    1.0233   -6.2769    1.4604 N   0  0  0  0  0  0  0  0  0  0  0  0
    2.3397   -5.9940    1.2825 C   0  0  0  0  0  0  0  0  0  0  0  0
    3.3506   -6.9400    1.5531 C   0  0  0  0  0  0  0  0  0  0  0  0
    5.1104   -5.0032    0.2187 N   0  0  0  0  0  0  0  0  0  0  0  0
    6.0308   -4.0633   -0.1329 C   0  0  0  0  0  0  0  0  0  0  0  0
    7.3768   -4.0100    0.3009 C   0  0  0  0  0  0  0  0  0  0  0  0
    7.9382   -2.8663   -0.3530 C   0  0  0  0  0  0  0  0  0  0  0  0
    7.0621   -2.2733   -1.1231 N   0  0  0  0  0  0  0  0  0  0  0  0
    5.8960   -2.9729   -0.9842 N   0  0  0  0  0  0  0  0  0  0  0  0
    4.7080   -2.5656   -1.7441 C   0  0  0  0  0  0  0  0  0  0  0  0
    4.6121   -3.3312   -3.0768 C   0  0  0  0  0  0  0  0  0  0  0  0
    3.4322   -2.8079   -3.9013 C   0  0  0  0  0  0  0  0  0  0  0  0
    3.6023   -1.4189   -4.1207 O   0  0  0  0  0  0  0  0  0  0  0  0
    3.5124   -0.6680   -2.9190 C   0  0  0  0  0  0  0  0  0  0  0  0
    4.6654   -1.0413   -1.9978 C   0  0  0  0  0  0  0  0  0  0  0  0
    9.7034   -4.3371    1.5670 H   0  0  0  0  0  0  0  0  0  0  0  0
    6.1318   -8.5000    1.9282 H   0  0  0  0  0  0  0  0  0  0  0  0
    1.3096   -9.4625    2.5752 H   0  0  0  0  0  0  0  0  0  0  0  0
    2.5815   -5.0038    0.9316 H   0  0  0  0  0  0  0  0  0  0  0  0
    8.9418   -2.4747   -0.2971 H   0  0  0  0  0  0  0  0  0  0  0  0
    3.8312   -2.8260   -1.1432 H   0  0  0  0  0  0  0  0  0  0  0  0
    5.5419   -3.2256   -3.6406 H   0  0  0  0  0  0  0  0  0  0  0  0
    4.4964   -4.3970   -2.8866 H   0  0  0  0  0  0  0  0  0  0  0  0
    3.4069   -3.3174   -4.8573 H   0  0  0  0  0  0  0  0  0  0  0  0
    2.4713   -2.9958   -3.4229 H   0  0  0  0  0  0  0  0  0  0  0  0
    3.5957    0.3877   -3.1604 H   0  0  0  0  0  0  0  0  0  0  0  0
    2.5596   -0.8268   -2.4202 H   0  0  0  0  0  0  0  0  0  0  0  0
    4.6136   -0.4991   -1.0501 H   0  0  0  0  0  0  0  0  0  0  0  0
    5.5637   -0.7061   -2.5070 H   0  0  0  0  0  0  0  0  0  0  0  0
    9.3310   -5.8255    2.3440 H   0  0  0  0  0  0  0  0  0  0  0  0
  1  2  1  0
  1 27  1  0
  1 41  1  0
  2 17  2  0
  2  3  1  0
  3  4  2  0
  4  5  1  0
  4 15  1  0
  5 14  1  0
  5  6  1  0
  6  7  2  0
  6 28  1  0
  7  8  1  0
  8 14  2  0
  8  9  1  0
  9 10  2  0
  9 29  1  0
 10 11  1  0
 10 12  1  0
 12 13  2  0
 13 14  1  0
 13 30  1  0
 15 16  2  0
 16 20  1  0
 16 17  1  0
 17 18  1  0
 18 19  2  0
 18 31  1  0
 19 20  1  0
 20 21  1  0
 21 26  1  0
 21 22  1  0
 21 32  1  0
 22 23  1  0
 22 33  1  0
 22 34  1  0
 23 24  1  0
 23 35  1  0
 23 36  1  0
 24 25  1  0
 25 26  1  0
 25 37  1  0
 25 38  1  0
 26 39  1  0
 26 40  1  0
M  END
>  <i_m_ct_stereo_status>  (380) 
1

>  <s_m_source_file>  (380) 
/var/tmp/pbs.5076255.sched01/tmpo_pg7vmn/129owyy42_r.sdf

>  <i_m_source_file_index>  (380) 
19

>  <i_lp_mmshare_version>  (380) 
48012

>  <i_f3d_flags>  (380) 
0

>  <s_epik_input>  (380) 
W2NIXTFjKENsKW5bY0hdYyhjMTIpbihbY0hdbjIpLWMobjMpW25IXVxjKD1OXFtIXSljKGMzNClbY0hdbm40W0NIXTVbQ0gyXVtDSDJdT1tDSDJdW0NIMl01

>  <s_epik_cmdline>  (380) 
J2VwaWtfcHl0aG9uJywgJy1waHQnLCAnMi4wJywgJy1waCcsICc3LjAnLCAnLXRuJywgJzgnLCAnLW1hJywgJzIwMCcsICctaW1hZScsICc8aW5maWxlLm1hZT4nLCAnLW9tYWUnLCAnPG91dGZpbGUubWFlPic=

>  <r_lp_tautomer_probability>  (380) 
1

>  <r_epik_Ionization_Penalty>  (380) 
5.31529e-06

>  <r_epik_Ionization_Penalty_Charging>  (380) 
3.29174e-06

>  <r_epik_Ionization_Penalty_Neutral>  (380) 
2.02355e-06

>  <r_epik_State_Penalty>  (380) 
-0

>  <r_epik_Charging_Adjusted_Penalty>  (380) 
3.29174e-06

>  <i_epik_Tot_Q>  (380) 
0

>  <i_epik_Tot_abs_Q>  (380) 
0

>  <s_lp_Force_Field>  (380) 
OPLS3e

>  <r_lp_Energy>  (380) 
13.7278

>  <b_lp_Chiralities_Consistent>  (380) 
1

>  <s_lp_Variant>  (380) 
102:0-1

>  <s_i_glide_gridfile>  (380) 
pfpi4k_grid

>  <i_i_glide_lignum>  (380) 
19

>  <i_i_glide_rotatable_bonds>  (380) 
2

>  <r_i_docking_score>  (380) 
-4.86429

>  <r_i_glide_ligand_efficiency>  (380) 
-0.187088

>  <r_i_glide_ligand_efficiency_sa>  (380) 
-0.554248

>  <r_i_glide_ligand_efficiency_ln>  (380) 
-1.14236

>  <r_i_glide_gscore>  (380) 
-4.86429

>  <r_i_glide_lipo>  (380) 
-0.657145

>  <r_i_glide_hbond>  (380) 
-0.37683

>  <r_i_glide_metal>  (380) 
-0

>  <r_i_glide_rewards>  (380) 
-1.27397

>  <r_i_glide_evdw>  (380) 
-39.3551

>  <r_i_glide_ecoul>  (380) 
-5.50963

>  <r_i_glide_erotb>  (380) 
0.280691

>  <r_i_glide_esite>  (380) 
-0.0428363

>  <r_i_glide_emodel>  (380) 
-57.7252

>  <r_i_glide_energy>  (380) 
-44.8648

>  <r_i_glide_einternal>  (380) 
1.45281

>  <r_i_glide_intrahb_reward>  (380) 
-0

>  <i_i_glide_confnum>  (380) 
3

>  <i_i_glide_posenum>  (380) 
1

>  <r_i_glide_eff_state_penalty>  (380) 
0

>  <ligand_id>  (380) 
102

>  <original_smiles>  (380) 
N=c1[nH]c(-n2cnc3cc(Cl)ncc32)nc2c1cnn2C1CCOCC1

>  <smiles>  (380) 
[H]c1c(Cl)nc([H])c2c1nc([H])n2-c1nc(N([H])[H])c2c([H])nn(C3([H])C([H])([H])C([H])([H])OC([H])([H])C3([H])[H])c2n1

$$$$
102:0:1
     RDKit          3D

 41 45  0  0  1  0  0  0  0  0999 V2000
    0.4975    1.7433    1.6850 N   0  0  0  0  0  0  0  0  0  0  0  0
    0.1532    1.3158    2.9629 C   0  0  0  0  0  0  0  0  0  0  0  0
    0.3344    0.0167    3.2969 N   0  0  0  0  0  0  0  0  0  0  0  0
    0.0368   -0.4238    4.5306 C   0  0  0  0  0  0  0  0  0  0  0  0
    0.2707   -1.8007    4.7998 N   0  0  0  0  0  0  0  0  0  0  0  0
    0.6428   -2.7523    3.9151 C   0  0  0  0  0  0  0  0  0  0  0  0
    0.7864   -3.9994    4.3667 N   0  0  0  0  0  0  0  0  0  0  0  0
    0.4939   -3.8369    5.7069 C   0  0  0  0  0  0  0  0  0  0  0  0
    0.4615   -4.7691    6.7626 C   0  0  0  0  0  0  0  0  0  0  0  0
    0.1244   -4.3365    8.0570 C   0  0  0  0  0  0  0  0  0  0  0  0
    0.0988   -5.4806    9.3391 Cl  0  0  0  0  0  0  0  0  0  0  0  0
   -0.1830   -3.0492    8.3393 N   0  0  0  0  0  0  0  0  0  0  0  0
   -0.1394   -2.1410    7.3395 C   0  0  0  0  0  0  0  0  0  0  0  0
    0.1740   -2.4868    6.0151 C   0  0  0  0  0  0  0  0  0  0  0  0
   -0.4688    0.3121    5.5316 N   0  0  0  0  0  0  0  0  0  0  0  0
   -0.6406    1.6139    5.1843 C   0  0  0  0  0  0  0  0  0  0  0  0
   -0.3610    2.1910    3.9292 C   0  0  0  0  0  0  0  0  0  0  0  0
   -0.7052    3.5724    4.0505 C   0  0  0  0  0  0  0  0  0  0  0  0
   -1.1538    3.8448    5.2519 N   0  0  0  0  0  0  0  0  0  0  0  0
   -1.1136    2.6665    5.9521 N   0  0  0  0  0  0  0  0  0  0  0  0
   -1.5241    2.6537    7.3522 C   0  0  0  0  0  0  0  0  0  0  0  0
   -2.9606    3.1677    7.5141 C   0  0  0  0  0  0  0  0  0  0  0  0
   -3.3425    3.3081    8.9924 C   0  0  0  0  0  0  0  0  0  0  0  0
   -2.3979    4.1464    9.6433 O   0  0  0  0  0  0  0  0  0  0  0  0
   -1.0871    3.5927    9.6538 C   0  0  0  0  0  0  0  0  0  0  0  0
   -0.5638    3.4853    8.2151 C   0  0  0  0  0  0  0  0  0  0  0  0
    0.3158    2.7056    1.3627 H   0  0  0  0  0  0  0  0  0  0  0  0
    0.7925   -2.5206    2.8682 H   0  0  0  0  0  0  0  0  0  0  0  0
    0.7071   -5.7986    6.5764 H   0  0  0  0  0  0  0  0  0  0  0  0
   -0.3787   -1.1285    7.6156 H   0  0  0  0  0  0  0  0  0  0  0  0
   -0.6330    4.3587    3.3082 H   0  0  0  0  0  0  0  0  0  0  0  0
   -1.4914    1.6228    7.7037 H   0  0  0  0  0  0  0  0  0  0  0  0
   -3.0292    4.1439    7.0540 H   0  0  0  0  0  0  0  0  0  0  0  0
   -3.6659    2.5161    6.9965 H   0  0  0  0  0  0  0  0  0  0  0  0
   -4.3330    3.7516    9.0794 H   0  0  0  0  0  0  0  0  0  0  0  0
   -3.3833    2.3379    9.4843 H   0  0  0  0  0  0  0  0  0  0  0  0
   -0.4370    4.2447   10.2307 H   0  0  0  0  0  0  0  0  0  0  0  0
   -1.0872    2.6208   10.1488 H   0  0  0  0  0  0  0  0  0  0  0  0
    0.4336    3.0408    8.2058 H   0  0  0  0  0  0  0  0  0  0  0  0
   -0.4630    4.4891    7.8038 H   0  0  0  0  0  0  0  0  0  0  0  0
    0.7735    1.0876    0.9664 H   0  0  0  0  0  0  0  0  0  0  0  0
  1  2  1  0
  1 27  1  0
  1 41  1  0
  2 17  2  0
  2  3  1  0
  3  4  2  0
  4  5  1  0
  4 15  1  0
  5 14  1  0
  5  6  1  0
  6  7  2  0
  6 28  1  0
  7  8  1  0
  8 14  2  0
  8  9  1  0
  9 10  2  0
  9 29  1  0
 10 11  1  0
 10 12  1  0
 12 13  2  0
 13 14  1  0
 13 30  1  0
 15 16  2  0
 16 20  1  0
 16 17  1  0
 17 18  1  0
 18 19  2  0
 18 31  1  0
 19 20  1  0
 20 21  1  0
 21 26  1  0
 21 22  1  0
 21 32  1  0
 22 23  1  0
 22 33  1  0
 22 34  1  0
 23 24  1  0
 23 35  1  0
 23 36  1  0
 24 25  1  0
 25 26  1  0
 25 37  1  0
 25 38  1  0
 26 39  1  0
 26 40  1  0
M  END
>  <i_m_ct_stereo_status>  (381) 
1

>  <s_m_source_file>  (381) 
/var/tmp/pbs.5076255.sched01/tmpo_pg7vmn/129owyy42_r.sdf

>  <i_m_source_file_index>  (381) 
19

>  <i_lp_mmshare_version>  (381) 
48012

>  <i_f3d_flags>  (381) 
0

>  <s_epik_input>  (381) 
W2NIXTFjKENsKW5bY0hdYyhjMTIpbihbY0hdbjIpLWMobjMpW25IXVxjKD1OXFtIXSljKGMzNClbY0hdbm40W0NIXTVbQ0gyXVtDSDJdT1tDSDJdW0NIMl01

>  <s_epik_cmdline>  (381) 
J2VwaWtfcHl0aG9uJywgJy1waHQnLCAnMi4wJywgJy1waCcsICc3LjAnLCAnLXRuJywgJzgnLCAnLW1hJywgJzIwMCcsICctaW1hZScsICc8aW5maWxlLm1hZT4nLCAnLW9tYWUnLCAnPG91dGZpbGUubWFlPic=

>  <r_lp_tautomer_probability>  (381) 
1

>  <r_epik_Ionization_Penalty>  (381) 
5.31529e-06

>  <r_epik_Ionization_Penalty_Charging>  (381) 
3.29174e-06

>  <r_epik_Ionization_Penalty_Neutral>  (381) 
2.02355e-06

>  <r_epik_State_Penalty>  (381) 
-0

>  <r_epik_Charging_Adjusted_Penalty>  (381) 
3.29174e-06

>  <i_epik_Tot_Q>  (381) 
0

>  <i_epik_Tot_abs_Q>  (381) 
0

>  <s_lp_Force_Field>  (381) 
OPLS3e

>  <r_lp_Energy>  (381) 
13.7278

>  <b_lp_Chiralities_Consistent>  (381) 
1

>  <s_lp_Variant>  (381) 
102:0-1

>  <s_i_glide_gridfile>  (381) 
pfpi4k_grid

>  <i_i_glide_lignum>  (381) 
19

>  <i_i_glide_rotatable_bonds>  (381) 
2

>  <r_i_docking_score>  (381) 
-3.3581

>  <r_i_glide_ligand_efficiency>  (381) 
-0.129158

>  <r_i_glide_ligand_efficiency_sa>  (381) 
-0.382629

>  <r_i_glide_ligand_efficiency_ln>  (381) 
-0.788638

>  <r_i_glide_gscore>  (381) 
-3.3581

>  <r_i_glide_lipo>  (381) 
-0.190492

>  <r_i_glide_hbond>  (381) 
-0.262072

>  <r_i_glide_metal>  (381) 
-0

>  <r_i_glide_rewards>  (381) 
-0.941964

>  <r_i_glide_evdw>  (381) 
-24.2815

>  <r_i_glide_ecoul>  (381) 
-6.19994

>  <r_i_glide_erotb>  (381) 
0.280691

>  <r_i_glide_esite>  (381) 
-0.100191

>  <r_i_glide_emodel>  (381) 
-39.8271

>  <r_i_glide_energy>  (381) 
-30.4815

>  <r_i_glide_einternal>  (381) 
0.0261268

>  <r_i_glide_intrahb_reward>  (381) 
-0

>  <i_i_glide_confnum>  (381) 
3

>  <i_i_glide_posenum>  (381) 
34

>  <r_i_glide_eff_state_penalty>  (381) 
0

>  <ligand_id>  (381) 
102

>  <original_smiles>  (381) 
N=c1[nH]c(-n2cnc3cc(Cl)ncc32)nc2c1cnn2C1CCOCC1

>  <smiles>  (381) 
[H]c1c(Cl)nc([H])c2c1nc([H])n2-c1nc(N([H])[H])c2c([H])nn(C3([H])C([H])([H])C([H])([H])OC([H])([H])C3([H])[H])c2n1

$$$$
102:0:2
     RDKit          3D

 41 45  0  0  1  0  0  0  0  0999 V2000
    5.3660   -2.5342    4.8219 N   0  0  0  0  0  0  0  0  0  0  0  0
    4.7026   -1.8810    3.7842 C   0  0  0  0  0  0  0  0  0  0  0  0
    4.0125   -0.7520    4.0568 N   0  0  0  0  0  0  0  0  0  0  0  0
    3.3332   -0.1287    3.0773 C   0  0  0  0  0  0  0  0  0  0  0  0
    2.6360    1.0405    3.4449 N   0  0  0  0  0  0  0  0  0  0  0  0
    3.1281    2.0931    4.1294 C   0  0  0  0  0  0  0  0  0  0  0  0
    2.2982    3.1067    4.3676 N   0  0  0  0  0  0  0  0  0  0  0  0
    1.1354    2.6525    3.7696 C   0  0  0  0  0  0  0  0  0  0  0  0
   -0.1411    3.2384    3.6834 C   0  0  0  0  0  0  0  0  0  0  0  0
   -1.1702    2.5448    3.0182 C   0  0  0  0  0  0  0  0  0  0  0  0
   -2.7156    3.3013    2.9032 Cl  0  0  0  0  0  0  0  0  0  0  0  0
   -0.9952    1.3213    2.4790 N   0  0  0  0  0  0  0  0  0  0  0  0
    0.2266    0.7413    2.5403 C   0  0  0  0  0  0  0  0  0  0  0  0
    1.3079    1.3694    3.1861 C   0  0  0  0  0  0  0  0  0  0  0  0
    3.2581   -0.4933    1.7937 N   0  0  0  0  0  0  0  0  0  0  0  0
    3.9795   -1.6181    1.5314 C   0  0  0  0  0  0  0  0  0  0  0  0
    4.7278   -2.3671    2.4677 C   0  0  0  0  0  0  0  0  0  0  0  0
    5.3015   -3.4490    1.7255 C   0  0  0  0  0  0  0  0  0  0  0  0
    4.9803   -3.3792    0.4594 N   0  0  0  0  0  0  0  0  0  0  0  0
    4.1639   -2.2937    0.3310 N   0  0  0  0  0  0  0  0  0  0  0  0
    3.6500   -1.9578   -0.9895 C   0  0  0  0  0  0  0  0  0  0  0  0
    3.0453   -3.1819   -1.7083 C   0  0  0  0  0  0  0  0  0  0  0  0
    2.6404   -2.8456   -3.1456 C   0  0  0  0  0  0  0  0  0  0  0  0
    3.7511   -2.3019   -3.8444 O   0  0  0  0  0  0  0  0  0  0  0  0
    4.1901   -1.0751   -3.2774 C   0  0  0  0  0  0  0  0  0  0  0  0
    4.7281   -1.3098   -1.8599 C   0  0  0  0  0  0  0  0  0  0  0  0
    5.9230   -3.3604    4.6477 H   0  0  0  0  0  0  0  0  0  0  0  0
    4.1607    2.1162    4.4502 H   0  0  0  0  0  0  0  0  0  0  0  0
   -0.3062    4.2202    4.0912 H   0  0  0  0  0  0  0  0  0  0  0  0
    0.3316   -0.2344    2.0959 H   0  0  0  0  0  0  0  0  0  0  0  0
    5.9391   -4.2552    2.0567 H   0  0  0  0  0  0  0  0  0  0  0  0
    2.8740   -1.2132   -0.8478 H   0  0  0  0  0  0  0  0  0  0  0  0
    3.7723   -3.9933   -1.7542 H   0  0  0  0  0  0  0  0  0  0  0  0
    2.1858   -3.5567   -1.1498 H   0  0  0  0  0  0  0  0  0  0  0  0
    2.2991   -3.7466   -3.6499 H   0  0  0  0  0  0  0  0  0  0  0  0
    1.8148   -2.1414   -3.1563 H   0  0  0  0  0  0  0  0  0  0  0  0
    4.9877   -0.6889   -3.9014 H   0  0  0  0  0  0  0  0  0  0  0  0
    3.3893   -0.3344   -3.2871 H   0  0  0  0  0  0  0  0  0  0  0  0
    5.0400   -0.3637   -1.4126 H   0  0  0  0  0  0  0  0  0  0  0  0
    5.6036   -1.9576   -1.9006 H   0  0  0  0  0  0  0  0  0  0  0  0
    5.3805   -2.1663    5.7610 H   0  0  0  0  0  0  0  0  0  0  0  0
  1  2  1  0
  1 27  1  0
  1 41  1  0
  2 17  2  0
  2  3  1  0
  3  4  2  0
  4  5  1  0
  4 15  1  0
  5 14  1  0
  5  6  1  0
  6  7  2  0
  6 28  1  0
  7  8  1  0
  8 14  2  0
  8  9  1  0
  9 10  2  0
  9 29  1  0
 10 11  1  0
 10 12  1  0
 12 13  2  0
 13 14  1  0
 13 30  1  0
 15 16  2  0
 16 20  1  0
 16 17  1  0
 17 18  1  0
 18 19  2  0
 18 31  1  0
 19 20  1  0
 20 21  1  0
 21 26  1  0
 21 22  1  0
 21 32  1  0
 22 23  1  0
 22 33  1  0
 22 34  1  0
 23 24  1  0
 23 35  1  0
 23 36  1  0
 24 25  1  0
 25 26  1  0
 25 37  1  0
 25 38  1  0
 26 39  1  0
 26 40  1  0
M  END
>  <i_m_ct_stereo_status>  (382) 
1

>  <s_m_source_file>  (382) 
/var/tmp/pbs.5076255.sched01/tmpo_pg7vmn/129owyy42_r.sdf

>  <i_m_source_file_index>  (382) 
19

>  <i_lp_mmshare_version>  (382) 
48012

>  <i_f3d_flags>  (382) 
0

>  <s_epik_input>  (382) 
W2NIXTFjKENsKW5bY0hdYyhjMTIpbihbY0hdbjIpLWMobjMpW25IXVxjKD1OXFtIXSljKGMzNClbY0hdbm40W0NIXTVbQ0gyXVtDSDJdT1tDSDJdW0NIMl01

>  <s_epik_cmdline>  (382) 
J2VwaWtfcHl0aG9uJywgJy1waHQnLCAnMi4wJywgJy1waCcsICc3LjAnLCAnLXRuJywgJzgnLCAnLW1hJywgJzIwMCcsICctaW1hZScsICc8aW5maWxlLm1hZT4nLCAnLW9tYWUnLCAnPG91dGZpbGUubWFlPic=

>  <r_lp_tautomer_probability>  (382) 
1

>  <r_epik_Ionization_Penalty>  (382) 
5.31529e-06

>  <r_epik_Ionization_Penalty_Charging>  (382) 
3.29174e-06

>  <r_epik_Ionization_Penalty_Neutral>  (382) 
2.02355e-06

>  <r_epik_State_Penalty>  (382) 
-0

>  <r_epik_Charging_Adjusted_Penalty>  (382) 
3.29174e-06

>  <i_epik_Tot_Q>  (382) 
0

>  <i_epik_Tot_abs_Q>  (382) 
0

>  <s_lp_Force_Field>  (382) 
OPLS3e

>  <r_lp_Energy>  (382) 
13.7278

>  <b_lp_Chiralities_Consistent>  (382) 
1

>  <s_lp_Variant>  (382) 
102:0-1

>  <s_i_glide_gridfile>  (382) 
pfpi4k_grid

>  <i_i_glide_lignum>  (382) 
19

>  <i_i_glide_rotatable_bonds>  (382) 
2

>  <r_i_docking_score>  (382) 
-3.08166

>  <r_i_glide_ligand_efficiency>  (382) 
-0.118525

>  <r_i_glide_ligand_efficiency_sa>  (382) 
-0.351131

>  <r_i_glide_ligand_efficiency_ln>  (382) 
-0.723718

>  <r_i_glide_gscore>  (382) 
-3.08166

>  <r_i_glide_lipo>  (382) 
-0.416391

>  <r_i_glide_hbond>  (382) 
-0.0742975

>  <r_i_glide_metal>  (382) 
-0

>  <r_i_glide_rewards>  (382) 
-0.887333

>  <r_i_glide_evdw>  (382) 
-32.4563

>  <r_i_glide_ecoul>  (382) 
-2.18062

>  <r_i_glide_erotb>  (382) 
0.280691

>  <r_i_glide_esite>  (382) 
-0.0344187

>  <r_i_glide_emodel>  (382) 
-42.6664

>  <r_i_glide_energy>  (382) 
-34.6369

>  <r_i_glide_einternal>  (382) 
1.1553

>  <r_i_glide_intrahb_reward>  (382) 
-0

>  <i_i_glide_confnum>  (382) 
3

>  <i_i_glide_posenum>  (382) 
4

>  <r_i_glide_eff_state_penalty>  (382) 
0

>  <ligand_id>  (382) 
102

>  <original_smiles>  (382) 
N=c1[nH]c(-n2cnc3cc(Cl)ncc32)nc2c1cnn2C1CCOCC1

>  <smiles>  (382) 
[H]c1c(Cl)nc([H])c2c1nc([H])n2-c1nc(N([H])[H])c2c([H])nn(C3([H])C([H])([H])C([H])([H])OC([H])([H])C3([H])[H])c2n1

$$$$
104:0:0
     RDKit          3D

 51 55  0  0  1  0  0  0  0  0999 V2000
    5.5248  -10.8172    3.8290 C   0  0  0  0  0  0  0  0  0  0  0  0
    5.8425  -10.1094    2.6284 O   0  0  0  0  0  0  0  0  0  0  0  0
    5.5731   -8.7392    2.7200 C   0  0  2  0  0  0  0  0  0  0  0  0
    4.1957   -8.5148    2.8911 O   0  0  0  0  0  0  0  0  0  0  0  0
    3.5654   -8.5024    1.6368 C   0  0  1  0  0  0  0  0  0  0  0  0
    2.4060   -7.7026    1.6162 O   0  0  0  0  0  0  0  0  0  0  0  0
    1.3090   -8.0049    2.5012 C   0  0  1  0  0  0  0  0  0  0  0  0
    1.1050   -9.5323    2.6548 C   0  0  0  0  0  0  0  0  0  0  0  0
   -0.0875   -9.7942    3.5861 C   0  0  2  0  0  0  0  0  0  0  0  0
   -1.3733   -9.2028    2.9741 C   0  0  0  0  0  0  0  0  0  0  0  0
   -1.1937   -7.6826    2.8198 C   0  0  1  0  0  0  0  0  0  0  0  0
   -0.9480   -7.0456    4.2009 C   0  0  0  0  0  0  0  0  0  0  0  0
    0.3371   -7.6323    4.8070 C   0  0  1  0  0  0  0  0  0  0  0  0
    0.1898   -9.1614    4.9604 C   0  0  0  0  0  0  0  0  0  0  0  0
    1.5345   -7.3333    3.8784 C   0  0  0  0  0  0  0  0  0  0  0  0
    0.0121   -7.3939    1.8852 C   0  0  0  0  0  0  0  0  0  0  0  0
    4.6028   -7.9463    0.6467 C   0  0  1  0  0  0  0  0  0  0  0  0
    4.4407   -6.5561    0.4046 O   0  0  0  0  0  0  0  0  0  0  0  0
    5.3026   -5.8699    1.2556 C   0  0  0  0  0  0  0  0  0  0  0  0
    5.8316   -4.6278    0.5429 C   0  0  0  0  0  0  0  0  0  0  0  0
    4.5462   -5.4196    2.5067 C   0  0  0  0  0  0  0  0  0  0  0  0
    6.3602   -6.7112    1.6147 O   0  0  0  0  0  0  0  0  0  0  0  0
    5.9335   -8.0631    1.3954 C   0  0  1  0  0  0  0  0  0  0  0  0
    5.6684  -11.8872    3.6763 H   0  0  0  0  0  0  0  0  0  0  0  0
    4.4860  -10.6626    4.1151 H   0  0  0  0  0  0  0  0  0  0  0  0
    6.1599  -10.4969    4.6540 H   0  0  0  0  0  0  0  0  0  0  0  0
    6.0912   -8.2952    3.5560 H   0  0  0  0  0  0  0  0  0  0  0  0
    3.3867   -9.5480    1.3633 H   0  0  0  0  0  0  0  0  0  0  0  0
    0.9601   -9.9934    1.6940 H   0  0  0  0  0  0  0  0  0  0  0  0
    1.9800  -10.0189    3.1049 H   0  0  0  0  0  0  0  0  0  0  0  0
   -0.1964  -10.8708    3.7030 H   0  0  0  0  0  0  0  0  0  0  0  0
   -1.5889   -9.6689    2.0124 H   0  0  0  0  0  0  0  0  0  0  0  0
   -2.2317   -9.4157    3.6144 H   0  0  0  0  0  0  0  0  0  0  0  0
   -2.1170   -7.2721    2.4129 H   0  0  0  0  0  0  0  0  0  0  0  0
   -0.8525   -5.9652    4.1087 H   0  0  0  0  0  0  0  0  0  0  0  0
   -1.7951   -7.2321    4.8582 H   0  0  0  0  0  0  0  0  0  0  0  0
    0.5134   -7.1856    5.7843 H   0  0  0  0  0  0  0  0  0  0  0  0
   -0.5998   -9.3994    5.6696 H   0  0  0  0  0  0  0  0  0  0  0  0
    1.1018   -9.5840    5.3806 H   0  0  0  0  0  0  0  0  0  0  0  0
    2.4440   -7.6895    4.3686 H   0  0  0  0  0  0  0  0  0  0  0  0
    1.6504   -6.2544    3.7712 H   0  0  0  0  0  0  0  0  0  0  0  0
    0.1390   -6.3209    1.7404 H   0  0  0  0  0  0  0  0  0  0  0  0
   -0.1682   -7.8092    0.8948 H   0  0  0  0  0  0  0  0  0  0  0  0
    4.5733   -8.5016   -0.2885 H   0  0  0  0  0  0  0  0  0  0  0  0
    6.4252   -4.8325   -0.3559 H   0  0  0  0  0  0  0  0  0  0  0  0
    6.4462   -4.0506    1.2420 H   0  0  0  0  0  0  0  0  0  0  0  0
    4.9730   -4.0126    0.2476 H   0  0  0  0  0  0  0  0  0  0  0  0
    4.0993   -6.2269    3.1003 H   0  0  0  0  0  0  0  0  0  0  0  0
    3.7514   -4.7531    2.1731 H   0  0  0  0  0  0  0  0  0  0  0  0
    5.2434   -4.8728    3.1399 H   0  0  0  0  0  0  0  0  0  0  0  0
    6.7172   -8.6088    0.8661 H   0  0  0  0  0  0  0  0  0  0  0  0
  1  2  1  0
  1 24  1  0
  1 25  1  0
  1 26  1  0
  2  3  1  0
  3 23  1  0
  3  4  1  0
  3 27  1  1
  4  5  1  0
  5  6  1  0
  5 17  1  0
  5 28  1  6
  7  6  1  6
  7 15  1  0
  7 16  1  0
  7  8  1  0
  8  9  1  0
  8 29  1  0
  8 30  1  0
  9 14  1  0
  9 10  1  0
  9 31  1  1
 10 11  1  0
 10 32  1  0
 10 33  1  0
 11 12  1  0
 11 16  1  0
 11 34  1  6
 12 13  1  0
 12 35  1  0
 12 36  1  0
 13 14  1  0
 13 15  1  0
 13 37  1  1
 14 38  1  0
 14 39  1  0
 15 40  1  0
 15 41  1  0
 16 42  1  0
 16 43  1  0
 17 23  1  0
 17 18  1  0
 17 44  1  6
 18 19  1  0
 19 20  1  0
 19 21  1  0
 19 22  1  0
 20 45  1  0
 20 46  1  0
 20 47  1  0
 21 48  1  0
 21 49  1  0
 21 50  1  0
 22 23  1  0
 23 51  1  6
M  END
>  <i_m_ct_stereo_status>  (383) 
1

>  <s_m_source_file>  (383) 
/var/tmp/pbs.5076255.sched01/tmpo_pg7vmn/129owyy42_r.sdf

>  <i_m_source_file_index>  (383) 
21

>  <i_lp_mmshare_version>  (383) 
48012

>  <i_f3d_flags>  (383) 
0

>  <s_epik_input>  (383) 
TzFDKFtDSDNdKShbQ0gzXSlPW0NASF0oW0NASF0xMilbQ0BIXShPW0NIM10pT1tDQEhdMk9DMzRbQ0gyXVtDQEBIXTVbQ0gyXVtDQEhdKFtDSDJdNClbQ0gyXVtDQEBIXShbQ0gyXTUpW0NIMl0z

>  <s_epik_cmdline>  (383) 
J2VwaWtfcHl0aG9uJywgJy1waHQnLCAnMi4wJywgJy1waCcsICc3LjAnLCAnLXRuJywgJzgnLCAnLW1hJywgJzIwMCcsICctaW1hZScsICc8aW5maWxlLm1hZT4nLCAnLW9tYWUnLCAnPG91dGZpbGUubWFlPic=

>  <r_lp_tautomer_probability>  (383) 
1

>  <r_epik_Ionization_Penalty>  (383) 
8.43288e-14

>  <r_epik_Ionization_Penalty_Charging>  (383) 
0

>  <r_epik_Ionization_Penalty_Neutral>  (383) 
8.43288e-14

>  <r_epik_State_Penalty>  (383) 
-0

>  <r_epik_Charging_Adjusted_Penalty>  (383) 
0

>  <i_epik_Tot_Q>  (383) 
0

>  <i_epik_Tot_abs_Q>  (383) 
0

>  <s_epik_Chemistry_Notes>  (383) 
This compound contains an acetal/aminal-like group ( X-CH(R)-Y where X, Y are N, S, or O) that may be acid/base labile, releasing an aldehyde.

>  <s_lp_Force_Field>  (383) 
OPLS3e

>  <r_lp_Energy>  (383) 
8.8894

>  <b_lp_Chiralities_Consistent>  (383) 
1

>  <s_lp_Variant>  (383) 
104:0-1

>  <s_i_glide_gridfile>  (383) 
pfpi4k_grid

>  <i_i_glide_lignum>  (383) 
21

>  <i_i_glide_rotatable_bonds>  (383) 
3

>  <r_i_docking_score>  (383) 
-2.27327

>  <r_i_glide_ligand_efficiency>  (383) 
-0.098838

>  <r_i_glide_ligand_efficiency_sa>  (383) 
-0.281082

>  <r_i_glide_ligand_efficiency_ln>  (383) 
-0.549698

>  <r_i_glide_gscore>  (383) 
-2.27327

>  <r_i_glide_lipo>  (383) 
-0.303094

>  <r_i_glide_hbond>  (383) 
0

>  <r_i_glide_metal>  (383) 
-0

>  <r_i_glide_rewards>  (383) 
-1.30098

>  <r_i_glide_evdw>  (383) 
-21.1307

>  <r_i_glide_ecoul>  (383) 
0.370099

>  <r_i_glide_erotb>  (383) 
0.355887

>  <r_i_glide_esite>  (383) 
-0.0240674

>  <r_i_glide_emodel>  (383) 
-21.6142

>  <r_i_glide_energy>  (383) 
-20.7606

>  <r_i_glide_einternal>  (383) 
3.01581

>  <r_i_glide_intrahb_reward>  (383) 
-0

>  <i_i_glide_confnum>  (383) 
1

>  <i_i_glide_posenum>  (383) 
40

>  <r_i_glide_eff_state_penalty>  (383) 
0

>  <ligand_id>  (383) 
104

>  <original_smiles>  (383) 
COC1OC(OC23CC4CC(CC(C4)C2)C3)C2OC(C)(C)OC12

>  <smiles>  (383) 
[H]C([H])([H])OC1([H])OC([H])(OC23C([H])([H])C4([H])C([H])([H])C([H])(C([H])([H])C([H])(C4([H])[H])C2([H])[H])C3([H])[H])C2([H])OC(C([H])([H])[H])(C([H])([H])[H])OC12[H]

$$$$
104:0:1
     RDKit          3D

 51 55  0  0  1  0  0  0  0  0999 V2000
    6.6383   -6.8694    1.6413 C   0  0  0  0  0  0  0  0  0  0  0  0
    6.2821   -5.7519    0.8395 O   0  0  0  0  0  0  0  0  0  0  0  0
    4.9945   -5.2590    1.0759 C   0  0  2  0  0  0  0  0  0  0  0  0
    4.0268   -6.1952    0.7119 O   0  0  0  0  0  0  0  0  0  0  0  0
    2.8123   -5.5059    0.4722 C   0  0  1  0  0  0  0  0  0  0  0  0
    2.0952   -5.3096    1.6406 O   0  0  0  0  0  0  0  0  0  0  0  0
    1.5034   -6.4510    2.2930 C   0  0  1  0  0  0  0  0  0  0  0  0
    2.5078   -7.6037    2.6217 C   0  0  0  0  0  0  0  0  0  0  0  0
    1.8119   -8.7130    3.4367 C   0  0  2  0  0  0  0  0  0  0  0  0
    0.6447   -9.2994    2.6170 C   0  0  0  0  0  0  0  0  0  0  0  0
   -0.3747   -8.1805    2.3099 C   0  0  1  0  0  0  0  0  0  0  0  0
   -0.9159   -7.6108    3.6301 C   0  0  0  0  0  0  0  0  0  0  0  0
    0.2526   -7.0275    4.4490 C   0  0  1  0  0  0  0  0  0  0  0  0
    1.2823   -8.1344    4.7561 C   0  0  0  0  0  0  0  0  0  0  0  0
    0.9441   -5.9054    3.6392 C   0  0  0  0  0  0  0  0  0  0  0  0
    0.3088   -7.0575    1.4849 C   0  0  0  0  0  0  0  0  0  0  0  0
    3.2500   -4.1848   -0.1863 C   0  0  1  0  0  0  0  0  0  0  0  0
    2.6603   -3.0078    0.3632 O   0  0  0  0  0  0  0  0  0  0  0  0
    3.7118   -2.1007    0.3646 C   0  0  0  0  0  0  0  0  0  0  0  0
    3.9291   -1.5233   -1.0569 C   0  0  0  0  0  0  0  0  0  0  0  0
    3.3926   -0.9551    1.3340 C   0  0  0  0  0  0  0  0  0  0  0  0
    4.8509   -2.7846    0.7836 O   0  0  0  0  0  0  0  0  0  0  0  0
    4.7333   -4.0643    0.1461 C   0  0  1  0  0  0  0  0  0  0  0  0
    7.6766   -7.0995    1.4408 H   0  0  0  0  0  0  0  0  0  0  0  0
    6.0490   -7.7786    1.4389 H   0  0  0  0  0  0  0  0  0  0  0  0
    6.5481   -6.6219    2.7036 H   0  0  0  0  0  0  0  0  0  0  0  0
    4.8072   -5.0020    2.0994 H   0  0  0  0  0  0  0  0  0  0  0  0
    2.2480   -6.0956   -0.2519 H   0  0  0  0  0  0  0  0  0  0  0  0
    2.9050   -8.0488    1.7137 H   0  0  0  0  0  0  0  0  0  0  0  0
    3.3635   -7.2062    3.1596 H   0  0  0  0  0  0  0  0  0  0  0  0
    2.5218   -9.5076    3.6554 H   0  0  0  0  0  0  0  0  0  0  0  0
    1.0180   -9.7396    1.6950 H   0  0  0  0  0  0  0  0  0  0  0  0
    0.1604  -10.1122    3.1646 H   0  0  0  0  0  0  0  0  0  0  0  0
   -1.1986   -8.6087    1.7434 H   0  0  0  0  0  0  0  0  0  0  0  0
   -1.6657   -6.8444    3.4434 H   0  0  0  0  0  0  0  0  0  0  0  0
   -1.4215   -8.3965    4.2034 H   0  0  0  0  0  0  0  0  0  0  0  0
   -0.1221   -6.6183    5.3819 H   0  0  0  0  0  0  0  0  0  0  0  0
    0.8241   -8.9147    5.3691 H   0  0  0  0  0  0  0  0  0  0  0  0
    2.1064   -7.7314    5.3474 H   0  0  0  0  0  0  0  0  0  0  0  0
    1.7538   -5.4720    4.2212 H   0  0  0  0  0  0  0  0  0  0  0  0
    0.2365   -5.1006    3.4513 H   0  0  0  0  0  0  0  0  0  0  0  0
   -0.4135   -6.2794    1.2466 H   0  0  0  0  0  0  0  0  0  0  0  0
    0.6384   -7.4654    0.5307 H   0  0  0  0  0  0  0  0  0  0  0  0
    3.0808   -4.2017   -1.2740 H   0  0  0  0  0  0  0  0  0  0  0  0
    4.1751   -2.2637   -1.8260 H   0  0  0  0  0  0  0  0  0  0  0  0
    4.7495   -0.8107   -1.0167 H   0  0  0  0  0  0  0  0  0  0  0  0
    3.0195   -1.0155   -1.3756 H   0  0  0  0  0  0  0  0  0  0  0  0
    3.2154   -1.3193    2.3461 H   0  0  0  0  0  0  0  0  0  0  0  0
    2.5023   -0.4422    0.9582 H   0  0  0  0  0  0  0  0  0  0  0  0
    4.2461   -0.2735    1.3193 H   0  0  0  0  0  0  0  0  0  0  0  0
    5.3553   -4.1109   -0.7655 H   0  0  0  0  0  0  0  0  0  0  0  0
  1  2  1  0
  1 24  1  0
  1 25  1  0
  1 26  1  0
  2  3  1  0
  3 23  1  0
  3  4  1  0
  3 27  1  1
  4  5  1  0
  5  6  1  0
  5 17  1  0
  5 28  1  6
  7  6  1  6
  7 15  1  0
  7 16  1  0
  7  8  1  0
  8  9  1  0
  8 29  1  0
  8 30  1  0
  9 14  1  0
  9 10  1  0
  9 31  1  1
 10 11  1  0
 10 32  1  0
 10 33  1  0
 11 12  1  0
 11 16  1  0
 11 34  1  6
 12 13  1  0
 12 35  1  0
 12 36  1  0
 13 14  1  0
 13 15  1  0
 13 37  1  1
 14 38  1  0
 14 39  1  0
 15 40  1  0
 15 41  1  0
 16 42  1  0
 16 43  1  0
 17 23  1  0
 17 18  1  0
 17 44  1  6
 18 19  1  0
 19 20  1  0
 19 21  1  0
 19 22  1  0
 20 45  1  0
 20 46  1  0
 20 47  1  0
 21 48  1  0
 21 49  1  0
 21 50  1  0
 22 23  1  0
 23 51  1  6
M  END
>  <i_m_ct_stereo_status>  (384) 
1

>  <s_m_source_file>  (384) 
/var/tmp/pbs.5076255.sched01/tmpo_pg7vmn/129owyy42_r.sdf

>  <i_m_source_file_index>  (384) 
21

>  <i_lp_mmshare_version>  (384) 
48012

>  <i_f3d_flags>  (384) 
0

>  <s_epik_input>  (384) 
TzFDKFtDSDNdKShbQ0gzXSlPW0NASF0oW0NASF0xMilbQ0BIXShPW0NIM10pT1tDQEhdMk9DMzRbQ0gyXVtDQEBIXTVbQ0gyXVtDQEhdKFtDSDJdNClbQ0gyXVtDQEBIXShbQ0gyXTUpW0NIMl0z

>  <s_epik_cmdline>  (384) 
J2VwaWtfcHl0aG9uJywgJy1waHQnLCAnMi4wJywgJy1waCcsICc3LjAnLCAnLXRuJywgJzgnLCAnLW1hJywgJzIwMCcsICctaW1hZScsICc8aW5maWxlLm1hZT4nLCAnLW9tYWUnLCAnPG91dGZpbGUubWFlPic=

>  <r_lp_tautomer_probability>  (384) 
1

>  <r_epik_Ionization_Penalty>  (384) 
8.43288e-14

>  <r_epik_Ionization_Penalty_Charging>  (384) 
0

>  <r_epik_Ionization_Penalty_Neutral>  (384) 
8.43288e-14

>  <r_epik_State_Penalty>  (384) 
-0

>  <r_epik_Charging_Adjusted_Penalty>  (384) 
0

>  <i_epik_Tot_Q>  (384) 
0

>  <i_epik_Tot_abs_Q>  (384) 
0

>  <s_epik_Chemistry_Notes>  (384) 
This compound contains an acetal/aminal-like group ( X-CH(R)-Y where X, Y are N, S, or O) that may be acid/base labile, releasing an aldehyde.

>  <s_lp_Force_Field>  (384) 
OPLS3e

>  <r_lp_Energy>  (384) 
8.8894

>  <b_lp_Chiralities_Consistent>  (384) 
1

>  <s_lp_Variant>  (384) 
104:0-1

>  <s_i_glide_gridfile>  (384) 
pfpi4k_grid

>  <i_i_glide_lignum>  (384) 
21

>  <i_i_glide_rotatable_bonds>  (384) 
3

>  <r_i_docking_score>  (384) 
-2.24083

>  <r_i_glide_ligand_efficiency>  (384) 
-0.0974276

>  <r_i_glide_ligand_efficiency_sa>  (384) 
-0.277071

>  <r_i_glide_ligand_efficiency_ln>  (384) 
-0.541854

>  <r_i_glide_gscore>  (384) 
-2.24083

>  <r_i_glide_lipo>  (384) 
-0.112819

>  <r_i_glide_hbond>  (384) 
-9.43842e-05

>  <r_i_glide_metal>  (384) 
-0

>  <r_i_glide_rewards>  (384) 
-1.2749

>  <r_i_glide_evdw>  (384) 
-20.6104

>  <r_i_glide_ecoul>  (384) 
-0.734413

>  <r_i_glide_erotb>  (384) 
0.355887

>  <r_i_glide_esite>  (384) 
-0.0682228

>  <r_i_glide_emodel>  (384) 
-23.5044

>  <r_i_glide_energy>  (384) 
-21.3448

>  <r_i_glide_einternal>  (384) 
0.358763

>  <r_i_glide_intrahb_reward>  (384) 
-0

>  <i_i_glide_confnum>  (384) 
2

>  <i_i_glide_posenum>  (384) 
36

>  <r_i_glide_eff_state_penalty>  (384) 
0

>  <ligand_id>  (384) 
104

>  <original_smiles>  (384) 
COC1OC(OC23CC4CC(CC(C4)C2)C3)C2OC(C)(C)OC12

>  <smiles>  (384) 
[H]C([H])([H])OC1([H])OC([H])(OC23C([H])([H])C4([H])C([H])([H])C([H])(C([H])([H])C([H])(C4([H])[H])C2([H])[H])C3([H])[H])C2([H])OC(C([H])([H])[H])(C([H])([H])[H])OC12[H]

$$$$
104:0:2
     RDKit          3D

 51 55  0  0  1  0  0  0  0  0999 V2000
    6.5046   -8.5671    2.2221 C   0  0  0  0  0  0  0  0  0  0  0  0
    5.9437   -7.6427    1.2834 O   0  0  0  0  0  0  0  0  0  0  0  0
    5.5340   -6.4074    1.8050 C   0  0  2  0  0  0  0  0  0  0  0  0
    4.3835   -6.5201    2.5688 O   0  0  0  0  0  0  0  0  0  0  0  0
    3.2881   -6.5462    1.7315 C   0  0  1  0  0  0  0  0  0  0  0  0
    2.0817   -6.2152    2.3730 O   0  0  0  0  0  0  0  0  0  0  0  0
    1.3187   -7.2616    3.0188 C   0  0  1  0  0  0  0  0  0  0  0  0
    2.1619   -8.2135    3.9109 C   0  0  0  0  0  0  0  0  0  0  0  0
    1.2129   -9.2238    4.6187 C   0  0  2  0  0  0  0  0  0  0  0  0
    0.4478  -10.0499    3.5668 C   0  0  0  0  0  0  0  0  0  0  0  0
   -0.4111   -9.1078    2.7025 C   0  0  1  0  0  0  0  0  0  0  0  0
   -1.4130   -8.3466    3.5828 C   0  0  0  0  0  0  0  0  0  0  0  0
   -0.6429   -7.5368    4.6293 C   0  0  1  0  0  0  0  0  0  0  0  0
    0.2033   -8.4741    5.5101 C   0  0  0  0  0  0  0  0  0  0  0  0
    0.2899   -6.5260    3.9208 C   0  0  0  0  0  0  0  0  0  0  0  0
    0.5264   -8.0932    1.9739 C   0  0  0  0  0  0  0  0  0  0  0  0
    3.6182   -5.5758    0.6070 C   0  0  1  0  0  0  0  0  0  0  0  0
    3.2488   -4.2365    0.8407 O   0  0  0  0  0  0  0  0  0  0  0  0
    4.3327   -3.5090    0.4031 C   0  0  0  0  0  0  0  0  0  0  0  0
    4.3116   -3.3841   -1.1415 C   0  0  0  0  0  0  0  0  0  0  0  0
    4.2932   -2.1143    1.0230 C   0  0  0  0  0  0  0  0  0  0  0  0
    5.4633   -4.1763    0.8096 O   0  0  0  0  0  0  0  0  0  0  0  0
    5.1475   -5.5399    0.6083 C   0  0  1  0  0  0  0  0  0  0  0  0
    6.7619   -9.4874    1.6950 H   0  0  0  0  0  0  0  0  0  0  0  0
    5.7920   -8.8206    3.0049 H   0  0  0  0  0  0  0  0  0  0  0  0
    7.4203   -8.1814    2.6692 H   0  0  0  0  0  0  0  0  0  0  0  0
    6.2805   -5.9577    2.4503 H   0  0  0  0  0  0  0  0  0  0  0  0
    3.2778   -7.5471    1.3119 H   0  0  0  0  0  0  0  0  0  0  0  0
    2.8968   -8.7680    3.3244 H   0  0  0  0  0  0  0  0  0  0  0  0
    2.7388   -7.6405    4.6370 H   0  0  0  0  0  0  0  0  0  0  0  0
    1.7888   -9.9065    5.2408 H   0  0  0  0  0  0  0  0  0  0  0  0
    1.1342  -10.6196    2.9468 H   0  0  0  0  0  0  0  0  0  0  0  0
   -0.1801  -10.7992    4.0664 H   0  0  0  0  0  0  0  0  0  0  0  0
   -0.9673   -9.7037    1.9874 H   0  0  0  0  0  0  0  0  0  0  0  0
   -2.0504   -7.7095    2.9826 H   0  0  0  0  0  0  0  0  0  0  0  0
   -2.0958   -9.0546    4.0840 H   0  0  0  0  0  0  0  0  0  0  0  0
   -1.3470   -6.9950    5.2545 H   0  0  0  0  0  0  0  0  0  0  0  0
   -0.4462   -9.1765    6.0400 H   0  0  0  0  0  0  0  0  0  0  0  0
    0.7301   -7.9065    6.2707 H   0  0  0  0  0  0  0  0  0  0  0  0
    0.7949   -5.9064    4.6616 H   0  0  0  0  0  0  0  0  0  0  0  0
   -0.3089   -5.8581    3.3131 H   0  0  0  0  0  0  0  0  0  0  0  0
   -0.0651   -7.4311    1.3460 H   0  0  0  0  0  0  0  0  0  0  0  0
    1.1905   -8.6344    1.2975 H   0  0  0  0  0  0  0  0  0  0  0  0
    3.1872   -5.9171   -0.3328 H   0  0  0  0  0  0  0  0  0  0  0  0
    4.3463   -4.3245   -1.7005 H   0  0  0  0  0  0  0  0  0  0  0  0
    5.1655   -2.7897   -1.4572 H   0  0  0  0  0  0  0  0  0  0  0  0
    3.3991   -2.8673   -1.4325 H   0  0  0  0  0  0  0  0  0  0  0  0
    4.2918   -2.1230    2.1214 H   0  0  0  0  0  0  0  0  0  0  0  0
    3.3838   -1.6207    0.6678 H   0  0  0  0  0  0  0  0  0  0  0  0
    5.1543   -1.5469    0.6611 H   0  0  0  0  0  0  0  0  0  0  0  0
    5.6065   -5.8658   -0.3315 H   0  0  0  0  0  0  0  0  0  0  0  0
  1  2  1  0
  1 24  1  0
  1 25  1  0
  1 26  1  0
  2  3  1  0
  3 23  1  0
  3  4  1  0
  3 27  1  1
  4  5  1  0
  5  6  1  0
  5 17  1  0
  5 28  1  6
  7  6  1  6
  7 15  1  0
  7 16  1  0
  7  8  1  0
  8  9  1  0
  8 29  1  0
  8 30  1  0
  9 14  1  0
  9 10  1  0
  9 31  1  1
 10 11  1  0
 10 32  1  0
 10 33  1  0
 11 12  1  0
 11 16  1  0
 11 34  1  6
 12 13  1  0
 12 35  1  0
 12 36  1  0
 13 14  1  0
 13 15  1  0
 13 37  1  1
 14 38  1  0
 14 39  1  0
 15 40  1  0
 15 41  1  0
 16 42  1  0
 16 43  1  0
 17 23  1  0
 17 18  1  0
 17 44  1  6
 18 19  1  0
 19 20  1  0
 19 21  1  0
 19 22  1  0
 20 45  1  0
 20 46  1  0
 20 47  1  0
 21 48  1  0
 21 49  1  0
 21 50  1  0
 22 23  1  0
 23 51  1  6
M  END
>  <i_m_ct_stereo_status>  (385) 
1

>  <s_m_source_file>  (385) 
/var/tmp/pbs.5076255.sched01/tmpo_pg7vmn/129owyy42_r.sdf

>  <i_m_source_file_index>  (385) 
21

>  <i_lp_mmshare_version>  (385) 
48012

>  <i_f3d_flags>  (385) 
0

>  <s_epik_input>  (385) 
TzFDKFtDSDNdKShbQ0gzXSlPW0NASF0oW0NASF0xMilbQ0BIXShPW0NIM10pT1tDQEhdMk9DMzRbQ0gyXVtDQEBIXTVbQ0gyXVtDQEhdKFtDSDJdNClbQ0gyXVtDQEBIXShbQ0gyXTUpW0NIMl0z

>  <s_epik_cmdline>  (385) 
J2VwaWtfcHl0aG9uJywgJy1waHQnLCAnMi4wJywgJy1waCcsICc3LjAnLCAnLXRuJywgJzgnLCAnLW1hJywgJzIwMCcsICctaW1hZScsICc8aW5maWxlLm1hZT4nLCAnLW9tYWUnLCAnPG91dGZpbGUubWFlPic=

>  <r_lp_tautomer_probability>  (385) 
1

>  <r_epik_Ionization_Penalty>  (385) 
8.43288e-14

>  <r_epik_Ionization_Penalty_Charging>  (385) 
0

>  <r_epik_Ionization_Penalty_Neutral>  (385) 
8.43288e-14

>  <r_epik_State_Penalty>  (385) 
-0

>  <r_epik_Charging_Adjusted_Penalty>  (385) 
0

>  <i_epik_Tot_Q>  (385) 
0

>  <i_epik_Tot_abs_Q>  (385) 
0

>  <s_epik_Chemistry_Notes>  (385) 
This compound contains an acetal/aminal-like group ( X-CH(R)-Y where X, Y are N, S, or O) that may be acid/base labile, releasing an aldehyde.

>  <s_lp_Force_Field>  (385) 
OPLS3e

>  <r_lp_Energy>  (385) 
8.8894

>  <b_lp_Chiralities_Consistent>  (385) 
1

>  <s_lp_Variant>  (385) 
104:0-1

>  <s_i_glide_gridfile>  (385) 
pfpi4k_grid

>  <i_i_glide_lignum>  (385) 
21

>  <i_i_glide_rotatable_bonds>  (385) 
3

>  <r_i_docking_score>  (385) 
-2.22372

>  <r_i_glide_ligand_efficiency>  (385) 
-0.0966834

>  <r_i_glide_ligand_efficiency_sa>  (385) 
-0.274955

>  <r_i_glide_ligand_efficiency_ln>  (385) 
-0.537715

>  <r_i_glide_gscore>  (385) 
-2.22372

>  <r_i_glide_lipo>  (385) 
-0.159785

>  <r_i_glide_hbond>  (385) 
0

>  <r_i_glide_metal>  (385) 
-0

>  <r_i_glide_rewards>  (385) 
-1.35883

>  <r_i_glide_evdw>  (385) 
-19.0176

>  <r_i_glide_ecoul>  (385) 
-0.734034

>  <r_i_glide_erotb>  (385) 
0.355887

>  <r_i_glide_esite>  (385) 
0

>  <r_i_glide_emodel>  (385) 
-21.7457

>  <r_i_glide_energy>  (385) 
-19.7517

>  <r_i_glide_einternal>  (385) 
0.582583

>  <r_i_glide_intrahb_reward>  (385) 
-0

>  <i_i_glide_confnum>  (385) 
3

>  <i_i_glide_posenum>  (385) 
18

>  <r_i_glide_eff_state_penalty>  (385) 
0

>  <ligand_id>  (385) 
104

>  <original_smiles>  (385) 
COC1OC(OC23CC4CC(CC(C4)C2)C3)C2OC(C)(C)OC12

>  <smiles>  (385) 
[H]C([H])([H])OC1([H])OC([H])(OC23C([H])([H])C4([H])C([H])([H])C([H])(C([H])([H])C([H])(C4([H])[H])C2([H])[H])C3([H])[H])C2([H])OC(C([H])([H])[H])(C([H])([H])[H])OC12[H]

$$$$
106:0:0
     RDKit          3D

 45 47  0  0  1  0  0  0  0  0999 V2000
    0.8404   -2.7446    4.8341 C   0  0  0  0  0  0  0  0  0  0  0  0
    2.0781   -1.8710    4.6883 C   0  0  0  0  0  0  0  0  0  0  0  0
    2.4934   -1.1773    5.6181 O   0  0  0  0  0  0  0  0  0  0  0  0
    2.6212   -1.9535    3.4637 O   0  0  0  0  0  0  0  0  0  0  0  0
    3.8000   -1.2159    3.1363 C   0  0  2  0  0  0  0  0  0  0  0  0
    3.4069    0.2045    2.6714 C   0  0  0  0  0  0  0  0  0  0  0  0
    3.3666    0.1812    1.2415 O   0  0  0  0  0  0  0  0  0  0  0  0
    3.5816   -1.1550    0.8079 C   0  0  1  0  0  0  0  0  0  0  0  0
    4.1786   -1.3213   -0.5935 C   0  0  1  0  0  0  0  0  0  0  0  0
    5.4504   -0.6916   -0.6480 O   0  0  0  0  0  0  0  0  0  0  0  0
    4.2774   -2.8407   -0.8622 C   0  0  1  0  0  0  0  0  0  0  0  0
    4.8533   -3.1128   -2.1411 O   0  0  0  0  0  0  0  0  0  0  0  0
    4.1303   -3.3783   -3.2503 C   0  0  0  0  0  0  0  0  0  0  0  0
    2.6430   -3.0522   -3.1628 C   0  0  0  0  0  0  0  0  0  0  0  0
    4.6118   -3.8248   -4.2917 O   0  0  0  0  0  0  0  0  0  0  0  0
    5.0307   -3.6565    0.2288 C   0  0  2  0  0  0  0  0  0  0  0  0
    4.5029   -4.9678    0.1427 O   0  0  0  0  0  0  0  0  0  0  0  0
    3.6815   -5.1985    1.2440 C   0  0  0  0  0  0  0  0  0  0  0  0
    2.2513   -5.5078    0.7904 C   0  0  0  0  0  0  0  0  0  0  0  0
    4.3050   -6.3497    2.0476 C   0  0  0  0  0  0  0  0  0  0  0  0
    3.6125   -4.0532    2.0203 O   0  0  0  0  0  0  0  0  0  0  0  0
    4.7278   -3.2641    1.6952 C   0  0  2  0  0  0  0  0  0  0  0  0
    4.4711   -1.7495    1.8809 C   0  0  2  0  0  0  0  0  0  0  0  0
    1.0778   -3.7748    4.5724 H   0  0  0  0  0  0  0  0  0  0  0  0
    0.0490   -2.3918    4.1736 H   0  0  0  0  0  0  0  0  0  0  0  0
    0.4743   -2.7243    5.8600 H   0  0  0  0  0  0  0  0  0  0  0  0
    4.4923   -1.2043    3.9834 H   0  0  0  0  0  0  0  0  0  0  0  0
    2.4659    0.5485    3.0951 H   0  0  0  0  0  0  0  0  0  0  0  0
    4.1779    0.9122    2.9647 H   0  0  0  0  0  0  0  0  0  0  0  0
    2.6054   -1.6507    0.8291 H   0  0  0  0  0  0  0  0  0  0  0  0
    3.5275   -0.8544   -1.3304 H   0  0  0  0  0  0  0  0  0  0  0  0
    5.3146    0.2532   -0.6439 H   0  0  0  0  0  0  0  0  0  0  0  0
    3.2521   -3.2133   -0.8395 H   0  0  0  0  0  0  0  0  0  0  0  0
    2.1618   -3.6491   -2.3807 H   0  0  0  0  0  0  0  0  0  0  0  0
    2.1525   -3.2581   -4.1235 H   0  0  0  0  0  0  0  0  0  0  0  0
    2.4886   -2.0057   -2.9446 H   0  0  0  0  0  0  0  0  0  0  0  0
    6.1115   -3.6637    0.0527 H   0  0  0  0  0  0  0  0  0  0  0  0
    1.8330   -4.6537    0.2612 H   0  0  0  0  0  0  0  0  0  0  0  0
    1.6319   -5.7123    1.6646 H   0  0  0  0  0  0  0  0  0  0  0  0
    2.2399   -6.3721    0.1347 H   0  0  0  0  0  0  0  0  0  0  0  0
    5.3285   -6.1051    2.3341 H   0  0  0  0  0  0  0  0  0  0  0  0
    4.3312   -7.2449    1.4256 H   0  0  0  0  0  0  0  0  0  0  0  0
    3.7194   -6.5608    2.9431 H   0  0  0  0  0  0  0  0  0  0  0  0
    5.5462   -3.5841    2.3381 H   0  0  0  0  0  0  0  0  0  0  0  0
    5.4422   -1.2583    1.8124 H   0  0  0  0  0  0  0  0  0  0  0  0
  1  2  1  0
  1 24  1  0
  1 25  1  0
  1 26  1  0
  2  3  2  0
  2  4  1  0
  4  5  1  0
  5 23  1  0
  5  6  1  0
  5 27  1  1
  6  7  1  0
  6 28  1  0
  6 29  1  0
  7  8  1  0
  8 23  1  0
  8  9  1  0
  8 30  1  6
  9 10  1  0
  9 11  1  0
  9 31  1  6
 10 32  1  0
 11 12  1  0
 11 16  1  0
 11 33  1  6
 12 13  1  0
 13 14  1  0
 13 15  2  0
 14 34  1  0
 14 35  1  0
 14 36  1  0
 16 22  1  0
 16 17  1  0
 16 37  1  6
 17 18  1  0
 18 19  1  0
 18 20  1  0
 18 21  1  0
 19 38  1  0
 19 39  1  0
 19 40  1  0
 20 41  1  0
 20 42  1  0
 20 43  1  0
 21 22  1  0
 22 23  1  0
 22 44  1  1
 23 45  1  6
M  END
>  <i_m_ct_stereo_status>  (386) 
1

>  <s_m_source_file>  (386) 
/var/tmp/pbs.5076255.sched01/tmpo_pg7vmn/129owyy42_r.sdf

>  <i_m_source_file_index>  (386) 
23

>  <i_lp_mmshare_version>  (386) 
48012

>  <i_f3d_flags>  (386) 
0

>  <s_epik_input>  (386) 
W0NIM11DKD1PKU9bQ0BIXShbQ0gyXU8xKVtDQEhdKFtDQEBIXTEyKVtDQEBIXTNbQ0BASF0oT0MoTzMpKFtDSDNdKVtDSDNdKVtDQEBIXShbQ0BASF0yW09IXSlPQyg9TylbQ0gzXQ==

>  <s_epik_cmdline>  (386) 
J2VwaWtfcHl0aG9uJywgJy1waHQnLCAnMi4wJywgJy1waCcsICc3LjAnLCAnLXRuJywgJzgnLCAnLW1hJywgJzIwMCcsICctaW1hZScsICc8aW5maWxlLm1hZT4nLCAnLW9tYWUnLCAnPG91dGZpbGUubWFlPic=

>  <r_lp_tautomer_probability>  (386) 
1

>  <r_epik_Ionization_Penalty>  (386) 
8.16647e-06

>  <r_epik_Ionization_Penalty_Charging>  (386) 
0

>  <r_epik_Ionization_Penalty_Neutral>  (386) 
8.16647e-06

>  <r_epik_State_Penalty>  (386) 
-0

>  <r_epik_Charging_Adjusted_Penalty>  (386) 
0

>  <i_epik_Tot_Q>  (386) 
0

>  <i_epik_Tot_abs_Q>  (386) 
0

>  <s_epik_Chemistry_Notes>  (386) 
This compound has an ester and may undergo hydrolysis at high or low pH.

>  <s_lp_Force_Field>  (386) 
OPLS3e

>  <r_lp_Energy>  (386) 
-12.9035

>  <b_lp_Chiralities_Consistent>  (386) 
1

>  <s_lp_Variant>  (386) 
106:0-1

>  <s_i_glide_gridfile>  (386) 
pfpi4k_grid

>  <i_i_glide_lignum>  (386) 
23

>  <i_i_glide_rotatable_bonds>  (386) 
5

>  <r_i_docking_score>  (386) 
-3.5315

>  <r_i_glide_ligand_efficiency>  (386) 
-0.153544

>  <r_i_glide_ligand_efficiency_sa>  (386) 
-0.436658

>  <r_i_glide_ligand_efficiency_ln>  (386) 
-0.853949

>  <r_i_glide_gscore>  (386) 
-3.5315

>  <r_i_glide_lipo>  (386) 
-0.27896

>  <r_i_glide_hbond>  (386) 
-0.0249253

>  <r_i_glide_metal>  (386) 
-0

>  <r_i_glide_rewards>  (386) 
-1.28591

>  <r_i_glide_evdw>  (386) 
-26.2341

>  <r_i_glide_ecoul>  (386) 
-6.49803

>  <r_i_glide_erotb>  (386) 
0.344703

>  <r_i_glide_esite>  (386) 
0

>  <r_i_glide_emodel>  (386) 
-36.6754

>  <r_i_glide_energy>  (386) 
-32.7321

>  <r_i_glide_einternal>  (386) 
5.92323

>  <r_i_glide_intrahb_reward>  (386) 
-0

>  <i_i_glide_confnum>  (386) 
1

>  <i_i_glide_posenum>  (386) 
13

>  <r_i_glide_eff_state_penalty>  (386) 
0

>  <ligand_id>  (386) 
106

>  <original_smiles>  (386) 
CC(=O)OC1COC2C(O)C(OC(C)=O)C3OC(C)(C)OC3C12

>  <smiles>  (386) 
[H]OC1([H])C([H])(OC(=O)C([H])([H])[H])C2([H])OC(C([H])([H])[H])(C([H])([H])[H])OC2([H])C2([H])C([H])(OC(=O)C([H])([H])[H])C([H])([H])OC12[H]

$$$$
106:0:1
     RDKit          3D

 45 47  0  0  1  0  0  0  0  0999 V2000
    2.7540   -0.8305    5.6617 C   0  0  0  0  0  0  0  0  0  0  0  0
    2.0603   -1.7923    4.6895 C   0  0  0  0  0  0  0  0  0  0  0  0
    1.0498   -2.3979    5.0236 O   0  0  0  0  0  0  0  0  0  0  0  0
    2.6357   -1.9120    3.4692 O   0  0  0  0  0  0  0  0  0  0  0  0
    3.8081   -1.1937    3.0925 C   0  0  2  0  0  0  0  0  0  0  0  0
    3.4086    0.2209    2.6087 C   0  0  0  0  0  0  0  0  0  0  0  0
    3.3746    0.1884    1.1767 O   0  0  0  0  0  0  0  0  0  0  0  0
    3.5743   -1.1519    0.7667 C   0  0  1  0  0  0  0  0  0  0  0  0
    4.1755   -1.3222   -0.6279 C   0  0  1  0  0  0  0  0  0  0  0  0
    5.4400   -0.6735   -0.6802 O   0  0  0  0  0  0  0  0  0  0  0  0
    4.2787   -2.8479   -0.8745 C   0  0  1  0  0  0  0  0  0  0  0  0
    4.8518   -3.1256   -2.1512 O   0  0  0  0  0  0  0  0  0  0  0  0
    4.1289   -3.3877   -3.2587 C   0  0  0  0  0  0  0  0  0  0  0  0
    2.6418   -3.0560   -3.1740 C   0  0  0  0  0  0  0  0  0  0  0  0
    4.6094   -3.8411   -4.2920 O   0  0  0  0  0  0  0  0  0  0  0  0
    5.0322   -3.6582    0.2184 C   0  0  2  0  0  0  0  0  0  0  0  0
    4.5060   -4.9693    0.1416 O   0  0  0  0  0  0  0  0  0  0  0  0
    3.6861   -5.1903    1.2490 C   0  0  0  0  0  0  0  0  0  0  0  0
    2.2556   -5.5122    0.7997 C   0  0  0  0  0  0  0  0  0  0  0  0
    4.3129   -6.3387    2.0613 C   0  0  0  0  0  0  0  0  0  0  0  0
    3.6144   -4.0417    2.0167 O   0  0  0  0  0  0  0  0  0  0  0  0
    4.7279   -3.2555    1.6779 C   0  0  2  0  0  0  0  0  0  0  0  0
    4.4663   -1.7401    1.8416 C   0  0  2  0  0  0  0  0  0  0  0  0
    2.8659    0.1639    5.2288 H   0  0  0  0  0  0  0  0  0  0  0  0
    3.7412   -1.2058    5.9307 H   0  0  0  0  0  0  0  0  0  0  0  0
    2.1785   -0.7165    6.5855 H   0  0  0  0  0  0  0  0  0  0  0  0
    4.5409   -1.1871    3.8985 H   0  0  0  0  0  0  0  0  0  0  0  0
    2.4544    0.5627    3.0098 H   0  0  0  0  0  0  0  0  0  0  0  0
    4.1748    0.9337    2.9100 H   0  0  0  0  0  0  0  0  0  0  0  0
    2.5998   -1.6479    0.7985 H   0  0  0  0  0  0  0  0  0  0  0  0
    3.5187   -0.8633   -1.3613 H   0  0  0  0  0  0  0  0  0  0  0  0
    5.2956    0.2684   -0.6846 H   0  0  0  0  0  0  0  0  0  0  0  0
    3.2514   -3.2186   -0.8449 H   0  0  0  0  0  0  0  0  0  0  0  0
    2.1558   -3.6457   -2.3956 H   0  0  0  0  0  0  0  0  0  0  0  0
    2.1547   -3.2591   -4.1328 H   0  0  0  0  0  0  0  0  0  0  0  0
    2.4887   -2.0016   -2.9577 H   0  0  0  0  0  0  0  0  0  0  0  0
    6.1115   -3.6619    0.0448 H   0  0  0  0  0  0  0  0  0  0  0  0
    1.8355   -4.6606    0.2657 H   0  0  0  0  0  0  0  0  0  0  0  0
    1.6371   -5.7115    1.6761 H   0  0  0  0  0  0  0  0  0  0  0  0
    2.2462   -6.3791    0.1504 H   0  0  0  0  0  0  0  0  0  0  0  0
    5.3350   -6.0867    2.3453 H   0  0  0  0  0  0  0  0  0  0  0  0
    4.3401   -7.2370    1.4451 H   0  0  0  0  0  0  0  0  0  0  0  0
    3.7280   -6.5436    2.9585 H   0  0  0  0  0  0  0  0  0  0  0  0
    5.5484   -3.5632    2.3279 H   0  0  0  0  0  0  0  0  0  0  0  0
    5.4402   -1.2532    1.7690 H   0  0  0  0  0  0  0  0  0  0  0  0
  1  2  1  0
  1 24  1  0
  1 25  1  0
  1 26  1  0
  2  3  2  0
  2  4  1  0
  4  5  1  0
  5 23  1  0
  5  6  1  0
  5 27  1  1
  6  7  1  0
  6 28  1  0
  6 29  1  0
  7  8  1  0
  8 23  1  0
  8  9  1  0
  8 30  1  6
  9 10  1  0
  9 11  1  0
  9 31  1  6
 10 32  1  0
 11 12  1  0
 11 16  1  0
 11 33  1  6
 12 13  1  0
 13 14  1  0
 13 15  2  0
 14 34  1  0
 14 35  1  0
 14 36  1  0
 16 22  1  0
 16 17  1  0
 16 37  1  6
 17 18  1  0
 18 19  1  0
 18 20  1  0
 18 21  1  0
 19 38  1  0
 19 39  1  0
 19 40  1  0
 20 41  1  0
 20 42  1  0
 20 43  1  0
 21 22  1  0
 22 23  1  0
 22 44  1  1
 23 45  1  6
M  END
>  <i_m_ct_stereo_status>  (387) 
1

>  <s_m_source_file>  (387) 
/var/tmp/pbs.5076255.sched01/tmpo_pg7vmn/129owyy42_r.sdf

>  <i_m_source_file_index>  (387) 
23

>  <i_lp_mmshare_version>  (387) 
48012

>  <i_f3d_flags>  (387) 
0

>  <s_epik_input>  (387) 
W0NIM11DKD1PKU9bQ0BIXShbQ0gyXU8xKVtDQEhdKFtDQEBIXTEyKVtDQEBIXTNbQ0BASF0oT0MoTzMpKFtDSDNdKVtDSDNdKVtDQEBIXShbQ0BASF0yW09IXSlPQyg9TylbQ0gzXQ==

>  <s_epik_cmdline>  (387) 
J2VwaWtfcHl0aG9uJywgJy1waHQnLCAnMi4wJywgJy1waCcsICc3LjAnLCAnLXRuJywgJzgnLCAnLW1hJywgJzIwMCcsICctaW1hZScsICc8aW5maWxlLm1hZT4nLCAnLW9tYWUnLCAnPG91dGZpbGUubWFlPic=

>  <r_lp_tautomer_probability>  (387) 
1

>  <r_epik_Ionization_Penalty>  (387) 
8.16647e-06

>  <r_epik_Ionization_Penalty_Charging>  (387) 
0

>  <r_epik_Ionization_Penalty_Neutral>  (387) 
8.16647e-06

>  <r_epik_State_Penalty>  (387) 
-0

>  <r_epik_Charging_Adjusted_Penalty>  (387) 
0

>  <i_epik_Tot_Q>  (387) 
0

>  <i_epik_Tot_abs_Q>  (387) 
0

>  <s_epik_Chemistry_Notes>  (387) 
This compound has an ester and may undergo hydrolysis at high or low pH.

>  <s_lp_Force_Field>  (387) 
OPLS3e

>  <r_lp_Energy>  (387) 
-12.9035

>  <b_lp_Chiralities_Consistent>  (387) 
1

>  <s_lp_Variant>  (387) 
106:0-1

>  <s_i_glide_gridfile>  (387) 
pfpi4k_grid

>  <i_i_glide_lignum>  (387) 
23

>  <i_i_glide_rotatable_bonds>  (387) 
5

>  <r_i_docking_score>  (387) 
-3.40516

>  <r_i_glide_ligand_efficiency>  (387) 
-0.14805

>  <r_i_glide_ligand_efficiency_sa>  (387) 
-0.421036

>  <r_i_glide_ligand_efficiency_ln>  (387) 
-0.823399

>  <r_i_glide_gscore>  (387) 
-3.40516

>  <r_i_glide_lipo>  (387) 
-0.274231

>  <r_i_glide_hbond>  (387) 
-0.0224317

>  <r_i_glide_metal>  (387) 
-0

>  <r_i_glide_rewards>  (387) 
-1.28541

>  <r_i_glide_evdw>  (387) 
-25.8154

>  <r_i_glide_ecoul>  (387) 
-5.8468

>  <r_i_glide_erotb>  (387) 
0.344703

>  <r_i_glide_esite>  (387) 
0

>  <r_i_glide_emodel>  (387) 
-32.4695

>  <r_i_glide_energy>  (387) 
-31.6622

>  <r_i_glide_einternal>  (387) 
11.1526

>  <r_i_glide_intrahb_reward>  (387) 
-0

>  <i_i_glide_confnum>  (387) 
2

>  <i_i_glide_posenum>  (387) 
24

>  <r_i_glide_eff_state_penalty>  (387) 
0

>  <ligand_id>  (387) 
106

>  <original_smiles>  (387) 
CC(=O)OC1COC2C(O)C(OC(C)=O)C3OC(C)(C)OC3C12

>  <smiles>  (387) 
[H]OC1([H])C([H])(OC(=O)C([H])([H])[H])C2([H])OC(C([H])([H])[H])(C([H])([H])[H])OC2([H])C2([H])C([H])(OC(=O)C([H])([H])[H])C([H])([H])OC12[H]

$$$$
106:0:2
     RDKit          3D

 45 47  0  0  1  0  0  0  0  0999 V2000
    1.9068   -2.8968    5.2403 C   0  0  0  0  0  0  0  0  0  0  0  0
    3.3210   -2.3687    5.0403 C   0  0  0  0  0  0  0  0  0  0  0  0
    3.9981   -1.9600    5.9916 O   0  0  0  0  0  0  0  0  0  0  0  0
    3.7058   -2.4000    3.7591 O   0  0  0  0  0  0  0  0  0  0  0  0
    5.0109   -1.9705    3.3845 C   0  0  2  0  0  0  0  0  0  0  0  0
    4.9915   -0.4604    3.0677 C   0  0  0  0  0  0  0  0  0  0  0  0
    4.8391   -0.3234    1.6522 O   0  0  0  0  0  0  0  0  0  0  0  0
    4.6676   -1.6201    1.0980 C   0  0  1  0  0  0  0  0  0  0  0  0
    5.1104   -1.7922   -0.3619 C   0  0  1  0  0  0  0  0  0  0  0  0
    6.5106   -1.5538   -0.4854 O   0  0  0  0  0  0  0  0  0  0  0  0
    4.7578   -3.2559   -0.7422 C   0  0  1  0  0  0  0  0  0  0  0  0
    5.1503   -3.5300   -2.0915 O   0  0  0  0  0  0  0  0  0  0  0  0
    4.3279   -3.4208   -3.1480 C   0  0  0  0  0  0  0  0  0  0  0  0
    3.0069   -2.6902   -2.9368 C   0  0  0  0  0  0  0  0  0  0  0  0
    4.6127   -3.8531   -4.2748 O   0  0  0  0  0  0  0  0  0  0  0  0
    5.3453   -4.3466    0.1954 C   0  0  2  0  0  0  0  0  0  0  0  0
    4.4840   -5.4671    0.0599 O   0  0  0  0  0  0  0  0  0  0  0  0
    3.7093   -5.5788    1.2080 C   0  0  0  0  0  0  0  0  0  0  0  0
    2.2165   -5.4648    0.8556 C   0  0  0  0  0  0  0  0  0  0  0  0
    4.0412   -6.9322    1.8633 C   0  0  0  0  0  0  0  0  0  0  0  0
    3.9902   -4.5413    2.0727 O   0  0  0  0  0  0  0  0  0  0  0  0
    5.2541   -4.0384    1.7107 C   0  0  2  0  0  0  0  0  0  0  0  0
    5.4236   -2.5391    2.0301 C   0  0  2  0  0  0  0  0  0  0  0  0
    1.8225   -3.8990    4.8234 H   0  0  0  0  0  0  0  0  0  0  0  0
    1.1907   -2.2498    4.7335 H   0  0  0  0  0  0  0  0  0  0  0  0
    1.6537   -2.9373    6.2973 H   0  0  0  0  0  0  0  0  0  0  0  0
    5.7358   -2.2308    4.1543 H   0  0  0  0  0  0  0  0  0  0  0  0
    4.2086    0.0762    3.6101 H   0  0  0  0  0  0  0  0  0  0  0  0
    5.9531   -0.0131    3.3342 H   0  0  0  0  0  0  0  0  0  0  0  0
    3.5986   -1.8396    1.1609 H   0  0  0  0  0  0  0  0  0  0  0  0
    4.5684   -1.0883   -0.9878 H   0  0  0  0  0  0  0  0  0  0  0  0
    6.9679   -2.0908    0.1222 H   0  0  0  0  0  0  0  0  0  0  0  0
    3.6798   -3.3478   -0.6540 H   0  0  0  0  0  0  0  0  0  0  0  0
    2.3920   -3.2153   -2.1960 H   0  0  0  0  0  0  0  0  0  0  0  0
    2.4649   -2.5988   -3.8714 H   0  0  0  0  0  0  0  0  0  0  0  0
    3.1886   -1.6763   -2.5793 H   0  0  0  0  0  0  0  0  0  0  0  0
    6.3707   -4.6273   -0.0772 H   0  0  0  0  0  0  0  0  0  0  0  0
    2.0161   -4.4845    0.4349 H   0  0  0  0  0  0  0  0  0  0  0  0
    1.6261   -5.5780    1.7678 H   0  0  0  0  0  0  0  0  0  0  0  0
    1.9275   -6.2368    0.1468 H   0  0  0  0  0  0  0  0  0  0  0  0
    5.1096   -6.9909    2.0737 H   0  0  0  0  0  0  0  0  0  0  0  0
    3.7815   -7.7322    1.1748 H   0  0  0  0  0  0  0  0  0  0  0  0
    3.4810   -7.0641    2.7914 H   0  0  0  0  0  0  0  0  0  0  0  0
    5.9961   -4.6275    2.2513 H   0  0  0  0  0  0  0  0  0  0  0  0
    6.4848   -2.3170    1.9228 H   0  0  0  0  0  0  0  0  0  0  0  0
  1  2  1  0
  1 24  1  0
  1 25  1  0
  1 26  1  0
  2  3  2  0
  2  4  1  0
  4  5  1  0
  5 23  1  0
  5  6  1  0
  5 27  1  1
  6  7  1  0
  6 28  1  0
  6 29  1  0
  7  8  1  0
  8 23  1  0
  8  9  1  0
  8 30  1  6
  9 10  1  0
  9 11  1  0
  9 31  1  6
 10 32  1  0
 11 12  1  0
 11 16  1  0
 11 33  1  6
 12 13  1  0
 13 14  1  0
 13 15  2  0
 14 34  1  0
 14 35  1  0
 14 36  1  0
 16 22  1  0
 16 17  1  0
 16 37  1  6
 17 18  1  0
 18 19  1  0
 18 20  1  0
 18 21  1  0
 19 38  1  0
 19 39  1  0
 19 40  1  0
 20 41  1  0
 20 42  1  0
 20 43  1  0
 21 22  1  0
 22 23  1  0
 22 44  1  1
 23 45  1  6
M  END
>  <i_m_ct_stereo_status>  (388) 
1

>  <s_m_source_file>  (388) 
/var/tmp/pbs.5076255.sched01/tmpo_pg7vmn/129owyy42_r.sdf

>  <i_m_source_file_index>  (388) 
23

>  <i_lp_mmshare_version>  (388) 
48012

>  <i_f3d_flags>  (388) 
0

>  <s_epik_input>  (388) 
W0NIM11DKD1PKU9bQ0BIXShbQ0gyXU8xKVtDQEhdKFtDQEBIXTEyKVtDQEBIXTNbQ0BASF0oT0MoTzMpKFtDSDNdKVtDSDNdKVtDQEBIXShbQ0BASF0yW09IXSlPQyg9TylbQ0gzXQ==

>  <s_epik_cmdline>  (388) 
J2VwaWtfcHl0aG9uJywgJy1waHQnLCAnMi4wJywgJy1waCcsICc3LjAnLCAnLXRuJywgJzgnLCAnLW1hJywgJzIwMCcsICctaW1hZScsICc8aW5maWxlLm1hZT4nLCAnLW9tYWUnLCAnPG91dGZpbGUubWFlPic=

>  <r_lp_tautomer_probability>  (388) 
1

>  <r_epik_Ionization_Penalty>  (388) 
8.16647e-06

>  <r_epik_Ionization_Penalty_Charging>  (388) 
0

>  <r_epik_Ionization_Penalty_Neutral>  (388) 
8.16647e-06

>  <r_epik_State_Penalty>  (388) 
-0

>  <r_epik_Charging_Adjusted_Penalty>  (388) 
0

>  <i_epik_Tot_Q>  (388) 
0

>  <i_epik_Tot_abs_Q>  (388) 
0

>  <s_epik_Chemistry_Notes>  (388) 
This compound has an ester and may undergo hydrolysis at high or low pH.

>  <s_lp_Force_Field>  (388) 
OPLS3e

>  <r_lp_Energy>  (388) 
-12.9035

>  <b_lp_Chiralities_Consistent>  (388) 
1

>  <s_lp_Variant>  (388) 
106:0-1

>  <s_i_glide_gridfile>  (388) 
pfpi4k_grid

>  <i_i_glide_lignum>  (388) 
23

>  <i_i_glide_rotatable_bonds>  (388) 
5

>  <r_i_docking_score>  (388) 
-3.34398

>  <r_i_glide_ligand_efficiency>  (388) 
-0.145391

>  <r_i_glide_ligand_efficiency_sa>  (388) 
-0.413471

>  <r_i_glide_ligand_efficiency_ln>  (388) 
-0.808606

>  <r_i_glide_gscore>  (388) 
-3.34398

>  <r_i_glide_lipo>  (388) 
-0.450655

>  <r_i_glide_hbond>  (388) 
-0.0449783

>  <r_i_glide_metal>  (388) 
-0

>  <r_i_glide_rewards>  (388) 
-1.29192

>  <r_i_glide_evdw>  (388) 
-25.8927

>  <r_i_glide_ecoul>  (388) 
-4.04335

>  <r_i_glide_erotb>  (388) 
0.344703

>  <r_i_glide_esite>  (388) 
0

>  <r_i_glide_emodel>  (388) 
-33.8944

>  <r_i_glide_energy>  (388) 
-29.9361

>  <r_i_glide_einternal>  (388) 
5.33799

>  <r_i_glide_intrahb_reward>  (388) 
-0

>  <i_i_glide_confnum>  (388) 
2

>  <i_i_glide_posenum>  (388) 
25

>  <r_i_glide_eff_state_penalty>  (388) 
0

>  <ligand_id>  (388) 
106

>  <original_smiles>  (388) 
CC(=O)OC1COC2C(O)C(OC(C)=O)C3OC(C)(C)OC3C12

>  <smiles>  (388) 
[H]OC1([H])C([H])(OC(=O)C([H])([H])[H])C2([H])OC(C([H])([H])[H])(C([H])([H])[H])OC2([H])C2([H])C([H])(OC(=O)C([H])([H])[H])C([H])([H])OC12[H]

$$$$
107:0:0
     RDKit          3D

 39 42  0  0  1  0  0  0  0  0999 V2000
    2.3590   -3.0571   -3.0084 C   0  0  0  0  0  0  0  0  0  0  0  0
    3.3794   -2.6164   -1.9819 C   0  0  0  0  0  0  0  0  0  0  0  0
    3.7659   -3.2372   -0.8670 C   0  0  0  0  0  0  0  0  0  0  0  0
    3.2518   -4.5683   -0.3005 C   0  0  0  0  0  0  0  0  0  0  0  0
    3.0473   -4.5254    1.2051 C   0  0  1  0  0  0  0  0  0  0  0  0
    1.9627   -5.2196    1.7554 O   0  0  0  0  0  0  0  0  0  0  0  0
    4.2813   -4.6100    1.9143 O   0  0  0  0  0  0  0  0  0  0  0  0
    3.5640   -3.3884    2.0557 C   0  0  2  0  0  0  0  0  0  0  0  0
    3.3466   -3.0185    3.5284 C   0  0  1  0  0  0  0  0  0  0  0  0
    3.3725   -4.1854    4.5369 C   0  0  0  0  0  0  0  0  0  0  0  0
    4.4358   -1.9677    3.8412 C   0  0  0  0  0  0  0  0  0  0  0  0
    4.9106   -1.4924    2.4711 C   0  0  0  0  0  0  0  0  0  0  0  0
    5.8037   -0.6666    2.3006 O   0  0  0  0  0  0  0  0  0  0  0  0
    4.0858   -2.1464    1.3598 C   0  0  2  0  0  0  0  0  0  0  0  0
    2.9528   -1.3170    1.1584 O   0  0  0  0  0  0  0  0  0  0  0  0
    4.7544   -2.4101   -0.0462 C   0  0  1  0  0  0  0  0  0  0  0  0
    6.1266   -3.1271    0.0109 C   0  0  0  0  0  0  0  0  0  0  0  0
    4.9213   -1.1171   -0.9084 C   0  0  0  0  0  0  0  0  0  0  0  0
    4.0287   -1.2766   -2.1619 C   0  0  0  0  0  0  0  0  0  0  0  0
    2.8127   -3.1050   -3.9967 H   0  0  0  0  0  0  0  0  0  0  0  0
    1.5356   -2.3543   -3.0412 H   0  0  0  0  0  0  0  0  0  0  0  0
    1.9338   -4.0340   -2.7776 H   0  0  0  0  0  0  0  0  0  0  0  0
    2.3166   -4.8549   -0.7681 H   0  0  0  0  0  0  0  0  0  0  0  0
    4.0012   -5.3302   -0.5432 H   0  0  0  0  0  0  0  0  0  0  0  0
    1.9023   -4.9144    2.6584 H   0  0  0  0  0  0  0  0  0  0  0  0
    2.3710   -2.5224    3.5895 H   0  0  0  0  0  0  0  0  0  0  0  0
    4.3490   -4.6706    4.5723 H   0  0  0  0  0  0  0  0  0  0  0  0
    2.6296   -4.9451    4.3044 H   0  0  0  0  0  0  0  0  0  0  0  0
    3.1558   -3.8221    5.5437 H   0  0  0  0  0  0  0  0  0  0  0  0
    4.0416   -1.1324    4.4235 H   0  0  0  0  0  0  0  0  0  0  0  0
    5.2825   -2.3866    4.3855 H   0  0  0  0  0  0  0  0  0  0  0  0
    2.4618   -1.6213    0.3992 H   0  0  0  0  0  0  0  0  0  0  0  0
    6.8707   -2.5296    0.5395 H   0  0  0  0  0  0  0  0  0  0  0  0
    6.5088   -3.2920   -0.9973 H   0  0  0  0  0  0  0  0  0  0  0  0
    6.0918   -4.1071    0.4845 H   0  0  0  0  0  0  0  0  0  0  0  0
    4.6669   -0.2079   -0.3610 H   0  0  0  0  0  0  0  0  0  0  0  0
    5.9539   -0.9911   -1.2307 H   0  0  0  0  0  0  0  0  0  0  0  0
    4.6023   -1.2578   -3.0890 H   0  0  0  0  0  0  0  0  0  0  0  0
    3.2578   -0.5103   -2.2300 H   0  0  0  0  0  0  0  0  0  0  0  0
  1  2  1  0
  1 20  1  0
  1 21  1  0
  1 22  1  0
  2 19  1  0
  2  3  2  0
  3 16  1  0
  3  4  1  0
  4  5  1  0
  4 23  1  0
  4 24  1  0
  5  8  1  0
  5  6  1  1
  5  7  1  0
  6 25  1  0
  8  7  1  1
  8 14  1  0
  8  9  1  0
  9 10  1  0
  9 11  1  0
  9 26  1  6
 10 27  1  0
 10 28  1  0
 10 29  1  0
 11 12  1  0
 11 30  1  0
 11 31  1  0
 12 13  2  0
 12 14  1  0
 14 15  1  6
 14 16  1  0
 15 32  1  0
 16 17  1  1
 16 18  1  0
 17 33  1  0
 17 34  1  0
 17 35  1  0
 18 19  1  0
 18 36  1  0
 18 37  1  0
 19 38  1  0
 19 39  1  0
M  END
>  <i_m_ct_stereo_status>  (389) 
1

>  <s_m_source_file>  (389) 
/var/tmp/pbs.5076255.sched01/tmpo_pg7vmn/129owyy42_r.sdf

>  <i_m_source_file_index>  (389) 
24

>  <i_lp_mmshare_version>  (389) 
48012

>  <i_f3d_flags>  (389) 
0

>  <s_epik_input>  (389) 
W0NIM11DPTFbQ0gyXVtDSDJdW0NAXShbQ0gzXSkoQzFbQ0gyXVtDQEBdKE8yKShbQ0BdMjM0KVtPSF0pW0NAXTQoW09IXSlDKD1PKVtDSDJdW0NAQEhdM1tDSDNd

>  <s_epik_cmdline>  (389) 
J2VwaWtfcHl0aG9uJywgJy1waHQnLCAnMi4wJywgJy1waCcsICc3LjAnLCAnLXRuJywgJzgnLCAnLW1hJywgJzIwMCcsICctaW1hZScsICc8aW5maWxlLm1hZT4nLCAnLW9tYWUnLCAnPG91dGZpbGUubWFlPic=

>  <r_lp_tautomer_probability>  (389) 
1

>  <r_epik_Ionization_Penalty>  (389) 
2.43782e-05

>  <r_epik_Ionization_Penalty_Charging>  (389) 
0

>  <r_epik_Ionization_Penalty_Neutral>  (389) 
2.43782e-05

>  <r_epik_State_Penalty>  (389) 
-0

>  <r_epik_Charging_Adjusted_Penalty>  (389) 
0

>  <i_epik_Tot_Q>  (389) 
0

>  <i_epik_Tot_abs_Q>  (389) 
0

>  <s_lp_Force_Field>  (389) 
OPLS3e

>  <r_lp_Energy>  (389) 
13.2912

>  <b_lp_Chiralities_Consistent>  (389) 
1

>  <s_lp_Variant>  (389) 
107:0-1

>  <s_i_glide_gridfile>  (389) 
pfpi4k_grid

>  <i_i_glide_lignum>  (389) 
24

>  <i_i_glide_rotatable_bonds>  (389) 
2

>  <r_i_docking_score>  (389) 
-3.42832

>  <r_i_glide_ligand_efficiency>  (389) 
-0.180438

>  <r_i_glide_ligand_efficiency_sa>  (389) 
-0.48148

>  <r_i_glide_ligand_efficiency_ln>  (389) 
-0.869152

>  <r_i_glide_gscore>  (389) 
-3.42832

>  <r_i_glide_lipo>  (389) 
-0.252909

>  <r_i_glide_hbond>  (389) 
0

>  <r_i_glide_metal>  (389) 
-0

>  <r_i_glide_rewards>  (389) 
-1.71219

>  <r_i_glide_evdw>  (389) 
-19.9933

>  <r_i_glide_ecoul>  (389) 
-3.05734

>  <r_i_glide_erotb>  (389) 
0

>  <r_i_glide_esite>  (389) 
-0.00495877

>  <r_i_glide_emodel>  (389) 
-27.6213

>  <r_i_glide_energy>  (389) 
-23.0506

>  <r_i_glide_einternal>  (389) 
0.868656

>  <r_i_glide_intrahb_reward>  (389) 
-0

>  <i_i_glide_confnum>  (389) 
2

>  <i_i_glide_posenum>  (389) 
1

>  <r_i_glide_eff_state_penalty>  (389) 
0

>  <ligand_id>  (389) 
107

>  <original_smiles>  (389) 
CC1=C2CC3(O)OC34C(C)CC(=O)C4(O)C2(C)CC1

>  <smiles>  (389) 
[H]OC12OC13C(O[H])(C(=O)C([H])([H])C3([H])C([H])([H])[H])C1(C([H])([H])[H])C(=C(C([H])([H])[H])C([H])([H])C1([H])[H])C2([H])[H]

$$$$
107:0:1
     RDKit          3D

 39 42  0  0  1  0  0  0  0  0999 V2000
    4.6206   -3.8763   -3.5711 C   0  0  0  0  0  0  0  0  0  0  0  0
    4.5453   -3.0230   -2.3277 C   0  0  0  0  0  0  0  0  0  0  0  0
    4.7981   -3.3644   -1.0568 C   0  0  0  0  0  0  0  0  0  0  0  0
    5.1923   -4.7399   -0.5152 C   0  0  0  0  0  0  0  0  0  0  0  0
    4.4683   -5.0703    0.7827 C   0  0  1  0  0  0  0  0  0  0  0  0
    3.9977   -6.3927    0.9742 O   0  0  0  0  0  0  0  0  0  0  0  0
    5.0243   -4.3936    1.9209 O   0  0  0  0  0  0  0  0  0  0  0  0
    3.6779   -4.0564    1.5707 C   0  0  2  0  0  0  0  0  0  0  0  0
    2.7206   -4.1840    2.7608 C   0  0  1  0  0  0  0  0  0  0  0  0
    3.1587   -5.1519    3.8819 C   0  0  0  0  0  0  0  0  0  0  0  0
    2.5369   -2.7414    3.2689 C   0  0  0  0  0  0  0  0  0  0  0  0
    3.0095   -1.8683    2.1148 C   0  0  0  0  0  0  0  0  0  0  0  0
    3.0625   -0.6424    2.1579 O   0  0  0  0  0  0  0  0  0  0  0  0
    3.3958   -2.7242    0.9090 C   0  0  2  0  0  0  0  0  0  0  0  0
    2.2235   -2.9663    0.1405 O   0  0  0  0  0  0  0  0  0  0  0  0
    4.5218   -2.2330   -0.0761 C   0  0  1  0  0  0  0  0  0  0  0  0
    5.8396   -1.7883    0.6097 C   0  0  0  0  0  0  0  0  0  0  0  0
    4.0626   -1.0719   -1.0159 C   0  0  0  0  0  0  0  0  0  0  0  0
    4.0748   -1.6048   -2.4643 C   0  0  0  0  0  0  0  0  0  0  0  0
    5.3086   -3.4542   -4.2963 H   0  0  0  0  0  0  0  0  0  0  0  0
    3.6383   -3.9625   -4.0323 H   0  0  0  0  0  0  0  0  0  0  0  0
    4.9795   -4.8787   -3.3496 H   0  0  0  0  0  0  0  0  0  0  0  0
    5.0159   -5.5151   -1.2581 H   0  0  0  0  0  0  0  0  0  0  0  0
    6.2634   -4.7232   -0.3214 H   0  0  0  0  0  0  0  0  0  0  0  0
    4.7006   -7.0007    0.8106 H   0  0  0  0  0  0  0  0  0  0  0  0
    1.7704   -4.5418    2.3622 H   0  0  0  0  0  0  0  0  0  0  0  0
    4.0825   -4.8276    4.3659 H   0  0  0  0  0  0  0  0  0  0  0  0
    3.3151   -6.1654    3.5106 H   0  0  0  0  0  0  0  0  0  0  0  0
    2.3913   -5.2127    4.6581 H   0  0  0  0  0  0  0  0  0  0  0  0
    1.4959   -2.5341    3.5178 H   0  0  0  0  0  0  0  0  0  0  0  0
    3.1408   -2.5415    4.1523 H   0  0  0  0  0  0  0  0  0  0  0  0
    1.9173   -2.1307   -0.2206 H   0  0  0  0  0  0  0  0  0  0  0  0
    5.6809   -0.9333    1.2722 H   0  0  0  0  0  0  0  0  0  0  0  0
    6.5739   -1.4795   -0.1341 H   0  0  0  0  0  0  0  0  0  0  0  0
    6.3177   -2.5715    1.1964 H   0  0  0  0  0  0  0  0  0  0  0  0
    3.0742   -0.6883   -0.7578 H   0  0  0  0  0  0  0  0  0  0  0  0
    4.7385   -0.2240   -0.9468 H   0  0  0  0  0  0  0  0  0  0  0  0
    4.7591   -1.0477   -3.1016 H   0  0  0  0  0  0  0  0  0  0  0  0
    3.0812   -1.5756   -2.9123 H   0  0  0  0  0  0  0  0  0  0  0  0
  1  2  1  0
  1 20  1  0
  1 21  1  0
  1 22  1  0
  2 19  1  0
  2  3  2  0
  3 16  1  0
  3  4  1  0
  4  5  1  0
  4 23  1  0
  4 24  1  0
  5  8  1  0
  5  6  1  1
  5  7  1  0
  6 25  1  0
  8  7  1  1
  8 14  1  0
  8  9  1  0
  9 10  1  0
  9 11  1  0
  9 26  1  6
 10 27  1  0
 10 28  1  0
 10 29  1  0
 11 12  1  0
 11 30  1  0
 11 31  1  0
 12 13  2  0
 12 14  1  0
 14 15  1  6
 14 16  1  0
 15 32  1  0
 16 17  1  1
 16 18  1  0
 17 33  1  0
 17 34  1  0
 17 35  1  0
 18 19  1  0
 18 36  1  0
 18 37  1  0
 19 38  1  0
 19 39  1  0
M  END
>  <i_m_ct_stereo_status>  (390) 
1

>  <s_m_source_file>  (390) 
/var/tmp/pbs.5076255.sched01/tmpo_pg7vmn/129owyy42_r.sdf

>  <i_m_source_file_index>  (390) 
24

>  <i_lp_mmshare_version>  (390) 
48012

>  <i_f3d_flags>  (390) 
0

>  <s_epik_input>  (390) 
W0NIM11DPTFbQ0gyXVtDSDJdW0NAXShbQ0gzXSkoQzFbQ0gyXVtDQEBdKE8yKShbQ0BdMjM0KVtPSF0pW0NAXTQoW09IXSlDKD1PKVtDSDJdW0NAQEhdM1tDSDNd

>  <s_epik_cmdline>  (390) 
J2VwaWtfcHl0aG9uJywgJy1waHQnLCAnMi4wJywgJy1waCcsICc3LjAnLCAnLXRuJywgJzgnLCAnLW1hJywgJzIwMCcsICctaW1hZScsICc8aW5maWxlLm1hZT4nLCAnLW9tYWUnLCAnPG91dGZpbGUubWFlPic=

>  <r_lp_tautomer_probability>  (390) 
1

>  <r_epik_Ionization_Penalty>  (390) 
2.43782e-05

>  <r_epik_Ionization_Penalty_Charging>  (390) 
0

>  <r_epik_Ionization_Penalty_Neutral>  (390) 
2.43782e-05

>  <r_epik_State_Penalty>  (390) 
-0

>  <r_epik_Charging_Adjusted_Penalty>  (390) 
0

>  <i_epik_Tot_Q>  (390) 
0

>  <i_epik_Tot_abs_Q>  (390) 
0

>  <s_lp_Force_Field>  (390) 
OPLS3e

>  <r_lp_Energy>  (390) 
13.2912

>  <b_lp_Chiralities_Consistent>  (390) 
1

>  <s_lp_Variant>  (390) 
107:0-1

>  <s_i_glide_gridfile>  (390) 
pfpi4k_grid

>  <i_i_glide_lignum>  (390) 
24

>  <i_i_glide_rotatable_bonds>  (390) 
2

>  <r_i_docking_score>  (390) 
-3.32948

>  <r_i_glide_ligand_efficiency>  (390) 
-0.175236

>  <r_i_glide_ligand_efficiency_sa>  (390) 
-0.467599

>  <r_i_glide_ligand_efficiency_ln>  (390) 
-0.844093

>  <r_i_glide_gscore>  (390) 
-3.32948

>  <r_i_glide_lipo>  (390) 
-0.203394

>  <r_i_glide_hbond>  (390) 
0

>  <r_i_glide_metal>  (390) 
-0

>  <r_i_glide_rewards>  (390) 
-1.66956

>  <r_i_glide_evdw>  (390) 
-18.7113

>  <r_i_glide_ecoul>  (390) 
-3.40197

>  <r_i_glide_erotb>  (390) 
0

>  <r_i_glide_esite>  (390) 
-0.0106574

>  <r_i_glide_emodel>  (390) 
-26.0991

>  <r_i_glide_energy>  (390) 
-22.1133

>  <r_i_glide_einternal>  (390) 
1.59236

>  <r_i_glide_intrahb_reward>  (390) 
-0

>  <i_i_glide_confnum>  (390) 
2

>  <i_i_glide_posenum>  (390) 
25

>  <r_i_glide_eff_state_penalty>  (390) 
0

>  <ligand_id>  (390) 
107

>  <original_smiles>  (390) 
CC1=C2CC3(O)OC34C(C)CC(=O)C4(O)C2(C)CC1

>  <smiles>  (390) 
[H]OC12OC13C(O[H])(C(=O)C([H])([H])C3([H])C([H])([H])[H])C1(C([H])([H])[H])C(=C(C([H])([H])[H])C([H])([H])C1([H])[H])C2([H])[H]

$$$$
107:0:2
     RDKit          3D

 39 42  0  0  1  0  0  0  0  0999 V2000
    2.8811   -0.6956   -4.0358 C   0  0  0  0  0  0  0  0  0  0  0  0
    3.6935   -1.2244   -2.8868 C   0  0  0  0  0  0  0  0  0  0  0  0
    3.6712   -2.3446   -2.2156 C   0  0  0  0  0  0  0  0  0  0  0  0
    2.7177   -3.4272   -2.4482 C   0  0  0  0  0  0  0  0  0  0  0  0
    2.3010   -4.0637   -1.1193 C   0  0  1  0  0  0  0  0  0  0  0  0
    1.0531   -4.7521   -1.1146 O   0  0  0  0  0  0  0  0  0  0  0  0
    3.4049   -4.8512   -0.5336 O   0  0  0  0  0  0  0  0  0  0  0  0
    2.8857   -3.7450    0.2096 C   0  0  2  0  0  0  0  0  0  0  0  0
    2.5829   -4.1878    1.6358 C   0  0  1  0  0  0  0  0  0  0  0  0
    2.1194   -5.6652    1.7929 C   0  0  0  0  0  0  0  0  0  0  0  0
    3.8454   -3.8639    2.4487 C   0  0  0  0  0  0  0  0  0  0  0  0
    4.6430   -2.9158    1.5578 C   0  0  0  0  0  0  0  0  0  0  0  0
    5.7589   -2.4684    1.8314 O   0  0  0  0  0  0  0  0  0  0  0  0
    3.8620   -2.6054    0.2863 C   0  0  2  0  0  0  0  0  0  0  0  0
    3.0131   -1.4972    0.4979 O   0  0  0  0  0  0  0  0  0  0  0  0
    4.6614   -2.4212   -1.0737 C   0  0  1  0  0  0  0  0  0  0  0  0
    5.8002   -3.4331   -1.4136 C   0  0  0  0  0  0  0  0  0  0  0  0
    5.3286   -1.0560   -1.1052 C   0  0  0  0  0  0  0  0  0  0  0  0
    4.6800   -0.3262   -2.2740 C   0  0  0  0  0  0  0  0  0  0  0  0
    3.4725   -0.3432   -4.8938 H   0  0  0  0  0  0  0  0  0  0  0  0
    2.3076    0.1849   -3.7012 H   0  0  0  0  0  0  0  0  0  0  0  0
    2.1590   -1.4280   -4.3927 H   0  0  0  0  0  0  0  0  0  0  0  0
    1.8634   -3.1369   -3.0635 H   0  0  0  0  0  0  0  0  0  0  0  0
    3.3165   -4.1277   -3.0372 H   0  0  0  0  0  0  0  0  0  0  0  0
    0.7783   -4.6851   -2.0210 H   0  0  0  0  0  0  0  0  0  0  0  0
    1.7818   -3.5274    1.9281 H   0  0  0  0  0  0  0  0  0  0  0  0
    2.9032   -6.3968    1.5715 H   0  0  0  0  0  0  0  0  0  0  0  0
    1.2683   -5.9187    1.1615 H   0  0  0  0  0  0  0  0  0  0  0  0
    1.8029   -5.8375    2.8221 H   0  0  0  0  0  0  0  0  0  0  0  0
    3.5526   -3.3646    3.3702 H   0  0  0  0  0  0  0  0  0  0  0  0
    4.4298   -4.7607    2.6674 H   0  0  0  0  0  0  0  0  0  0  0  0
    2.4084   -1.4256   -0.2391 H   0  0  0  0  0  0  0  0  0  0  0  0
    6.5784   -3.4379   -0.6424 H   0  0  0  0  0  0  0  0  0  0  0  0
    6.3100   -3.1569   -2.3437 H   0  0  0  0  0  0  0  0  0  0  0  0
    5.4443   -4.4464   -1.5570 H   0  0  0  0  0  0  0  0  0  0  0  0
    5.2252   -0.4486   -0.1840 H   0  0  0  0  0  0  0  0  0  0  0  0
    6.3945   -1.1301   -1.2903 H   0  0  0  0  0  0  0  0  0  0  0  0
    5.4113   -0.1138   -3.0058 H   0  0  0  0  0  0  0  0  0  0  0  0
    4.2228    0.5719   -1.9465 H   0  0  0  0  0  0  0  0  0  0  0  0
  1  2  1  0
  1 20  1  0
  1 21  1  0
  1 22  1  0
  2 19  1  0
  2  3  2  0
  3 16  1  0
  3  4  1  0
  4  5  1  0
  4 23  1  0
  4 24  1  0
  5  8  1  0
  5  6  1  1
  5  7  1  0
  6 25  1  0
  8  7  1  6
  8 14  1  0
  8  9  1  0
  9 10  1  0
  9 11  1  0
  9 26  1  1
 10 27  1  0
 10 28  1  0
 10 29  1  0
 11 12  1  0
 11 30  1  0
 11 31  1  0
 12 13  2  0
 12 14  1  0
 14 15  1  1
 14 16  1  0
 15 32  1  0
 16 17  1  6
 16 18  1  0
 17 33  1  0
 17 34  1  0
 17 35  1  0
 18 19  1  0
 18 36  1  0
 18 37  1  0
 19 38  1  0
 19 39  1  0
M  END
>  <i_m_ct_stereo_status>  (391) 
1

>  <s_m_source_file>  (391) 
/var/tmp/pbs.5076255.sched01/tmpo_pg7vmn/129owyy42_r.sdf

>  <i_m_source_file_index>  (391) 
24

>  <i_lp_mmshare_version>  (391) 
48012

>  <i_f3d_flags>  (391) 
0

>  <s_epik_input>  (391) 
W0NIM11DPTFbQ0gyXVtDSDJdW0NAXShbQ0gzXSkoQzFbQ0gyXVtDQEBdKE8yKShbQ0BdMjM0KVtPSF0pW0NAXTQoW09IXSlDKD1PKVtDSDJdW0NAQEhdM1tDSDNd

>  <s_epik_cmdline>  (391) 
J2VwaWtfcHl0aG9uJywgJy1waHQnLCAnMi4wJywgJy1waCcsICc3LjAnLCAnLXRuJywgJzgnLCAnLW1hJywgJzIwMCcsICctaW1hZScsICc8aW5maWxlLm1hZT4nLCAnLW9tYWUnLCAnPG91dGZpbGUubWFlPic=

>  <r_lp_tautomer_probability>  (391) 
1

>  <r_epik_Ionization_Penalty>  (391) 
2.43782e-05

>  <r_epik_Ionization_Penalty_Charging>  (391) 
0

>  <r_epik_Ionization_Penalty_Neutral>  (391) 
2.43782e-05

>  <r_epik_State_Penalty>  (391) 
-0

>  <r_epik_Charging_Adjusted_Penalty>  (391) 
0

>  <i_epik_Tot_Q>  (391) 
0

>  <i_epik_Tot_abs_Q>  (391) 
0

>  <s_lp_Force_Field>  (391) 
OPLS3e

>  <r_lp_Energy>  (391) 
13.2912

>  <b_lp_Chiralities_Consistent>  (391) 
1

>  <s_lp_Variant>  (391) 
107:0-1

>  <s_i_glide_gridfile>  (391) 
pfpi4k_grid

>  <i_i_glide_lignum>  (391) 
24

>  <i_i_glide_rotatable_bonds>  (391) 
2

>  <r_i_docking_score>  (391) 
-3.04478

>  <r_i_glide_ligand_efficiency>  (391) 
-0.160252

>  <r_i_glide_ligand_efficiency_sa>  (391) 
-0.427616

>  <r_i_glide_ligand_efficiency_ln>  (391) 
-0.771917

>  <r_i_glide_gscore>  (391) 
-3.04478

>  <r_i_glide_lipo>  (391) 
-0.343225

>  <r_i_glide_hbond>  (391) 
0

>  <r_i_glide_metal>  (391) 
-0

>  <r_i_glide_rewards>  (391) 
-1.6393

>  <r_i_glide_evdw>  (391) 
4.46286

>  <r_i_glide_ecoul>  (391) 
-8.28213

>  <r_i_glide_erotb>  (391) 
0

>  <r_i_glide_esite>  (391) 
-0.0430791

>  <r_i_glide_emodel>  (391) 
-5.85149

>  <r_i_glide_energy>  (391) 
-3.81927

>  <r_i_glide_einternal>  (391) 
0.786772

>  <r_i_glide_intrahb_reward>  (391) 
-0

>  <i_i_glide_confnum>  (391) 
2

>  <i_i_glide_posenum>  (391) 
16

>  <r_i_glide_eff_state_penalty>  (391) 
0

>  <ligand_id>  (391) 
107

>  <original_smiles>  (391) 
CC1=C2CC3(O)OC34C(C)CC(=O)C4(O)C2(C)CC1

>  <smiles>  (391) 
[H]OC12OC13C(O[H])(C(=O)C([H])([H])C3([H])C([H])([H])[H])C1(C([H])([H])[H])C(=C(C([H])([H])[H])C([H])([H])C1([H])[H])C2([H])[H]

$$$$
108:0:0
     RDKit          3D

 25 27  0  0  1  0  0  0  0  0999 V2000
   -6.1285   -3.8538   -4.5214 C   0  0  0  0  0  0  0  0  0  0  0  0
   -6.4857   -5.2170   -4.8792 N   0  0  0  0  0  0  0  0  0  0  0  0
   -5.7529   -6.3578   -4.6261 C   0  0  0  0  0  0  0  0  0  0  0  0
   -6.1810   -7.3353   -5.4222 C   0  0  0  0  0  0  0  0  0  0  0  0
   -5.6289   -8.5790   -5.9250 C   0  0  0  0  0  0  0  0  0  0  0  0
   -4.6235   -9.4609   -5.4897 C   0  0  0  0  0  0  0  0  0  0  0  0
   -4.3524  -10.6066   -6.1646 N   0  0  0  0  0  0  0  0  0  0  0  0
   -5.0625  -10.8759   -7.2928 C   0  0  0  0  0  0  0  0  0  0  0  0
   -6.0422  -10.0235   -7.8310 C   0  0  0  0  0  0  0  0  0  0  0  0
   -6.3013   -8.8414   -7.1336 C   0  0  0  0  0  0  0  0  0  0  0  0
   -7.2809   -7.7471   -7.5151 C   0  0  0  0  0  0  0  0  0  0  0  0
   -7.3591   -6.9184   -6.2206 C   0  0  2  0  0  0  0  0  0  0  0  0
   -7.2605   -5.4007   -6.1128 C   0  0  0  0  0  0  0  0  0  0  0  0
   -5.7936   -3.7910   -3.4909 H   0  0  0  0  0  0  0  0  0  0  0  0
   -6.9855   -3.1969   -4.6481 H   0  0  0  0  0  0  0  0  0  0  0  0
   -5.3305   -3.4976   -5.1668 H   0  0  0  0  0  0  0  0  0  0  0  0
   -4.8606   -6.3013   -4.0204 H   0  0  0  0  0  0  0  0  0  0  0  0
   -4.0409   -9.2744   -4.5990 H   0  0  0  0  0  0  0  0  0  0  0  0
   -4.8187  -11.8065   -7.7922 H   0  0  0  0  0  0  0  0  0  0  0  0
   -6.5831  -10.2659   -8.7461 H   0  0  0  0  0  0  0  0  0  0  0  0
   -6.8770   -7.1661   -8.3498 H   0  0  0  0  0  0  0  0  0  0  0  0
   -8.2534   -8.1453   -7.8051 H   0  0  0  0  0  0  0  0  0  0  0  0
   -8.1913   -7.2334   -5.6401 H   0  0  0  0  0  0  0  0  0  0  0  0
   -8.2286   -4.9055   -6.1278 H   0  0  0  0  0  0  0  0  0  0  0  0
   -6.6573   -5.0165   -6.9257 H   0  0  0  0  0  0  0  0  0  0  0  0
  1  2  1  0
  1 14  1  0
  1 15  1  0
  1 16  1  0
  2 13  1  0
  2  3  1  0
  3  4  2  0
  3 17  1  0
  4 12  1  0
  4  5  1  0
  5 10  2  0
  5  6  1  0
  6  7  2  0
  6 18  1  0
  7  8  1  0
  8  9  2  0
  8 19  1  0
  9 10  1  0
  9 20  1  0
 10 11  1  0
 11 12  1  0
 11 21  1  0
 11 22  1  0
 12 13  1  0
 12 23  1  1
 13 24  1  0
 13 25  1  0
M  END
>  <i_m_ct_stereo_status>  (392) 
1

>  <s_m_source_file>  (392) 
/var/tmp/pbs.5076255.sched01/tmpo_pg7vmn/129owyy42_r.sdf

>  <i_m_source_file_index>  (392) 
25

>  <i_lp_mmshare_version>  (392) 
48012

>  <i_f3d_flags>  (392) 
0

>  <s_epik_input>  (392) 
W0NIM11bTitdKD1bQ0hdMSlbQ0gyXVtDQEhdMltDSDJdYyhjM1tDQEhdMTIpW2NIXVtjSF1uW2NIXTM=

>  <s_epik_cmdline>  (392) 
J2VwaWtfcHl0aG9uJywgJy1waHQnLCAnMi4wJywgJy1waCcsICc3LjAnLCAnLXRuJywgJzgnLCAnLW1hJywgJzIwMCcsICctaW1hZScsICc8aW5maWxlLm1hZT4nLCAnLW9tYWUnLCAnPG91dGZpbGUubWFlPic=

>  <r_epik_Ionization_Penalty>  (392) 
0.195256

>  <r_epik_Ionization_Penalty_Charging>  (392) 
0

>  <r_epik_Ionization_Penalty_Neutral>  (392) 
0.195256

>  <r_epik_State_Penalty>  (392) 
0.182894

>  <r_epik_Charging_Adjusted_Penalty>  (392) 
0.182894

>  <i_epik_Tot_Q>  (392) 
0

>  <i_epik_Tot_abs_Q>  (392) 
0

>  <s_lp_Force_Field>  (392) 
OPLS3e

>  <r_lp_Energy>  (392) 
18.645

>  <b_lp_Chiralities_Consistent>  (392) 
1

>  <s_lp_Variant>  (392) 
108:0-1

>  <s_i_glide_gridfile>  (392) 
pfpi4k_grid

>  <i_i_glide_lignum>  (392) 
25

>  <i_i_glide_rotatable_bonds>  (392) 
0

>  <r_i_docking_score>  (392) 
-6.24388

>  <r_i_glide_ligand_efficiency>  (392) 
-0.480299

>  <r_i_glide_ligand_efficiency_sa>  (392) 
-1.12934

>  <r_i_glide_ligand_efficiency_ln>  (392) 
-1.75146

>  <r_i_glide_gscore>  (392) 
-6.24388

>  <r_i_glide_lipo>  (392) 
-2.2014

>  <r_i_glide_hbond>  (392) 
0

>  <r_i_glide_metal>  (392) 
-0

>  <r_i_glide_rewards>  (392) 
-3.19315

>  <r_i_glide_evdw>  (392) 
-18.779

>  <r_i_glide_ecoul>  (392) 
0.597519

>  <r_i_glide_erotb>  (392) 
0

>  <r_i_glide_esite>  (392) 
0

>  <r_i_glide_emodel>  (392) 
-24.3564

>  <r_i_glide_energy>  (392) 
-18.1815

>  <r_i_glide_einternal>  (392) 
0

>  <r_i_glide_intrahb_reward>  (392) 
-0

>  <i_i_glide_confnum>  (392) 
1

>  <i_i_glide_posenum>  (392) 
4

>  <r_i_glide_eff_state_penalty>  (392) 
0

>  <ligand_id>  (392) 
108

>  <original_smiles>  (392) 
C[N+]1=CC2c3cnccc3CC2C1

>  <smiles>  (392) 
[H]C1=C2c3c([H])nc([H])c([H])c3C([H])([H])C2([H])C([H])([H])N1C([H])([H])[H]

$$$$
108:1:0
     RDKit          3D

 26 28  0  0  1  0  0  0  0  0999 V2000
   -4.0479  -10.8315   -5.4859 C   0  0  0  0  0  0  0  0  0  0  0  0
   -4.6918   -9.6084   -5.9440 N   0  0  0  0  0  0  0  0  0  0  0  0
   -4.6845   -8.3557   -5.3427 C   0  0  0  0  0  0  0  0  0  0  0  0
   -5.5747   -7.5877   -5.9648 C   0  0  0  0  0  0  0  0  0  0  0  0
   -6.3593   -6.4230   -5.5631 C   0  0  0  0  0  0  0  0  0  0  0  0
   -6.1667   -5.4060   -4.6058 C   0  0  0  0  0  0  0  0  0  0  0  0
   -7.1129   -4.4320   -4.5276 N   0  0  0  0  0  0  0  0  0  0  0  0
   -8.2267   -4.4039   -5.2956 C   0  0  0  0  0  0  0  0  0  0  0  0
   -8.4944   -5.4392   -6.2324 C   0  0  0  0  0  0  0  0  0  0  0  0
   -7.5298   -6.4719   -6.3162 C   0  0  0  0  0  0  0  0  0  0  0  0
   -7.6350   -7.7006   -7.2054 C   0  0  0  0  0  0  0  0  0  0  0  0
   -6.1934   -8.2538   -7.1412 C   0  0  2  0  0  0  0  0  0  0  0  0
   -5.8472   -9.7207   -6.8439 C   0  0  0  0  0  0  0  0  0  0  0  0
   -3.0548  -10.6341   -5.0881 H   0  0  0  0  0  0  0  0  0  0  0  0
   -3.9611  -11.5689   -6.2868 H   0  0  0  0  0  0  0  0  0  0  0  0
   -4.6507  -11.2976   -4.7082 H   0  0  0  0  0  0  0  0  0  0  0  0
   -4.1898   -8.2202   -4.3916 H   0  0  0  0  0  0  0  0  0  0  0  0
   -5.3452   -5.3456   -3.9361 H   0  0  0  0  0  0  0  0  0  0  0  0
   -8.8903   -3.5415   -5.1589 H   0  0  0  0  0  0  0  0  0  0  0  0
   -9.3708   -5.4453   -6.8539 H   0  0  0  0  0  0  0  0  0  0  0  0
   -8.3661   -8.3985   -6.7818 H   0  0  0  0  0  0  0  0  0  0  0  0
   -7.9359   -7.4424   -8.2109 H   0  0  0  0  0  0  0  0  0  0  0  0
   -5.6117   -7.8726   -7.9937 H   0  0  0  0  0  0  0  0  0  0  0  0
   -5.6477  -10.3012   -7.7402 H   0  0  0  0  0  0  0  0  0  0  0  0
   -6.6581  -10.2212   -6.2866 H   0  0  0  0  0  0  0  0  0  0  0  0
   -6.9691   -3.6726   -3.8538 H   0  0  0  0  0  0  0  0  0  0  0  0
  1  2  1  0
  1 14  1  0
  1 15  1  0
  1 16  1  0
  2 13  1  0
  2  3  1  0
  3  4  2  0
  3 17  1  0
  4 12  1  0
  4  5  1  0
  5 10  2  0
  5  6  1  0
  6  7  2  0
  6 18  1  0
  7  8  1  0
  7 26  1  0
  8  9  2  0
  8 19  1  0
  9 10  1  0
  9 20  1  0
 10 11  1  0
 11 12  1  0
 11 21  1  0
 11 22  1  0
 12 13  1  0
 12 23  1  6
 13 24  1  0
 13 25  1  0
M  CHG  1   7   1
M  END
>  <i_m_ct_stereo_status>  (393) 
1

>  <s_m_source_file>  (393) 
/var/tmp/pbs.5076255.sched01/tmpo_pg7vmn/129owyy42_r.sdf

>  <i_m_source_file_index>  (393) 
26

>  <i_lp_mmshare_version>  (393) 
48012

>  <i_f3d_flags>  (393) 
0

>  <s_epik_input>  (393) 
W0NIM11bTitdKD1bQ0hdMSlbQ0gyXVtDQEhdMltDSDJdYyhjM1tDQEhdMTIpW2NIXVtjSF1uW2NIXTM=

>  <s_epik_cmdline>  (393) 
J2VwaWtfcHl0aG9uJywgJy1waHQnLCAnMi4wJywgJy1waCcsICc3LjAnLCAnLXRuJywgJzgnLCAnLW1hJywgJzIwMCcsICctaW1hZScsICc8aW5maWxlLm1hZT4nLCAnLW9tYWUnLCAnPG91dGZpbGUubWFlPic=

>  <r_epik_Ionization_Penalty>  (393) 
0.763846

>  <r_epik_Ionization_Penalty_Charging>  (393) 
0.763784

>  <r_epik_Ionization_Penalty_Neutral>  (393) 
6.15614e-05

>  <r_epik_State_Penalty>  (393) 
0.79415

>  <r_epik_Charging_Adjusted_Penalty>  (393) 
1.55793

>  <i_epik_Tot_Q>  (393) 
1

>  <i_epik_Tot_abs_Q>  (393) 
1

>  <s_lp_Force_Field>  (393) 
OPLS3e

>  <r_lp_Energy>  (393) 
23.2209

>  <b_lp_Chiralities_Consistent>  (393) 
1

>  <s_lp_Variant>  (393) 
108:0-2

>  <s_i_glide_gridfile>  (393) 
pfpi4k_grid

>  <i_i_glide_lignum>  (393) 
26

>  <i_i_glide_rotatable_bonds>  (393) 
0

>  <r_i_docking_score>  (393) 
-6.73167

>  <r_i_glide_ligand_efficiency>  (393) 
-0.517821

>  <r_i_glide_ligand_efficiency_sa>  (393) 
-1.21757

>  <r_i_glide_ligand_efficiency_ln>  (393) 
-1.88829

>  <r_i_glide_gscore>  (393) 
-6.73167

>  <r_i_glide_lipo>  (393) 
-2.51348

>  <r_i_glide_hbond>  (393) 
0

>  <r_i_glide_metal>  (393) 
-0

>  <r_i_glide_rewards>  (393) 
-3.01959

>  <r_i_glide_evdw>  (393) 
-20.903

>  <r_i_glide_ecoul>  (393) 
-1.02299

>  <r_i_glide_erotb>  (393) 
0

>  <r_i_glide_esite>  (393) 
0

>  <r_i_glide_emodel>  (393) 
-31.3674

>  <r_i_glide_energy>  (393) 
-21.926

>  <r_i_glide_einternal>  (393) 
0

>  <r_i_glide_intrahb_reward>  (393) 
-0

>  <i_i_glide_confnum>  (393) 
2

>  <i_i_glide_posenum>  (393) 
4

>  <r_i_glide_eff_state_penalty>  (393) 
0

>  <ligand_id>  (393) 
108

>  <original_smiles>  (393) 
C[N+]1=CC2c3cnccc3CC2C1

>  <smiles>  (393) 
[H]C1=C2c3c(c([H])c([H])[n+]([H])c3[H])C([H])([H])C2([H])C([H])([H])N1C([H])([H])[H]

$$$$
108:1:1
     RDKit          3D

 26 28  0  0  1  0  0  0  0  0999 V2000
   -6.1613   -3.8598   -4.2555 C   0  0  0  0  0  0  0  0  0  0  0  0
   -6.5038   -5.1979   -4.6849 N   0  0  0  0  0  0  0  0  0  0  0  0
   -5.8003   -6.3604   -4.3987 C   0  0  0  0  0  0  0  0  0  0  0  0
   -6.1816   -7.3109   -5.2314 C   0  0  0  0  0  0  0  0  0  0  0  0
   -5.6140   -8.5569   -5.7063 C   0  0  0  0  0  0  0  0  0  0  0  0
   -4.6610   -9.4563   -5.1690 C   0  0  0  0  0  0  0  0  0  0  0  0
   -4.3975  -10.5875   -5.8799 N   0  0  0  0  0  0  0  0  0  0  0  0
   -4.9735  -10.8718   -7.0746 C   0  0  0  0  0  0  0  0  0  0  0  0
   -5.8986   -9.9724   -7.6704 C   0  0  0  0  0  0  0  0  0  0  0  0
   -6.1877   -8.7947   -6.9535 C   0  0  0  0  0  0  0  0  0  0  0  0
   -7.1081   -7.6822   -7.4159 C   0  0  0  0  0  0  0  0  0  0  0  0
   -7.2754   -6.8623   -6.1203 C   0  0  2  0  0  0  0  0  0  0  0  0
   -7.1765   -5.3474   -5.9771 C   0  0  0  0  0  0  0  0  0  0  0  0
   -5.9508   -3.8263   -3.1938 H   0  0  0  0  0  0  0  0  0  0  0  0
   -6.9842   -3.1852   -4.4557 H   0  0  0  0  0  0  0  0  0  0  0  0
   -5.2981   -3.4931   -4.8152 H   0  0  0  0  0  0  0  0  0  0  0  0
   -4.9823   -6.3006   -3.7020 H   0  0  0  0  0  0  0  0  0  0  0  0
   -4.1538   -9.3276   -4.2327 H   0  0  0  0  0  0  0  0  0  0  0  0
   -4.7045  -11.8198   -7.5245 H   0  0  0  0  0  0  0  0  0  0  0  0
   -6.3768  -10.1708   -8.6126 H   0  0  0  0  0  0  0  0  0  0  0  0
   -6.6183   -7.1186   -8.2049 H   0  0  0  0  0  0  0  0  0  0  0  0
   -8.0578   -8.0478   -7.7842 H   0  0  0  0  0  0  0  0  0  0  0  0
   -8.1549   -7.1769   -5.5819 H   0  0  0  0  0  0  0  0  0  0  0  0
   -8.1323   -4.8423   -6.0291 H   0  0  0  0  0  0  0  0  0  0  0  0
   -6.5338   -4.9006   -6.7279 H   0  0  0  0  0  0  0  0  0  0  0  0
   -3.7397  -11.2649   -5.4668 H   0  0  0  0  0  0  0  0  0  0  0  0
  1  2  1  0
  1 14  1  0
  1 15  1  0
  1 16  1  0
  2 13  1  0
  2  3  1  0
  3  4  2  0
  3 17  1  0
  4 12  1  0
  4  5  1  0
  5 10  2  0
  5  6  1  0
  6  7  2  0
  6 18  1  0
  7  8  1  0
  7 26  1  0
  8  9  2  0
  8 19  1  0
  9 10  1  0
  9 20  1  0
 10 11  1  0
 11 12  1  0
 11 21  1  0
 11 22  1  0
 12 13  1  0
 12 23  1  1
 13 24  1  0
 13 25  1  0
M  CHG  1   7   1
M  END
>  <i_m_ct_stereo_status>  (394) 
1

>  <s_m_source_file>  (394) 
/var/tmp/pbs.5076255.sched01/tmpo_pg7vmn/129owyy42_r.sdf

>  <i_m_source_file_index>  (394) 
26

>  <i_lp_mmshare_version>  (394) 
48012

>  <i_f3d_flags>  (394) 
0

>  <s_epik_input>  (394) 
W0NIM11bTitdKD1bQ0hdMSlbQ0gyXVtDQEhdMltDSDJdYyhjM1tDQEhdMTIpW2NIXVtjSF1uW2NIXTM=

>  <s_epik_cmdline>  (394) 
J2VwaWtfcHl0aG9uJywgJy1waHQnLCAnMi4wJywgJy1waCcsICc3LjAnLCAnLXRuJywgJzgnLCAnLW1hJywgJzIwMCcsICctaW1hZScsICc8aW5maWxlLm1hZT4nLCAnLW9tYWUnLCAnPG91dGZpbGUubWFlPic=

>  <r_epik_Ionization_Penalty>  (394) 
0.763846

>  <r_epik_Ionization_Penalty_Charging>  (394) 
0.763784

>  <r_epik_Ionization_Penalty_Neutral>  (394) 
6.15614e-05

>  <r_epik_State_Penalty>  (394) 
0.79415

>  <r_epik_Charging_Adjusted_Penalty>  (394) 
1.55793

>  <i_epik_Tot_Q>  (394) 
1

>  <i_epik_Tot_abs_Q>  (394) 
1

>  <s_lp_Force_Field>  (394) 
OPLS3e

>  <r_lp_Energy>  (394) 
23.2209

>  <b_lp_Chiralities_Consistent>  (394) 
1

>  <s_lp_Variant>  (394) 
108:0-2

>  <s_i_glide_gridfile>  (394) 
pfpi4k_grid

>  <i_i_glide_lignum>  (394) 
26

>  <i_i_glide_rotatable_bonds>  (394) 
0

>  <r_i_docking_score>  (394) 
-6.51015

>  <r_i_glide_ligand_efficiency>  (394) 
-0.500781

>  <r_i_glide_ligand_efficiency_sa>  (394) 
-1.1775

>  <r_i_glide_ligand_efficiency_ln>  (394) 
-1.82616

>  <r_i_glide_gscore>  (394) 
-6.51015

>  <r_i_glide_lipo>  (394) 
-2.13338

>  <r_i_glide_hbond>  (394) 
0

>  <r_i_glide_metal>  (394) 
-0

>  <r_i_glide_rewards>  (394) 
-3.13628

>  <r_i_glide_evdw>  (394) 
-15.8895

>  <r_i_glide_ecoul>  (394) 
-2.97346

>  <r_i_glide_erotb>  (394) 
0

>  <r_i_glide_esite>  (394) 
0

>  <r_i_glide_emodel>  (394) 
-27.8944

>  <r_i_glide_energy>  (394) 
-18.8629

>  <r_i_glide_einternal>  (394) 
0

>  <r_i_glide_intrahb_reward>  (394) 
-0

>  <i_i_glide_confnum>  (394) 
2

>  <i_i_glide_posenum>  (394) 
9

>  <r_i_glide_eff_state_penalty>  (394) 
0

>  <ligand_id>  (394) 
108

>  <original_smiles>  (394) 
C[N+]1=CC2c3cnccc3CC2C1

>  <smiles>  (394) 
[H]C1=C2c3c(c([H])c([H])[n+]([H])c3[H])C([H])([H])C2([H])C([H])([H])N1C([H])([H])[H]

$$$$
108:1:2
     RDKit          3D

 26 28  0  0  1  0  0  0  0  0999 V2000
   -7.3342   -4.5217   -5.3336 C   0  0  0  0  0  0  0  0  0  0  0  0
   -7.3034   -5.9539   -5.5947 N   0  0  0  0  0  0  0  0  0  0  0  0
   -6.4314   -6.8846   -5.0416 C   0  0  0  0  0  0  0  0  0  0  0  0
   -6.4919   -8.0002   -5.7554 C   0  0  0  0  0  0  0  0  0  0  0  0
   -5.5980   -9.1293   -5.9498 C   0  0  0  0  0  0  0  0  0  0  0  0
   -4.5690   -9.7037   -5.1720 C   0  0  0  0  0  0  0  0  0  0  0  0
   -3.9637  -10.8201   -5.6578 N   0  0  0  0  0  0  0  0  0  0  0  0
   -4.2677  -11.3813   -6.8523 C   0  0  0  0  0  0  0  0  0  0  0  0
   -5.2596  -10.8052   -7.6936 C   0  0  0  0  0  0  0  0  0  0  0  0
   -5.8951   -9.6388   -7.2137 C   0  0  0  0  0  0  0  0  0  0  0  0
   -6.9418   -8.8347   -7.9603 C   0  0  0  0  0  0  0  0  0  0  0  0
   -7.5027   -7.9502   -6.8280 C   0  0  2  0  0  0  0  0  0  0  0  0
   -7.7314   -6.4356   -6.9168 C   0  0  0  0  0  0  0  0  0  0  0  0
   -7.2753   -4.3124   -4.2733 H   0  0  0  0  0  0  0  0  0  0  0  0
   -8.2561   -4.0831   -5.7141 H   0  0  0  0  0  0  0  0  0  0  0  0
   -6.4914   -4.0335   -5.8387 H   0  0  0  0  0  0  0  0  0  0  0  0
   -5.7346   -6.5771   -4.2740 H   0  0  0  0  0  0  0  0  0  0  0  0
   -4.2453   -9.3386   -4.2164 H   0  0  0  0  0  0  0  0  0  0  0  0
   -3.7262  -12.2828   -7.1096 H   0  0  0  0  0  0  0  0  0  0  0  0
   -5.5320  -11.2269   -8.6419 H   0  0  0  0  0  0  0  0  0  0  0  0
   -6.4685   -8.2464   -8.7483 H   0  0  0  0  0  0  0  0  0  0  0  0
   -7.7072   -9.4611   -8.4016 H   0  0  0  0  0  0  0  0  0  0  0  0
   -8.3689   -8.4678   -6.3917 H   0  0  0  0  0  0  0  0  0  0  0  0
   -8.7484   -6.1612   -7.1787 H   0  0  0  0  0  0  0  0  0  0  0  0
   -7.0476   -5.9915   -7.6592 H   0  0  0  0  0  0  0  0  0  0  0  0
   -3.2505  -11.2717   -5.0687 H   0  0  0  0  0  0  0  0  0  0  0  0
  1  2  1  0
  1 14  1  0
  1 15  1  0
  1 16  1  0
  2 13  1  0
  2  3  1  0
  3  4  2  0
  3 17  1  0
  4 12  1  0
  4  5  1  0
  5 10  2  0
  5  6  1  0
  6  7  2  0
  6 18  1  0
  7  8  1  0
  7 26  1  0
  8  9  2  0
  8 19  1  0
  9 10  1  0
  9 20  1  0
 10 11  1  0
 11 12  1  0
 11 21  1  0
 11 22  1  0
 12 13  1  0
 12 23  1  1
 13 24  1  0
 13 25  1  0
M  CHG  1   7   1
M  END
>  <i_m_ct_stereo_status>  (395) 
1

>  <s_m_source_file>  (395) 
/var/tmp/pbs.5076255.sched01/tmpo_pg7vmn/129owyy42_r.sdf

>  <i_m_source_file_index>  (395) 
26

>  <i_lp_mmshare_version>  (395) 
48012

>  <i_f3d_flags>  (395) 
0

>  <s_epik_input>  (395) 
W0NIM11bTitdKD1bQ0hdMSlbQ0gyXVtDQEhdMltDSDJdYyhjM1tDQEhdMTIpW2NIXVtjSF1uW2NIXTM=

>  <s_epik_cmdline>  (395) 
J2VwaWtfcHl0aG9uJywgJy1waHQnLCAnMi4wJywgJy1waCcsICc3LjAnLCAnLXRuJywgJzgnLCAnLW1hJywgJzIwMCcsICctaW1hZScsICc8aW5maWxlLm1hZT4nLCAnLW9tYWUnLCAnPG91dGZpbGUubWFlPic=

>  <r_epik_Ionization_Penalty>  (395) 
0.763846

>  <r_epik_Ionization_Penalty_Charging>  (395) 
0.763784

>  <r_epik_Ionization_Penalty_Neutral>  (395) 
6.15614e-05

>  <r_epik_State_Penalty>  (395) 
0.79415

>  <r_epik_Charging_Adjusted_Penalty>  (395) 
1.55793

>  <i_epik_Tot_Q>  (395) 
1

>  <i_epik_Tot_abs_Q>  (395) 
1

>  <s_lp_Force_Field>  (395) 
OPLS3e

>  <r_lp_Energy>  (395) 
23.2209

>  <b_lp_Chiralities_Consistent>  (395) 
1

>  <s_lp_Variant>  (395) 
108:0-2

>  <s_i_glide_gridfile>  (395) 
pfpi4k_grid

>  <i_i_glide_lignum>  (395) 
26

>  <i_i_glide_rotatable_bonds>  (395) 
0

>  <r_i_docking_score>  (395) 
-6.12007

>  <r_i_glide_ligand_efficiency>  (395) 
-0.470775

>  <r_i_glide_ligand_efficiency_sa>  (395) 
-1.10695

>  <r_i_glide_ligand_efficiency_ln>  (395) 
-1.71673

>  <r_i_glide_gscore>  (395) 
-6.12007

>  <r_i_glide_lipo>  (395) 
-1.90737

>  <r_i_glide_hbond>  (395) 
0

>  <r_i_glide_metal>  (395) 
-0

>  <r_i_glide_rewards>  (395) 
-2.99983

>  <r_i_glide_evdw>  (395) 
-17.2576

>  <r_i_glide_ecoul>  (395) 
-2.3333

>  <r_i_glide_erotb>  (395) 
0

>  <r_i_glide_esite>  (395) 
0

>  <r_i_glide_emodel>  (395) 
-28.149

>  <r_i_glide_energy>  (395) 
-19.5909

>  <r_i_glide_einternal>  (395) 
0

>  <r_i_glide_intrahb_reward>  (395) 
-0

>  <i_i_glide_confnum>  (395) 
2

>  <i_i_glide_posenum>  (395) 
17

>  <r_i_glide_eff_state_penalty>  (395) 
0

>  <ligand_id>  (395) 
108

>  <original_smiles>  (395) 
C[N+]1=CC2c3cnccc3CC2C1

>  <smiles>  (395) 
[H]C1=C2c3c(c([H])c([H])[n+]([H])c3[H])C([H])([H])C2([H])C([H])([H])N1C([H])([H])[H]

$$$$
110:0:0
     RDKit          3D

 61 65  0  0  1  0  0  0  0  0999 V2000
    4.0187    0.1314   -3.1366 C   0  0  0  0  0  0  0  0  0  0  0  0
    4.0054   -0.7686   -2.1452 C   0  0  0  0  0  0  0  0  0  0  0  0
    3.9917   -0.4619   -0.6151 C   0  0  0  0  0  0  0  0  0  0  0  0
    4.8782   -1.2095    0.3788 C   0  0  0  0  0  0  0  0  0  0  0  0
    4.9127   -0.7782    1.5339 O   0  0  0  0  0  0  0  0  0  0  0  0
    5.6605   -2.4151   -0.0779 C   0  0  2  0  0  0  0  0  0  0  0  0
    6.2934   -2.3096   -1.4659 C   0  0  0  0  0  0  0  0  0  0  0  0
    5.0775   -3.0533   -2.0314 C   0  0  2  0  0  0  0  0  0  0  0  0
    5.3684   -3.9738   -3.1778 C   0  0  0  0  0  0  0  0  0  0  0  0
    3.9076   -2.2132   -2.5347 C   0  0  1  0  0  0  0  0  0  0  0  0
    2.5311   -2.7311   -2.1536 C   0  0  1  0  0  0  0  0  0  0  0  0
    2.2731   -3.6831   -3.1337 O   0  0  0  0  0  0  0  0  0  0  0  0
    2.3924   -3.2690   -0.6983 C   0  0  0  0  0  0  0  0  0  0  0  0
    3.5370   -4.2012   -0.2184 C   0  0  2  0  0  0  0  0  0  0  0  0
    3.4664   -4.8435    1.2106 C   0  0  2  0  0  0  0  0  0  0  0  0
    2.0656   -5.4592    1.3280 C   0  0  0  0  0  0  0  0  0  0  0  0
    3.6552   -3.8028    2.3366 C   0  0  0  0  0  0  0  0  0  0  0  0
    3.6725   -4.4328    3.7358 C   0  0  0  0  0  0  0  0  0  0  0  0
    4.7772   -5.5007    3.8399 C   0  0  1  0  0  0  0  0  0  0  0  0
    4.7650   -6.0589    5.1368 O   0  0  0  0  0  0  0  0  0  0  0  0
    4.6889   -6.6168    2.7506 C   0  0  0  0  0  0  0  0  0  0  0  0
    5.9770   -7.4676    2.8289 C   0  0  0  0  0  0  0  0  0  0  0  0
    3.5220   -7.6008    3.0437 C   0  0  0  0  0  0  0  0  0  0  0  0
    4.5671   -5.9456    1.3215 C   0  0  2  0  0  0  0  0  0  0  0  0
    5.9013   -5.3585    0.8076 C   0  0  0  0  0  0  0  0  0  0  0  0
    5.8011   -4.7803   -0.4902 O   0  0  0  0  0  0  0  0  0  0  0  0
    4.9244   -3.6771   -0.6236 C   0  0  2  0  0  0  0  0  0  0  0  0
    3.9767   -0.1625   -4.1904 H   0  0  0  0  0  0  0  0  0  0  0  0
    4.0664    1.1650   -2.8755 H   0  0  0  0  0  0  0  0  0  0  0  0
    4.2062    0.5879   -0.4912 H   0  0  0  0  0  0  0  0  0  0  0  0
    2.9532   -0.5727   -0.2578 H   0  0  0  0  0  0  0  0  0  0  0  0
    6.4313   -2.6772    0.6624 H   0  0  0  0  0  0  0  0  0  0  0  0
    6.4642   -1.3175   -1.8567 H   0  0  0  0  0  0  0  0  0  0  0  0
    7.2122   -2.8860   -1.5174 H   0  0  0  0  0  0  0  0  0  0  0  0
    4.5595   -4.6588   -3.3552 H   0  0  0  0  0  0  0  0  0  0  0  0
    6.2328   -4.4947   -2.8177 H   0  0  0  0  0  0  0  0  0  0  0  0
    5.5915   -3.4493   -4.0888 H   0  0  0  0  0  0  0  0  0  0  0  0
    3.9231   -2.1822   -3.6202 H   0  0  0  0  0  0  0  0  0  0  0  0
    1.8136   -1.9351   -2.3303 H   0  0  0  0  0  0  0  0  0  0  0  0
    1.4462   -4.1379   -2.8973 H   0  0  0  0  0  0  0  0  0  0  0  0
    2.3190   -2.4416    0.0136 H   0  0  0  0  0  0  0  0  0  0  0  0
    1.4260   -3.7704   -0.6595 H   0  0  0  0  0  0  0  0  0  0  0  0
    3.3994   -5.0653   -0.8454 H   0  0  0  0  0  0  0  0  0  0  0  0
    1.8329   -5.9598    2.2666 H   0  0  0  0  0  0  0  0  0  0  0  0
    1.8219   -6.1527    0.5155 H   0  0  0  0  0  0  0  0  0  0  0  0
    1.4136   -4.5956    1.3207 H   0  0  0  0  0  0  0  0  0  0  0  0
    4.6014   -3.3007    2.2072 H   0  0  0  0  0  0  0  0  0  0  0  0
    2.8916   -3.0223    2.2742 H   0  0  0  0  0  0  0  0  0  0  0  0
    3.8694   -3.6396    4.4606 H   0  0  0  0  0  0  0  0  0  0  0  0
    2.6941   -4.8335    3.9895 H   0  0  0  0  0  0  0  0  0  0  0  0
    5.7275   -4.9806    3.7373 H   0  0  0  0  0  0  0  0  0  0  0  0
    4.1315   -6.7637    5.1476 H   0  0  0  0  0  0  0  0  0  0  0  0
    6.0294   -8.1788    2.0001 H   0  0  0  0  0  0  0  0  0  0  0  0
    6.0157   -8.0427    3.7597 H   0  0  0  0  0  0  0  0  0  0  0  0
    6.8737   -6.8485    2.8172 H   0  0  0  0  0  0  0  0  0  0  0  0
    3.0721   -7.9851    2.1249 H   0  0  0  0  0  0  0  0  0  0  0  0
    2.7329   -7.1560    3.6510 H   0  0  0  0  0  0  0  0  0  0  0  0
    3.8413   -8.4754    3.6148 H   0  0  0  0  0  0  0  0  0  0  0  0
    4.3016   -6.7330    0.6149 H   0  0  0  0  0  0  0  0  0  0  0  0
    6.3299   -4.6474    1.5139 H   0  0  0  0  0  0  0  0  0  0  0  0
    6.6196   -6.1515    0.6694 H   0  0  0  0  0  0  0  0  0  0  0  0
  1  2  2  0
  1 28  1  0
  1 29  1  0
  2 10  1  0
  2  3  1  0
  3  4  1  0
  3 30  1  0
  3 31  1  0
  4  5  2  0
  4  6  1  0
  6 27  1  0
  6  7  1  0
  6 32  1  1
  7  8  1  0
  7 33  1  0
  7 34  1  0
  8 27  1  0
  8  9  1  6
  8 10  1  0
  9 35  1  0
  9 36  1  0
  9 37  1  0
 10 11  1  0
 10 38  1  6
 11 12  1  0
 11 13  1  0
 11 39  1  1
 12 40  1  0
 13 14  1  0
 13 41  1  0
 13 42  1  0
 14 27  1  0
 14 15  1  0
 14 43  1  6
 15 24  1  0
 15 16  1  1
 15 17  1  0
 16 44  1  0
 16 45  1  0
 16 46  1  0
 17 18  1  0
 17 47  1  0
 17 48  1  0
 18 19  1  0
 18 49  1  0
 18 50  1  0
 19 20  1  0
 19 21  1  0
 19 51  1  6
 20 52  1  0
 21 22  1  0
 21 23  1  0
 21 24  1  0
 22 53  1  0
 22 54  1  0
 22 55  1  0
 23 56  1  0
 23 57  1  0
 23 58  1  0
 24 25  1  0
 24 59  1  6
 25 26  1  0
 25 60  1  0
 25 61  1  0
 27 26  1  6
M  END
>  <i_m_ct_stereo_status>  (396) 
1

>  <s_m_source_file>  (396) 
/var/tmp/pbs.5076255.sched01/tmpo_pg7vmn/129owyy42_r.sdf

>  <i_m_source_file_index>  (396) 
28

>  <i_lp_mmshare_version>  (396) 
48012

>  <i_f3d_flags>  (396) 
0

>  <s_epik_input>  (396) 
W0NAQF0xMjNbQ0BASF00Qyg9TylbQ0gyXUMoPVtDSDJdKVtDQEBIXShbQ0BdMShbQ0gyXTQpW0NIM10pW0NAQEhdKFtPSF0pW0NIMl1bQ0BASF0yW0NAQF01KFtDSDNdKVtDQEBIXShbQ0gyXU8zKUMoW0NIM10pKFtDSDNdKVtDQEhdKFtPSF0pW0NIMl1bQ0gyXTU=

>  <s_epik_cmdline>  (396) 
J2VwaWtfcHl0aG9uJywgJy1waHQnLCAnMi4wJywgJy1waCcsICc3LjAnLCAnLXRuJywgJzgnLCAnLW1hJywgJzIwMCcsICctaW1hZScsICc8aW5maWxlLm1hZT4nLCAnLW9tYWUnLCAnPG91dGZpbGUubWFlPic=

>  <r_lp_tautomer_probability>  (396) 
1

>  <r_epik_Ionization_Penalty>  (396) 
2.03302e-06

>  <r_epik_Ionization_Penalty_Charging>  (396) 
0

>  <r_epik_Ionization_Penalty_Neutral>  (396) 
2.03302e-06

>  <r_epik_State_Penalty>  (396) 
-0

>  <r_epik_Charging_Adjusted_Penalty>  (396) 
0

>  <i_epik_Tot_Q>  (396) 
0

>  <i_epik_Tot_abs_Q>  (396) 
0

>  <s_lp_Force_Field>  (396) 
OPLS3e

>  <r_lp_Energy>  (396) 
79.529

>  <b_lp_Chiralities_Consistent>  (396) 
1

>  <s_lp_Variant>  (396) 
110:0-1

>  <s_i_glide_gridfile>  (396) 
pfpi4k_grid

>  <i_i_glide_lignum>  (396) 
28

>  <i_i_glide_rotatable_bonds>  (396) 
2

>  <r_i_docking_score>  (396) 
-1.87486

>  <r_i_glide_ligand_efficiency>  (396) 
-0.0694394

>  <r_i_glide_ligand_efficiency_sa>  (396) 
-0.208318

>  <r_i_glide_ligand_efficiency_ln>  (396) 
-0.436438

>  <r_i_glide_gscore>  (396) 
-1.87486

>  <r_i_glide_lipo>  (396) 
-0.417907

>  <r_i_glide_hbond>  (396) 
-0.236279

>  <r_i_glide_metal>  (396) 
-0

>  <r_i_glide_rewards>  (396) 
-0.926111

>  <r_i_glide_evdw>  (396) 
2.23374

>  <r_i_glide_ecoul>  (396) 
-2.70836

>  <r_i_glide_erotb>  (396) 
0

>  <r_i_glide_esite>  (396) 
0

>  <r_i_glide_emodel>  (396) 
-3.64381

>  <r_i_glide_energy>  (396) 
-0.474618

>  <r_i_glide_einternal>  (396) 
0.972891

>  <r_i_glide_intrahb_reward>  (396) 
-0

>  <i_i_glide_confnum>  (396) 
1

>  <i_i_glide_posenum>  (396) 
1

>  <r_i_glide_eff_state_penalty>  (396) 
0

>  <ligand_id>  (396) 
110

>  <original_smiles>  (396) 
C=C1CC(=O)C2CC3(C)C1C(O)CC1C4(C)CCC(O)C(C)(C)C4COC213

>  <smiles>  (396) 
[H]OC1([H])C([H])([H])C2([H])C3(OC([H])([H])C4([H])C(C([H])([H])[H])(C([H])([H])[H])C([H])(O[H])C([H])([H])C([H])([H])C24C([H])([H])[H])C2([H])C(=O)C([H])([H])C(=C([H])[H])C1([H])C3(C([H])([H])[H])C2([H])[H]

$$$$
111:0:0
     RDKit          3D

 43 48  0  0  1  0  0  0  0  0999 V2000
    4.7936   -6.2804    0.5546 C   0  0  0  0  0  0  0  0  0  0  0  0
    4.8318   -4.8019    0.6726 N   0  0  1  0  0  0  0  0  0  0  0  0
    4.3383   -4.1658   -0.5776 C   0  0  0  0  0  0  0  0  0  0  0  0
    4.5977   -2.6496   -0.8305 C   0  0  2  0  0  0  0  0  0  0  0  0
    5.4496   -1.9851    0.2650 C   0  0  0  0  0  0  0  0  0  0  0  0
    6.5969   -1.6213    0.0451 O   0  0  0  0  0  0  0  0  0  0  0  0
    4.8489   -1.8303    1.5303 N   0  0  0  0  0  0  0  0  0  0  0  0
    5.5631   -1.3771    2.7004 C   0  0  0  0  0  0  0  0  0  0  0  0
    4.5472   -2.2443    3.4755 C   0  0  0  0  0  0  0  0  0  0  0  0
    4.0717   -2.8694    2.1422 C   0  0  1  0  0  0  0  0  0  0  0  0
    2.5621   -2.9994    1.8684 C   0  0  0  0  0  0  0  0  0  0  0  0
    2.6828   -4.5165    2.0494 C   0  0  0  0  0  0  0  0  0  0  0  0
    4.2114   -4.3836    1.9663 C   0  0  1  0  0  0  0  0  0  0  0  0
    3.4222   -1.7476   -1.3302 C   0  0  2  0  0  0  0  0  0  0  0  0
    2.6186   -2.5108   -2.3985 C   0  0  0  0  0  0  0  0  0  0  0  0
    3.8125   -2.6949   -3.3371 C   0  0  1  0  0  0  0  0  0  0  0  0
    3.8013   -1.4733   -4.2109 C   0  0  0  0  0  0  0  0  0  0  0  0
    4.1187   -0.4131   -3.4771 C   0  0  0  0  0  0  0  0  0  0  0  0
    4.4784   -0.8581   -2.0677 C   0  0  2  0  0  0  0  0  0  0  0  0
    4.9165   -2.3014   -2.3239 C   0  0  1  0  0  0  0  0  0  0  0  0
    3.7832   -6.6588    0.4123 H   0  0  0  0  0  0  0  0  0  0  0  0
    5.2091   -6.7592    1.4355 H   0  0  0  0  0  0  0  0  0  0  0  0
    5.3789   -6.6081   -0.3026 H   0  0  0  0  0  0  0  0  0  0  0  0
    4.8389   -4.6835   -1.3927 H   0  0  0  0  0  0  0  0  0  0  0  0
    3.2955   -4.4169   -0.6909 H   0  0  0  0  0  0  0  0  0  0  0  0
    6.6127   -1.6653    2.7990 H   0  0  0  0  0  0  0  0  0  0  0  0
    5.4164   -0.3106    2.8464 H   0  0  0  0  0  0  0  0  0  0  0  0
    5.0198   -2.9458    4.1734 H   0  0  0  0  0  0  0  0  0  0  0  0
    3.7840   -1.6490    3.9866 H   0  0  0  0  0  0  0  0  0  0  0  0
    1.9355   -2.5001    2.6180 H   0  0  0  0  0  0  0  0  0  0  0  0
    2.2665   -2.7243    0.8483 H   0  0  0  0  0  0  0  0  0  0  0  0
    2.3452   -4.7850    3.0577 H   0  0  0  0  0  0  0  0  0  0  0  0
    2.1645   -5.0977    1.2743 H   0  0  0  0  0  0  0  0  0  0  0  0
    4.6612   -4.8604    2.8283 H   0  0  0  0  0  0  0  0  0  0  0  0
    2.9232   -1.1893   -0.5319 H   0  0  0  0  0  0  0  0  0  0  0  0
    2.1311   -3.4207   -2.0408 H   0  0  0  0  0  0  0  0  0  0  0  0
    1.8235   -1.8866   -2.8186 H   0  0  0  0  0  0  0  0  0  0  0  0
    3.9452   -3.6662   -3.8163 H   0  0  0  0  0  0  0  0  0  0  0  0
    3.4702   -1.4267   -5.2264 H   0  0  0  0  0  0  0  0  0  0  0  0
    4.1171    0.5965   -3.8507 H   0  0  0  0  0  0  0  0  0  0  0  0
    5.1338   -0.2220   -1.4878 H   0  0  0  0  0  0  0  0  0  0  0  0
    5.9643   -2.3729   -2.6092 H   0  0  0  0  0  0  0  0  0  0  0  0
    5.7968   -4.5546    0.7665 H   0  0  0  0  0  0  0  0  0  0  0  0
  1  2  1  0
  1 21  1  0
  1 22  1  0
  1 23  1  0
  2 13  1  0
  2  3  1  0
  2 43  1  1
  4  3  1  6
  3 24  1  0
  3 25  1  0
  4 20  1  0
  4  5  1  0
  4 14  1  0
  5  6  2  0
  5  7  1  0
  7 10  1  0
  7  8  1  0
  8  9  1  0
  8 26  1  0
  8 27  1  0
 10  9  1  1
  9 28  1  0
  9 29  1  0
 10 13  1  0
 10 11  1  0
 11 12  1  0
 11 30  1  0
 11 31  1  0
 12 13  1  0
 12 32  1  0
 12 33  1  0
 13 34  1  1
 14 19  1  0
 14 15  1  0
 14 35  1  1
 15 16  1  0
 15 36  1  0
 15 37  1  0
 16 20  1  0
 16 17  1  0
 16 38  1  6
 17 18  2  0
 17 39  1  0
 18 19  1  0
 18 40  1  0
 19 20  1  0
 19 41  1  1
 20 42  1  6
M  CHG  1   2   1
M  END
>  <i_m_ct_stereo_status>  (397) 
1

>  <s_m_source_file>  (397) 
/var/tmp/pbs.5076255.sched01/tmpo_pg7vmn/129owyy42_r.sdf

>  <i_m_source_file_index>  (397) 
29

>  <i_lp_mmshare_version>  (397) 
48012

>  <i_f3d_flags>  (397) 
0

>  <s_epik_input>  (397) 
Tz1DMU4oW0NIMl1bQ0gyXTIpW0NAQF0yKFtDSDJdW0NIMl0zKVtDQEBIXTNOKFtDSDNdKVtDSDJdW0NAQF0xNFtDQEhdNVtDQEhdNltDQEBIXTRbQ0BASF0oW0NIMl01KVtDSF09W0NIXTY=

>  <s_epik_cmdline>  (397) 
J2VwaWtfcHl0aG9uJywgJy1waHQnLCAnMi4wJywgJy1waCcsICc3LjAnLCAnLXRuJywgJzgnLCAnLW1hJywgJzIwMCcsICctaW1hZScsICc8aW5maWxlLm1hZT4nLCAnLW9tYWUnLCAnPG91dGZpbGUubWFlPic=

>  <r_epik_Ionization_Penalty>  (397) 
0.0134382

>  <r_epik_Ionization_Penalty_Charging>  (397) 
0.0134382

>  <r_epik_Ionization_Penalty_Neutral>  (397) 
1.53972e-10

>  <r_epik_State_Penalty>  (397) 
0.0104584

>  <r_epik_Charging_Adjusted_Penalty>  (397) 
0.0238967

>  <i_epik_Tot_Q>  (397) 
1

>  <i_epik_Tot_abs_Q>  (397) 
1

>  <s_lp_Force_Field>  (397) 
OPLS3e

>  <r_lp_Energy>  (397) 
92.3105

>  <b_lp_Chiralities_Consistent>  (397) 
1

>  <s_lp_Variant>  (397) 
111:0-1

>  <s_i_glide_gridfile>  (397) 
pfpi4k_grid

>  <i_i_glide_lignum>  (397) 
29

>  <i_i_glide_rotatable_bonds>  (397) 
0

>  <r_i_docking_score>  (397) 
-3.9541

>  <r_i_glide_ligand_efficiency>  (397) 
-0.197705

>  <r_i_glide_ligand_efficiency_sa>  (397) 
-0.536654

>  <r_i_glide_ligand_efficiency_ln>  (397) 
-0.989582

>  <r_i_glide_gscore>  (397) 
-3.9541

>  <r_i_glide_lipo>  (397) 
-0.773568

>  <r_i_glide_hbond>  (397) 
-0.0351567

>  <r_i_glide_metal>  (397) 
-0

>  <r_i_glide_rewards>  (397) 
-1.67209

>  <r_i_glide_evdw>  (397) 
-19.8076

>  <r_i_glide_ecoul>  (397) 
-3.21939

>  <r_i_glide_erotb>  (397) 
0

>  <r_i_glide_esite>  (397) 
0

>  <r_i_glide_emodel>  (397) 
-26.8871

>  <r_i_glide_energy>  (397) 
-23.027

>  <r_i_glide_einternal>  (397) 
0

>  <r_i_glide_intrahb_reward>  (397) 
-0

>  <i_i_glide_confnum>  (397) 
2

>  <i_i_glide_posenum>  (397) 
1

>  <r_i_glide_eff_state_penalty>  (397) 
0

>  <ligand_id>  (397) 
111

>  <original_smiles>  (397) 
CN1CC2(C(=O)N3CCC34CCC14)C1CC3C=CC1C32

>  <smiles>  (397) 
[H]C1=C([H])C2([H])C3([H])C([H])([H])C1([H])C2([H])C31C(=O)N2C([H])([H])C([H])([H])C23C([H])([H])C([H])([H])C3([H])[N+]([H])(C([H])([H])[H])C1([H])[H]

$$$$
111:0:1
     RDKit          3D

 43 48  0  0  1  0  0  0  0  0999 V2000
    5.4453   -2.4003    3.1484 C   0  0  0  0  0  0  0  0  0  0  0  0
    4.9841   -3.3864    2.1511 N   0  0  1  0  0  0  0  0  0  0  0  0
    4.9119   -2.7214    0.8100 C   0  0  0  0  0  0  0  0  0  0  0  0
    4.1482   -3.4167   -0.3552 C   0  0  2  0  0  0  0  0  0  0  0  0
    3.4569   -4.7132    0.1032 C   0  0  0  0  0  0  0  0  0  0  0  0
    2.2402   -4.7902    0.2252 O   0  0  0  0  0  0  0  0  0  0  0  0
    4.2781   -5.7843    0.4046 N   0  0  0  0  0  0  0  0  0  0  0  0
    3.8345   -7.0299    0.9991 C   0  0  0  0  0  0  0  0  0  0  0  0
    5.2261   -7.1206    1.6019 C   0  0  0  0  0  0  0  0  0  0  0  0
    5.5001   -5.6706    1.1659 C   0  0  1  0  0  0  0  0  0  0  0  0
    6.8015   -5.3073    0.4680 C   0  0  0  0  0  0  0  0  0  0  0  0
    7.2468   -4.5894    1.7299 C   0  0  0  0  0  0  0  0  0  0  0  0
    5.7959   -4.6409    2.2472 C   0  0  1  0  0  0  0  0  0  0  0  0
    4.7616   -3.4687   -1.7814 C   0  0  2  0  0  0  0  0  0  0  0  0
    5.4239   -2.1273   -2.0895 C   0  0  0  0  0  0  0  0  0  0  0  0
    4.1430   -1.3059   -1.8838 C   0  0  1  0  0  0  0  0  0  0  0  0
    3.4896   -1.2236   -3.2227 C   0  0  0  0  0  0  0  0  0  0  0  0
    3.0591   -2.4652   -3.5409 C   0  0  0  0  0  0  0  0  0  0  0  0
    3.3005   -3.4168   -2.3693 C   0  0  2  0  0  0  0  0  0  0  0  0
    3.3236   -2.4339   -1.2117 C   0  0  1  0  0  0  0  0  0  0  0  0
    6.3788   -1.9968    2.7783 H   0  0  0  0  0  0  0  0  0  0  0  0
    5.5831   -2.8601    4.1227 H   0  0  0  0  0  0  0  0  0  0  0  0
    4.7686   -1.5564    3.2555 H   0  0  0  0  0  0  0  0  0  0  0  0
    4.3951   -1.7810    0.9952 H   0  0  0  0  0  0  0  0  0  0  0  0
    5.9106   -2.4397    0.5205 H   0  0  0  0  0  0  0  0  0  0  0  0
    3.0043   -7.0216    1.7123 H   0  0  0  0  0  0  0  0  0  0  0  0
    3.7737   -7.7723    0.2198 H   0  0  0  0  0  0  0  0  0  0  0  0
    5.2136   -7.3141    2.6760 H   0  0  0  0  0  0  0  0  0  0  0  0
    5.8109   -7.8581    1.0541 H   0  0  0  0  0  0  0  0  0  0  0  0
    7.3970   -6.1881    0.1991 H   0  0  0  0  0  0  0  0  0  0  0  0
    6.6774   -4.6094   -0.3661 H   0  0  0  0  0  0  0  0  0  0  0  0
    7.9049   -5.2485    2.2906 H   0  0  0  0  0  0  0  0  0  0  0  0
    7.6949   -3.6113    1.5237 H   0  0  0  0  0  0  0  0  0  0  0  0
    5.7780   -5.0969    3.2387 H   0  0  0  0  0  0  0  0  0  0  0  0
    5.2816   -4.4046   -2.0383 H   0  0  0  0  0  0  0  0  0  0  0  0
    6.2596   -1.8777   -1.4352 H   0  0  0  0  0  0  0  0  0  0  0  0
    5.8026   -2.1683   -3.1146 H   0  0  0  0  0  0  0  0  0  0  0  0
    4.2154   -0.3525   -1.3387 H   0  0  0  0  0  0  0  0  0  0  0  0
    3.4374   -0.3680   -3.8545 H   0  0  0  0  0  0  0  0  0  0  0  0
    2.5881   -2.7199   -4.4721 H   0  0  0  0  0  0  0  0  0  0  0  0
    2.5480   -4.1895   -2.2127 H   0  0  0  0  0  0  0  0  0  0  0  0
    2.3020   -2.2966   -0.8506 H   0  0  0  0  0  0  0  0  0  0  0  0
    4.0464   -3.6524    2.4173 H   0  0  0  0  0  0  0  0  0  0  0  0
  1  2  1  0
  1 21  1  0
  1 22  1  0
  1 23  1  0
  2 13  1  0
  2  3  1  0
  2 43  1  1
  4  3  1  1
  3 24  1  0
  3 25  1  0
  4 20  1  0
  4  5  1  0
  4 14  1  0
  5  6  2  0
  5  7  1  0
  7 10  1  0
  7  8  1  0
  8  9  1  0
  8 26  1  0
  8 27  1  0
 10  9  1  1
  9 28  1  0
  9 29  1  0
 10 13  1  0
 10 11  1  0
 11 12  1  0
 11 30  1  0
 11 31  1  0
 12 13  1  0
 12 32  1  0
 12 33  1  0
 13 34  1  1
 14 19  1  0
 14 15  1  0
 14 35  1  1
 15 16  1  0
 15 36  1  0
 15 37  1  0
 16 20  1  0
 16 17  1  0
 16 38  1  1
 17 18  2  0
 17 39  1  0
 18 19  1  0
 18 40  1  0
 19 20  1  0
 19 41  1  1
 20 42  1  1
M  CHG  1   2   1
M  END
>  <i_m_ct_stereo_status>  (398) 
1

>  <s_m_source_file>  (398) 
/var/tmp/pbs.5076255.sched01/tmpo_pg7vmn/129owyy42_r.sdf

>  <i_m_source_file_index>  (398) 
29

>  <i_lp_mmshare_version>  (398) 
48012

>  <i_f3d_flags>  (398) 
0

>  <s_epik_input>  (398) 
Tz1DMU4oW0NIMl1bQ0gyXTIpW0NAQF0yKFtDSDJdW0NIMl0zKVtDQEBIXTNOKFtDSDNdKVtDSDJdW0NAQF0xNFtDQEhdNVtDQEhdNltDQEBIXTRbQ0BASF0oW0NIMl01KVtDSF09W0NIXTY=

>  <s_epik_cmdline>  (398) 
J2VwaWtfcHl0aG9uJywgJy1waHQnLCAnMi4wJywgJy1waCcsICc3LjAnLCAnLXRuJywgJzgnLCAnLW1hJywgJzIwMCcsICctaW1hZScsICc8aW5maWxlLm1hZT4nLCAnLW9tYWUnLCAnPG91dGZpbGUubWFlPic=

>  <r_epik_Ionization_Penalty>  (398) 
0.0134382

>  <r_epik_Ionization_Penalty_Charging>  (398) 
0.0134382

>  <r_epik_Ionization_Penalty_Neutral>  (398) 
1.53972e-10

>  <r_epik_State_Penalty>  (398) 
0.0104584

>  <r_epik_Charging_Adjusted_Penalty>  (398) 
0.0238967

>  <i_epik_Tot_Q>  (398) 
1

>  <i_epik_Tot_abs_Q>  (398) 
1

>  <s_lp_Force_Field>  (398) 
OPLS3e

>  <r_lp_Energy>  (398) 
92.3105

>  <b_lp_Chiralities_Consistent>  (398) 
1

>  <s_lp_Variant>  (398) 
111:0-1

>  <s_i_glide_gridfile>  (398) 
pfpi4k_grid

>  <i_i_glide_lignum>  (398) 
29

>  <i_i_glide_rotatable_bonds>  (398) 
0

>  <r_i_docking_score>  (398) 
-3.67006

>  <r_i_glide_ligand_efficiency>  (398) 
-0.183503

>  <r_i_glide_ligand_efficiency_sa>  (398) 
-0.498104

>  <r_i_glide_ligand_efficiency_ln>  (398) 
-0.918496

>  <r_i_glide_gscore>  (398) 
-3.67006

>  <r_i_glide_lipo>  (398) 
-0.885981

>  <r_i_glide_hbond>  (398) 
-0.00991368

>  <r_i_glide_metal>  (398) 
-0

>  <r_i_glide_rewards>  (398) 
-1.68755

>  <r_i_glide_evdw>  (398) 
-15.5126

>  <r_i_glide_ecoul>  (398) 
-1.93569

>  <r_i_glide_erotb>  (398) 
0

>  <r_i_glide_esite>  (398) 
-0.0206398

>  <r_i_glide_emodel>  (398) 
-20.5543

>  <r_i_glide_energy>  (398) 
-17.4483

>  <r_i_glide_einternal>  (398) 
0

>  <r_i_glide_intrahb_reward>  (398) 
-0

>  <i_i_glide_confnum>  (398) 
1

>  <i_i_glide_posenum>  (398) 
24

>  <r_i_glide_eff_state_penalty>  (398) 
0

>  <ligand_id>  (398) 
111

>  <original_smiles>  (398) 
CN1CC2(C(=O)N3CCC34CCC14)C1CC3C=CC1C32

>  <smiles>  (398) 
[H]C1=C([H])C2([H])C3([H])C([H])([H])C1([H])C2([H])C31C(=O)N2C([H])([H])C([H])([H])C23C([H])([H])C([H])([H])C3([H])[N+]([H])(C([H])([H])[H])C1([H])[H]

$$$$
111:0:2
     RDKit          3D

 43 48  0  0  1  0  0  0  0  0999 V2000
    3.2079   -0.3963    2.6069 C   0  0  0  0  0  0  0  0  0  0  0  0
    3.7416   -1.5382    1.8187 N   0  0  1  0  0  0  0  0  0  0  0  0
    3.6527   -1.2219    0.3627 C   0  0  0  0  0  0  0  0  0  0  0  0
    3.8243   -2.3852   -0.6710 C   0  0  2  0  0  0  0  0  0  0  0  0
    3.9818   -3.7624    0.0090 C   0  0  0  0  0  0  0  0  0  0  0  0
    3.0467   -4.5698    0.0460 O   0  0  0  0  0  0  0  0  0  0  0  0
    5.2090   -4.0126    0.6066 N   0  0  0  0  0  0  0  0  0  0  0  0
    5.4404   -5.1763    1.4343 C   0  0  0  0  0  0  0  0  0  0  0  0
    6.3603   -4.2663    2.2392 C   0  0  0  0  0  0  0  0  0  0  0  0
    5.7992   -3.0278    1.5044 C   0  0  1  0  0  0  0  0  0  0  0  0
    6.7097   -1.9327    0.9394 C   0  0  0  0  0  0  0  0  0  0  0  0
    6.2051   -0.9659    2.0105 C   0  0  0  0  0  0  0  0  0  0  0  0
    5.0722   -1.9567    2.3421 C   0  0  1  0  0  0  0  0  0  0  0  0
    4.7345   -2.1646   -1.9348 C   0  0  2  0  0  0  0  0  0  0  0  0
    4.4690   -0.7591   -2.4892 C   0  0  0  0  0  0  0  0  0  0  0  0
    2.9772   -1.0092   -2.6790 C   0  0  1  0  0  0  0  0  0  0  0  0
    2.8913   -1.5441   -4.0606 C   0  0  0  0  0  0  0  0  0  0  0  0
    3.3979   -2.7745   -4.0930 C   0  0  0  0  0  0  0  0  0  0  0  0
    3.8281   -3.1888   -2.6952 C   0  0  2  0  0  0  0  0  0  0  0  0
    2.8677   -2.3132   -1.8843 C   0  0  1  0  0  0  0  0  0  0  0  0
    3.7753    0.5321    2.4400 H   0  0  0  0  0  0  0  0  0  0  0  0
    3.2414   -0.6182    3.6772 H   0  0  0  0  0  0  0  0  0  0  0  0
    2.1611   -0.1900    2.3427 H   0  0  0  0  0  0  0  0  0  0  0  0
    2.6441   -0.8371    0.2132 H   0  0  0  0  0  0  0  0  0  0  0  0
    4.3288   -0.4039    0.1248 H   0  0  0  0  0  0  0  0  0  0  0  0
    4.6460   -5.6033    2.0532 H   0  0  0  0  0  0  0  0  0  0  0  0
    5.9789   -5.9472    0.8956 H   0  0  0  0  0  0  0  0  0  0  0  0
    6.1545   -4.3135    3.3162 H   0  0  0  0  0  0  0  0  0  0  0  0
    7.4144   -4.4483    2.0168 H   0  0  0  0  0  0  0  0  0  0  0  0
    7.7612   -2.2015    0.9934 H   0  0  0  0  0  0  0  0  0  0  0  0
    6.4391   -1.5888   -0.0583 H   0  0  0  0  0  0  0  0  0  0  0  0
    6.9264   -0.8743    2.8247 H   0  0  0  0  0  0  0  0  0  0  0  0
    5.9244    0.0206    1.6135 H   0  0  0  0  0  0  0  0  0  0  0  0
    5.0873   -2.1808    3.4168 H   0  0  0  0  0  0  0  0  0  0  0  0
    5.7582   -2.5472   -1.8569 H   0  0  0  0  0  0  0  0  0  0  0  0
    4.7047    0.0667   -1.8244 H   0  0  0  0  0  0  0  0  0  0  0  0
    5.0092   -0.6265   -3.4250 H   0  0  0  0  0  0  0  0  0  0  0  0
    2.2255   -0.2542   -2.4500 H   0  0  0  0  0  0  0  0  0  0  0  0
    2.4871   -0.9861   -4.8858 H   0  0  0  0  0  0  0  0  0  0  0  0
    3.4093   -3.4001   -4.9723 H   0  0  0  0  0  0  0  0  0  0  0  0
    3.8892   -4.2555   -2.4577 H   0  0  0  0  0  0  0  0  0  0  0  0
    1.8955   -2.7919   -1.7836 H   0  0  0  0  0  0  0  0  0  0  0  0
    3.1336   -2.3200    1.9913 H   0  0  0  0  0  0  0  0  0  0  0  0
  1  2  1  0
  1 21  1  0
  1 22  1  0
  1 23  1  0
  2 13  1  0
  2  3  1  0
  2 43  1  6
  4  3  1  1
  3 24  1  0
  3 25  1  0
  4 20  1  0
  4  5  1  0
  4 14  1  0
  5  6  2  0
  5  7  1  0
  7 10  1  0
  7  8  1  0
  8  9  1  0
  8 26  1  0
  8 27  1  0
 10  9  1  1
  9 28  1  0
  9 29  1  0
 10 13  1  0
 10 11  1  0
 11 12  1  0
 11 30  1  0
 11 31  1  0
 12 13  1  0
 12 32  1  0
 12 33  1  0
 13 34  1  1
 14 19  1  0
 14 15  1  0
 14 35  1  1
 15 16  1  0
 15 36  1  0
 15 37  1  0
 16 20  1  0
 16 17  1  0
 16 38  1  1
 17 18  2  0
 17 39  1  0
 18 19  1  0
 18 40  1  0
 19 20  1  0
 19 41  1  6
 20 42  1  1
M  CHG  1   2   1
M  END
>  <i_m_ct_stereo_status>  (399) 
1

>  <s_m_source_file>  (399) 
/var/tmp/pbs.5076255.sched01/tmpo_pg7vmn/129owyy42_r.sdf

>  <i_m_source_file_index>  (399) 
29

>  <i_lp_mmshare_version>  (399) 
48012

>  <i_f3d_flags>  (399) 
0

>  <s_epik_input>  (399) 
Tz1DMU4oW0NIMl1bQ0gyXTIpW0NAQF0yKFtDSDJdW0NIMl0zKVtDQEBIXTNOKFtDSDNdKVtDSDJdW0NAQF0xNFtDQEhdNVtDQEhdNltDQEBIXTRbQ0BASF0oW0NIMl01KVtDSF09W0NIXTY=

>  <s_epik_cmdline>  (399) 
J2VwaWtfcHl0aG9uJywgJy1waHQnLCAnMi4wJywgJy1waCcsICc3LjAnLCAnLXRuJywgJzgnLCAnLW1hJywgJzIwMCcsICctaW1hZScsICc8aW5maWxlLm1hZT4nLCAnLW9tYWUnLCAnPG91dGZpbGUubWFlPic=

>  <r_epik_Ionization_Penalty>  (399) 
0.0134382

>  <r_epik_Ionization_Penalty_Charging>  (399) 
0.0134382

>  <r_epik_Ionization_Penalty_Neutral>  (399) 
1.53972e-10

>  <r_epik_State_Penalty>  (399) 
0.0104584

>  <r_epik_Charging_Adjusted_Penalty>  (399) 
0.0238967

>  <i_epik_Tot_Q>  (399) 
1

>  <i_epik_Tot_abs_Q>  (399) 
1

>  <s_lp_Force_Field>  (399) 
OPLS3e

>  <r_lp_Energy>  (399) 
92.3105

>  <b_lp_Chiralities_Consistent>  (399) 
1

>  <s_lp_Variant>  (399) 
111:0-1

>  <s_i_glide_gridfile>  (399) 
pfpi4k_grid

>  <i_i_glide_lignum>  (399) 
29

>  <i_i_glide_rotatable_bonds>  (399) 
0

>  <r_i_docking_score>  (399) 
-3.13525

>  <r_i_glide_ligand_efficiency>  (399) 
-0.156762

>  <r_i_glide_ligand_efficiency_sa>  (399) 
-0.425518

>  <r_i_glide_ligand_efficiency_ln>  (399) 
-0.784649

>  <r_i_glide_gscore>  (399) 
-3.13525

>  <r_i_glide_lipo>  (399) 
-0.398941

>  <r_i_glide_hbond>  (399) 
0

>  <r_i_glide_metal>  (399) 
-0

>  <r_i_glide_rewards>  (399) 
-1.62983

>  <r_i_glide_evdw>  (399) 
-14.9897

>  <r_i_glide_ecoul>  (399) 
-2.32014

>  <r_i_glide_erotb>  (399) 
0

>  <r_i_glide_esite>  (399) 
-0.00897426

>  <r_i_glide_emodel>  (399) 
-20.2687

>  <r_i_glide_energy>  (399) 
-17.3098

>  <r_i_glide_einternal>  (399) 
0

>  <r_i_glide_intrahb_reward>  (399) 
-0

>  <i_i_glide_confnum>  (399) 
2

>  <i_i_glide_posenum>  (399) 
21

>  <r_i_glide_eff_state_penalty>  (399) 
0

>  <ligand_id>  (399) 
111

>  <original_smiles>  (399) 
CN1CC2(C(=O)N3CCC34CCC14)C1CC3C=CC1C32

>  <smiles>  (399) 
[H]C1=C([H])C2([H])C3([H])C([H])([H])C1([H])C2([H])C31C(=O)N2C([H])([H])C([H])([H])C23C([H])([H])C([H])([H])C3([H])[N+]([H])(C([H])([H])[H])C1([H])[H]

$$$$
111:1:0
     RDKit          3D

 42 47  0  0  1  0  0  0  0  0999 V2000
    4.6937   -6.0568    0.5177 C   0  0  0  0  0  0  0  0  0  0  0  0
    4.4636   -4.6237    0.6818 N   0  0  0  0  0  0  0  0  0  0  0  0
    5.4192   -3.8545   -0.1076 C   0  0  0  0  0  0  0  0  0  0  0  0
    4.9027   -2.4355   -0.4223 C   0  0  2  0  0  0  0  0  0  0  0  0
    5.2933   -1.4692    0.7232 C   0  0  0  0  0  0  0  0  0  0  0  0
    6.1227   -0.6143    0.4839 O   0  0  0  0  0  0  0  0  0  0  0  0
    4.7070   -1.5848    2.0035 N   0  0  0  0  0  0  0  0  0  0  0  0
    5.3331   -1.0474    3.1912 C   0  0  0  0  0  0  0  0  0  0  0  0
    4.7944   -2.2911    3.9175 C   0  0  0  0  0  0  0  0  0  0  0  0
    4.1828   -2.7956    2.5833 C   0  0  1  0  0  0  0  0  0  0  0  0
    2.6876   -3.0767    2.5083 C   0  0  0  0  0  0  0  0  0  0  0  0
    3.0447   -4.5291    2.8192 C   0  0  0  0  0  0  0  0  0  0  0  0
    4.3841   -4.2565    2.1043 C   0  0  1  0  0  0  0  0  0  0  0  0
    3.4954   -2.1998   -1.0549 C   0  0  2  0  0  0  0  0  0  0  0  0
    3.2813   -3.2836   -2.1211 C   0  0  0  0  0  0  0  0  0  0  0  0
    4.5100   -2.8804   -2.9524 C   0  0  1  0  0  0  0  0  0  0  0  0
    4.0170   -1.8179   -3.9045 C   0  0  0  0  0  0  0  0  0  0  0  0
    3.7602   -0.7122   -3.2141 C   0  0  0  0  0  0  0  0  0  0  0  0
    4.1197   -0.9336   -1.7441 C   0  0  2  0  0  0  0  0  0  0  0  0
    5.2009   -2.0030   -1.8812 C   0  0  1  0  0  0  0  0  0  0  0  0
    4.5960   -6.3336   -0.5394 H   0  0  0  0  0  0  0  0  0  0  0  0
    3.9495   -6.6258    1.0843 H   0  0  0  0  0  0  0  0  0  0  0  0
    5.6956   -6.3361    0.8641 H   0  0  0  0  0  0  0  0  0  0  0  0
    6.3636   -3.8040    0.4308 H   0  0  0  0  0  0  0  0  0  0  0  0
    5.6553   -4.4050   -1.0288 H   0  0  0  0  0  0  0  0  0  0  0  0
    6.4168   -0.9437    3.2426 H   0  0  0  0  0  0  0  0  0  0  0  0
    4.8407   -0.1297    3.5002 H   0  0  0  0  0  0  0  0  0  0  0  0
    5.5736   -2.9384    4.3430 H   0  0  0  0  0  0  0  0  0  0  0  0
    4.0483   -2.0376    4.6790 H   0  0  0  0  0  0  0  0  0  0  0  0
    2.0867   -2.5619    3.2589 H   0  0  0  0  0  0  0  0  0  0  0  0
    2.3038   -2.9799    1.4909 H   0  0  0  0  0  0  0  0  0  0  0  0
    3.1689   -4.7047    3.8978 H   0  0  0  0  0  0  0  0  0  0  0  0
    2.3910   -5.2601    2.3251 H   0  0  0  0  0  0  0  0  0  0  0  0
    5.2214   -4.7222    2.6212 H   0  0  0  0  0  0  0  0  0  0  0  0
    2.6983   -1.9520   -0.3457 H   0  0  0  0  0  0  0  0  0  0  0  0
    3.3170   -4.2528   -1.6679 H   0  0  0  0  0  0  0  0  0  0  0  0
    2.3332   -3.1698   -2.6413 H   0  0  0  0  0  0  0  0  0  0  0  0
    5.1186   -3.6636   -3.3851 H   0  0  0  0  0  0  0  0  0  0  0  0
    3.7720   -1.9595   -4.9465 H   0  0  0  0  0  0  0  0  0  0  0  0
    3.2958    0.1696   -3.6540 H   0  0  0  0  0  0  0  0  0  0  0  0
    4.3623   -0.0531   -1.1528 H   0  0  0  0  0  0  0  0  0  0  0  0
    6.1893   -1.5818   -2.0659 H   0  0  0  0  0  0  0  0  0  0  0  0
  1  2  1  0
  1 21  1  0
  1 22  1  0
  1 23  1  0
  2 13  1  0
  2  3  1  0
  4  3  1  1
  3 24  1  0
  3 25  1  0
  4 20  1  0
  4  5  1  0
  4 14  1  0
  5  6  2  0
  5  7  1  0
  7 10  1  0
  7  8  1  0
  8  9  1  0
  8 26  1  0
  8 27  1  0
 10  9  1  1
  9 28  1  0
  9 29  1  0
 10 13  1  0
 10 11  1  0
 11 12  1  0
 11 30  1  0
 11 31  1  0
 12 13  1  0
 12 32  1  0
 12 33  1  0
 13 34  1  1
 14 19  1  0
 14 15  1  0
 14 35  1  1
 15 16  1  0
 15 36  1  0
 15 37  1  0
 16 20  1  0
 16 17  1  0
 16 38  1  6
 17 18  2  0
 17 39  1  0
 18 19  1  0
 18 40  1  0
 19 20  1  0
 19 41  1  1
 20 42  1  6
M  END
>  <i_m_ct_stereo_status>  (400) 
1

>  <s_m_source_file>  (400) 
/var/tmp/pbs.5076255.sched01/tmpo_pg7vmn/129owyy42_r.sdf

>  <i_m_source_file_index>  (400) 
30

>  <i_lp_mmshare_version>  (400) 
48012

>  <i_f3d_flags>  (400) 
0

>  <s_epik_input>  (400) 
Tz1DMU4oW0NIMl1bQ0gyXTIpW0NAQF0yKFtDSDJdW0NIMl0zKVtDQEBIXTNOKFtDSDNdKVtDSDJdW0NAQF0xNFtDQEhdNVtDQEhdNltDQEBIXTRbQ0BASF0oW0NIMl01KVtDSF09W0NIXTY=

>  <s_epik_cmdline>  (400) 
J2VwaWtfcHl0aG9uJywgJy1waHQnLCAnMi4wJywgJy1waCcsICc3LjAnLCAnLXRuJywgJzgnLCAnLW1hJywgJzIwMCcsICctaW1hZScsICc8aW5maWxlLm1hZT4nLCAnLW9tYWUnLCAnPG91dGZpbGUubWFlPic=

>  <r_epik_Ionization_Penalty>  (400) 
2.24999

>  <r_epik_Ionization_Penalty_Charging>  (400) 
0

>  <r_epik_Ionization_Penalty_Neutral>  (400) 
2.24999

>  <r_epik_State_Penalty>  (400) 
2.39704

>  <r_epik_Charging_Adjusted_Penalty>  (400) 
2.39704

>  <i_epik_Tot_Q>  (400) 
0

>  <i_epik_Tot_abs_Q>  (400) 
0

>  <s_lp_Force_Field>  (400) 
OPLS3e

>  <r_lp_Energy>  (400) 
79.8774

>  <b_lp_Chiralities_Consistent>  (400) 
1

>  <s_lp_Variant>  (400) 
111:0-2

>  <s_i_glide_gridfile>  (400) 
pfpi4k_grid

>  <i_i_glide_lignum>  (400) 
30

>  <i_i_glide_rotatable_bonds>  (400) 
0

>  <r_i_docking_score>  (400) 
-3.20857

>  <r_i_glide_ligand_efficiency>  (400) 
-0.160429

>  <r_i_glide_ligand_efficiency_sa>  (400) 
-0.43547

>  <r_i_glide_ligand_efficiency_ln>  (400) 
-0.803

>  <r_i_glide_gscore>  (400) 
-3.20857

>  <r_i_glide_lipo>  (400) 
-0.655916

>  <r_i_glide_hbond>  (400) 
0

>  <r_i_glide_metal>  (400) 
-0

>  <r_i_glide_rewards>  (400) 
-1.74403

>  <r_i_glide_evdw>  (400) 
-20.3736

>  <r_i_glide_ecoul>  (400) 
1.40035

>  <r_i_glide_erotb>  (400) 
0

>  <r_i_glide_esite>  (400) 
0

>  <r_i_glide_emodel>  (400) 
-22.5507

>  <r_i_glide_energy>  (400) 
-18.9732

>  <r_i_glide_einternal>  (400) 
0

>  <r_i_glide_intrahb_reward>  (400) 
-0

>  <i_i_glide_confnum>  (400) 
2

>  <i_i_glide_posenum>  (400) 
24

>  <r_i_glide_eff_state_penalty>  (400) 
0

>  <ligand_id>  (400) 
111

>  <original_smiles>  (400) 
CN1CC2(C(=O)N3CCC34CCC14)C1CC3C=CC1C32

>  <smiles>  (400) 
[H]C1=C([H])C2([H])C3([H])C([H])([H])C1([H])C2([H])C31C(=O)N2C([H])([H])C([H])([H])C23C([H])([H])C([H])([H])C3([H])N(C([H])([H])[H])C1([H])[H]

$$$$
111:1:1
     RDKit          3D

 42 47  0  0  1  0  0  0  0  0999 V2000
    8.6586   -3.0516   -0.2091 C   0  0  0  0  0  0  0  0  0  0  0  0
    7.3113   -3.5705    0.0465 N   0  0  0  0  0  0  0  0  0  0  0  0
    6.3229   -2.4967    0.1248 C   0  0  0  0  0  0  0  0  0  0  0  0
    4.8996   -2.9831   -0.1827 C   0  0  2  0  0  0  0  0  0  0  0  0
    4.2262   -3.4934    1.1361 C   0  0  0  0  0  0  0  0  0  0  0  0
    3.2505   -2.8864    1.5822 O   0  0  0  0  0  0  0  0  0  0  0  0
    4.7045   -4.6149    1.7999 N   0  0  0  0  0  0  0  0  0  0  0  0
    4.4638   -4.8918    3.2093 C   0  0  0  0  0  0  0  0  0  0  0  0
    5.8530   -5.5453    3.2170 C   0  0  0  0  0  0  0  0  0  0  0  0
    6.0319   -5.1911    1.7192 C   0  0  1  0  0  0  0  0  0  0  0  0
    6.3191   -6.2930    0.7286 C   0  0  0  0  0  0  0  0  0  0  0  0
    7.7943   -5.9591    0.9198 C   0  0  0  0  0  0  0  0  0  0  0  0
    7.3237   -4.5067    1.1917 C   0  0  1  0  0  0  0  0  0  0  0  0
    4.5905   -3.8091   -1.4713 C   0  0  2  0  0  0  0  0  0  0  0  0
    5.3768   -3.1940   -2.6323 C   0  0  0  0  0  0  0  0  0  0  0  0
    4.7315   -1.8043   -2.5001 C   0  0  1  0  0  0  0  0  0  0  0  0
    3.5039   -1.8348   -3.3625 C   0  0  0  0  0  0  0  0  0  0  0  0
    2.6137   -2.6562   -2.7923 C   0  0  0  0  0  0  0  0  0  0  0  0
    3.1632   -3.1553   -1.4533 C   0  0  2  0  0  0  0  0  0  0  0  0
    4.1065   -2.0061   -1.0936 C   0  0  1  0  0  0  0  0  0  0  0  0
    8.6823   -2.5059   -1.1545 H   0  0  0  0  0  0  0  0  0  0  0  0
    9.3668   -3.8814   -0.2926 H   0  0  0  0  0  0  0  0  0  0  0  0
    8.9831   -2.3877    0.5945 H   0  0  0  0  0  0  0  0  0  0  0  0
    6.3896   -2.0466    1.1164 H   0  0  0  0  0  0  0  0  0  0  0  0
    6.6244   -1.7037   -0.5624 H   0  0  0  0  0  0  0  0  0  0  0  0
    4.3827   -4.0553    3.8998 H   0  0  0  0  0  0  0  0  0  0  0  0
    3.6482   -5.6045    3.3192 H   0  0  0  0  0  0  0  0  0  0  0  0
    6.5577   -5.0568    3.8998 H   0  0  0  0  0  0  0  0  0  0  0  0
    5.7966   -6.6165    3.4130 H   0  0  0  0  0  0  0  0  0  0  0  0
    6.0284   -7.2858    1.0586 H   0  0  0  0  0  0  0  0  0  0  0  0
    5.9720   -6.0371   -0.2613 H   0  0  0  0  0  0  0  0  0  0  0  0
    8.2308   -6.4210    1.8099 H   0  0  0  0  0  0  0  0  0  0  0  0
    8.4173   -6.0903    0.0163 H   0  0  0  0  0  0  0  0  0  0  0  0
    7.8966   -4.0697    2.0011 H   0  0  0  0  0  0  0  0  0  0  0  0
    4.5728   -4.8949   -1.3294 H   0  0  0  0  0  0  0  0  0  0  0  0
    6.4515   -3.2313   -2.4679 H   0  0  0  0  0  0  0  0  0  0  0  0
    5.1637   -3.7006   -3.5719 H   0  0  0  0  0  0  0  0  0  0  0  0
    5.3562   -0.9255   -2.6014 H   0  0  0  0  0  0  0  0  0  0  0  0
    3.3936   -1.3448   -4.3213 H   0  0  0  0  0  0  0  0  0  0  0  0
    1.6579   -2.9023   -3.2386 H   0  0  0  0  0  0  0  0  0  0  0  0
    2.4249   -3.4489   -0.7045 H   0  0  0  0  0  0  0  0  0  0  0  0
    3.5866   -1.1767   -0.6007 H   0  0  0  0  0  0  0  0  0  0  0  0
  1  2  1  0
  1 21  1  0
  1 22  1  0
  1 23  1  0
  2 13  1  0
  2  3  1  0
  4  3  1  1
  3 24  1  0
  3 25  1  0
  4 20  1  0
  4  5  1  0
  4 14  1  0
  5  6  2  0
  5  7  1  0
  7 10  1  0
  7  8  1  0
  8  9  1  0
  8 26  1  0
  8 27  1  0
 10  9  1  1
  9 28  1  0
  9 29  1  0
 10 13  1  0
 10 11  1  0
 11 12  1  0
 11 30  1  0
 11 31  1  0
 12 13  1  0
 12 32  1  0
 12 33  1  0
 13 34  1  1
 14 19  1  0
 14 15  1  0
 14 35  1  1
 15 16  1  0
 15 36  1  0
 15 37  1  0
 16 20  1  0
 16 17  1  0
 16 38  1  1
 17 18  2  0
 17 39  1  0
 18 19  1  0
 18 40  1  0
 19 20  1  0
 19 41  1  1
 20 42  1  1
M  END
>  <i_m_ct_stereo_status>  (401) 
1

>  <s_m_source_file>  (401) 
/var/tmp/pbs.5076255.sched01/tmpo_pg7vmn/129owyy42_r.sdf

>  <i_m_source_file_index>  (401) 
30

>  <i_lp_mmshare_version>  (401) 
48012

>  <i_f3d_flags>  (401) 
0

>  <s_epik_input>  (401) 
Tz1DMU4oW0NIMl1bQ0gyXTIpW0NAQF0yKFtDSDJdW0NIMl0zKVtDQEBIXTNOKFtDSDNdKVtDSDJdW0NAQF0xNFtDQEhdNVtDQEhdNltDQEBIXTRbQ0BASF0oW0NIMl01KVtDSF09W0NIXTY=

>  <s_epik_cmdline>  (401) 
J2VwaWtfcHl0aG9uJywgJy1waHQnLCAnMi4wJywgJy1waCcsICc3LjAnLCAnLXRuJywgJzgnLCAnLW1hJywgJzIwMCcsICctaW1hZScsICc8aW5maWxlLm1hZT4nLCAnLW9tYWUnLCAnPG91dGZpbGUubWFlPic=

>  <r_epik_Ionization_Penalty>  (401) 
2.24999

>  <r_epik_Ionization_Penalty_Charging>  (401) 
0

>  <r_epik_Ionization_Penalty_Neutral>  (401) 
2.24999

>  <r_epik_State_Penalty>  (401) 
2.39704

>  <r_epik_Charging_Adjusted_Penalty>  (401) 
2.39704

>  <i_epik_Tot_Q>  (401) 
0

>  <i_epik_Tot_abs_Q>  (401) 
0

>  <s_lp_Force_Field>  (401) 
OPLS3e

>  <r_lp_Energy>  (401) 
79.8774

>  <b_lp_Chiralities_Consistent>  (401) 
1

>  <s_lp_Variant>  (401) 
111:0-2

>  <s_i_glide_gridfile>  (401) 
pfpi4k_grid

>  <i_i_glide_lignum>  (401) 
30

>  <i_i_glide_rotatable_bonds>  (401) 
0

>  <r_i_docking_score>  (401) 
-3.17923

>  <r_i_glide_ligand_efficiency>  (401) 
-0.158962

>  <r_i_glide_ligand_efficiency_sa>  (401) 
-0.431488

>  <r_i_glide_ligand_efficiency_ln>  (401) 
-0.795657

>  <r_i_glide_gscore>  (401) 
-3.17923

>  <r_i_glide_lipo>  (401) 
-0.716611

>  <r_i_glide_hbond>  (401) 
0

>  <r_i_glide_metal>  (401) 
-0

>  <r_i_glide_rewards>  (401) 
-1.61685

>  <r_i_glide_evdw>  (401) 
-21.8396

>  <r_i_glide_ecoul>  (401) 
1.64142

>  <r_i_glide_erotb>  (401) 
0

>  <r_i_glide_esite>  (401) 
0

>  <r_i_glide_emodel>  (401) 
-23.1279

>  <r_i_glide_energy>  (401) 
-20.1982

>  <r_i_glide_einternal>  (401) 
0

>  <r_i_glide_intrahb_reward>  (401) 
-0

>  <i_i_glide_confnum>  (401) 
1

>  <i_i_glide_posenum>  (401) 
20

>  <r_i_glide_eff_state_penalty>  (401) 
0

>  <ligand_id>  (401) 
111

>  <original_smiles>  (401) 
CN1CC2(C(=O)N3CCC34CCC14)C1CC3C=CC1C32

>  <smiles>  (401) 
[H]C1=C([H])C2([H])C3([H])C([H])([H])C1([H])C2([H])C31C(=O)N2C([H])([H])C([H])([H])C23C([H])([H])C([H])([H])C3([H])N(C([H])([H])[H])C1([H])[H]

$$$$
111:1:2
     RDKit          3D

 42 47  0  0  1  0  0  0  0  0999 V2000
    6.7669   -6.7533    3.1567 C   0  0  0  0  0  0  0  0  0  0  0  0
    5.5040   -6.8796    2.4284 N   0  0  0  0  0  0  0  0  0  0  0  0
    4.5973   -5.7707    2.7214 C   0  0  0  0  0  0  0  0  0  0  0  0
    3.5481   -5.5409    1.6089 C   0  0  2  0  0  0  0  0  0  0  0  0
    2.2873   -6.4303    1.8653 C   0  0  0  0  0  0  0  0  0  0  0  0
    1.2038   -5.9092    2.0687 O   0  0  0  0  0  0  0  0  0  0  0  0
    2.4002   -7.8256    1.8628 N   0  0  0  0  0  0  0  0  0  0  0  0
    1.4574   -8.7258    2.4885 C   0  0  0  0  0  0  0  0  0  0  0  0
    2.6601   -9.6619    2.6771 C   0  0  0  0  0  0  0  0  0  0  0  0
    3.5906   -8.6280    1.9940 C   0  0  1  0  0  0  0  0  0  0  0  0
    4.3900   -9.0314    0.7771 C   0  0  0  0  0  0  0  0  0  0  0  0
    5.5168   -9.3584    1.7509 C   0  0  0  0  0  0  0  0  0  0  0  0
    4.9353   -8.2219    2.6187 C   0  0  1  0  0  0  0  0  0  0  0  0
    3.9854   -5.3984    0.1177 C   0  0  2  0  0  0  0  0  0  0  0  0
    5.2569   -4.5472    0.0694 C   0  0  0  0  0  0  0  0  0  0  0  0
    4.6122   -3.3299    0.7436 C   0  0  1  0  0  0  0  0  0  0  0  0
    4.0212   -2.5112   -0.3690 C   0  0  0  0  0  0  0  0  0  0  0  0
    2.9880   -3.1856   -0.8851 C   0  0  0  0  0  0  0  0  0  0  0  0
    2.7515   -4.4591   -0.0797 C   0  0  2  0  0  0  0  0  0  0  0  0
    3.3417   -4.0427    1.2684 C   0  0  1  0  0  0  0  0  0  0  0  0
    7.2627   -5.8197    2.8784 H   0  0  0  0  0  0  0  0  0  0  0  0
    7.4463   -7.5702    2.8935 H   0  0  0  0  0  0  0  0  0  0  0  0
    6.6237   -6.7605    4.2440 H   0  0  0  0  0  0  0  0  0  0  0  0
    4.1225   -5.9343    3.6913 H   0  0  0  0  0  0  0  0  0  0  0  0
    5.2072   -4.8721    2.8657 H   0  0  0  0  0  0  0  0  0  0  0  0
    0.9782   -8.4225    3.4283 H   0  0  0  0  0  0  0  0  0  0  0  0
    0.7305   -9.0709    1.7577 H   0  0  0  0  0  0  0  0  0  0  0  0
    2.8816   -9.8500    3.7308 H   0  0  0  0  0  0  0  0  0  0  0  0
    2.5532  -10.6027    2.1292 H   0  0  0  0  0  0  0  0  0  0  0  0
    3.9537   -9.8565    0.2192 H   0  0  0  0  0  0  0  0  0  0  0  0
    4.6475   -8.2097    0.1230 H   0  0  0  0  0  0  0  0  0  0  0  0
    5.4162  -10.3549    2.2026 H   0  0  0  0  0  0  0  0  0  0  0  0
    6.5193   -9.1687    1.3475 H   0  0  0  0  0  0  0  0  0  0  0  0
    4.9602   -8.4784    3.6759 H   0  0  0  0  0  0  0  0  0  0  0  0
    3.9236   -6.3143   -0.4621 H   0  0  0  0  0  0  0  0  0  0  0  0
    6.0704   -5.0081    0.6179 H   0  0  0  0  0  0  0  0  0  0  0  0
    5.5787   -4.3773   -0.9539 H   0  0  0  0  0  0  0  0  0  0  0  0
    5.1883   -2.7898    1.4892 H   0  0  0  0  0  0  0  0  0  0  0  0
    4.4269   -1.5769   -0.7240 H   0  0  0  0  0  0  0  0  0  0  0  0
    2.4168   -2.8290   -1.7375 H   0  0  0  0  0  0  0  0  0  0  0  0
    1.7459   -4.8800   -0.1162 H   0  0  0  0  0  0  0  0  0  0  0  0
    2.6315   -3.5013    1.8900 H   0  0  0  0  0  0  0  0  0  0  0  0
  1  2  1  0
  1 21  1  0
  1 22  1  0
  1 23  1  0
  2 13  1  0
  2  3  1  0
  4  3  1  1
  3 24  1  0
  3 25  1  0
  4 20  1  0
  4  5  1  0
  4 14  1  0
  5  6  2  0
  5  7  1  0
  7 10  1  0
  7  8  1  0
  8  9  1  0
  8 26  1  0
  8 27  1  0
 10  9  1  1
  9 28  1  0
  9 29  1  0
 10 13  1  0
 10 11  1  0
 11 12  1  0
 11 30  1  0
 11 31  1  0
 12 13  1  0
 12 32  1  0
 12 33  1  0
 13 34  1  1
 14 19  1  0
 14 15  1  0
 14 35  1  6
 15 16  1  0
 15 36  1  0
 15 37  1  0
 16 20  1  0
 16 17  1  0
 16 38  1  1
 17 18  2  0
 17 39  1  0
 18 19  1  0
 18 40  1  0
 19 20  1  0
 19 41  1  1
 20 42  1  1
M  END
>  <i_m_ct_stereo_status>  (402) 
1

>  <s_m_source_file>  (402) 
/var/tmp/pbs.5076255.sched01/tmpo_pg7vmn/129owyy42_r.sdf

>  <i_m_source_file_index>  (402) 
30

>  <i_lp_mmshare_version>  (402) 
48012

>  <i_f3d_flags>  (402) 
0

>  <s_epik_input>  (402) 
Tz1DMU4oW0NIMl1bQ0gyXTIpW0NAQF0yKFtDSDJdW0NIMl0zKVtDQEBIXTNOKFtDSDNdKVtDSDJdW0NAQF0xNFtDQEhdNVtDQEhdNltDQEBIXTRbQ0BASF0oW0NIMl01KVtDSF09W0NIXTY=

>  <s_epik_cmdline>  (402) 
J2VwaWtfcHl0aG9uJywgJy1waHQnLCAnMi4wJywgJy1waCcsICc3LjAnLCAnLXRuJywgJzgnLCAnLW1hJywgJzIwMCcsICctaW1hZScsICc8aW5maWxlLm1hZT4nLCAnLW9tYWUnLCAnPG91dGZpbGUubWFlPic=

>  <r_epik_Ionization_Penalty>  (402) 
2.24999

>  <r_epik_Ionization_Penalty_Charging>  (402) 
0

>  <r_epik_Ionization_Penalty_Neutral>  (402) 
2.24999

>  <r_epik_State_Penalty>  (402) 
2.39704

>  <r_epik_Charging_Adjusted_Penalty>  (402) 
2.39704

>  <i_epik_Tot_Q>  (402) 
0

>  <i_epik_Tot_abs_Q>  (402) 
0

>  <s_lp_Force_Field>  (402) 
OPLS3e

>  <r_lp_Energy>  (402) 
79.8774

>  <b_lp_Chiralities_Consistent>  (402) 
1

>  <s_lp_Variant>  (402) 
111:0-2

>  <s_i_glide_gridfile>  (402) 
pfpi4k_grid

>  <i_i_glide_lignum>  (402) 
30

>  <i_i_glide_rotatable_bonds>  (402) 
0

>  <r_i_docking_score>  (402) 
-2.88725

>  <r_i_glide_ligand_efficiency>  (402) 
-0.144362

>  <r_i_glide_ligand_efficiency_sa>  (402) 
-0.39186

>  <r_i_glide_ligand_efficiency_ln>  (402) 
-0.722583

>  <r_i_glide_gscore>  (402) 
-2.88725

>  <r_i_glide_lipo>  (402) 
-0.116101

>  <r_i_glide_hbond>  (402) 
-0.0557099

>  <r_i_glide_metal>  (402) 
-0

>  <r_i_glide_rewards>  (402) 
-1.56566

>  <r_i_glide_evdw>  (402) 
-17.6413

>  <r_i_glide_ecoul>  (402) 
-1.61162

>  <r_i_glide_erotb>  (402) 
0

>  <r_i_glide_esite>  (402) 
-0.0259673

>  <r_i_glide_emodel>  (402) 
-21.6022

>  <r_i_glide_energy>  (402) 
-19.2529

>  <r_i_glide_einternal>  (402) 
0

>  <r_i_glide_intrahb_reward>  (402) 
-0

>  <i_i_glide_confnum>  (402) 
1

>  <i_i_glide_posenum>  (402) 
1

>  <r_i_glide_eff_state_penalty>  (402) 
0

>  <ligand_id>  (402) 
111

>  <original_smiles>  (402) 
CN1CC2(C(=O)N3CCC34CCC14)C1CC3C=CC1C32

>  <smiles>  (402) 
[H]C1=C([H])C2([H])C3([H])C([H])([H])C1([H])C2([H])C31C(=O)N2C([H])([H])C([H])([H])C23C([H])([H])C([H])([H])C3([H])N(C([H])([H])[H])C1([H])[H]

$$$$
112:0:0
     RDKit          3D

 71 75  0  0  1  0  0  0  0  0999 V2000
    5.4728   -9.1949    1.4256 C   0  0  0  0  0  0  0  0  0  0  0  0
    5.0538   -7.8594    1.7180 O   0  0  0  0  0  0  0  0  0  0  0  0
    5.3086   -7.2939    3.0034 C   0  0  2  0  0  0  0  0  0  0  0  0
    6.8365   -7.1927    3.2509 C   0  0  0  0  0  0  0  0  0  0  0  0
    7.3763   -7.0604    4.7055 C   0  0  1  0  0  0  0  0  0  0  0  0
    8.7555   -6.3785    4.6949 C   0  0  0  0  0  0  0  0  0  0  0  0
    6.4906   -6.3792    5.7409 C   0  0  0  0  0  0  0  0  0  0  0  0
    5.1549   -6.1819    5.7165 C   0  0  0  0  0  0  0  0  0  0  0  0
    4.1781   -6.5821    4.6022 C   0  0  2  0  0  0  0  0  0  0  0  0
    4.3672   -8.0059    4.0354 C   0  0  0  0  0  0  0  0  0  0  0  0
    3.0361   -8.6250    3.5393 C   0  0  0  0  0  0  0  0  0  0  0  0
    4.9994   -9.1246    4.8959 C   0  0  0  0  0  0  0  0  0  0  0  0
    4.5136   -5.9494    3.2080 C   0  0  1  0  0  0  0  0  0  0  0  0
    5.3056   -4.7881    3.4937 O   0  0  0  0  0  0  0  0  0  0  0  0
    4.6400   -3.6201    4.0317 C   0  0  1  0  0  0  0  0  0  0  0  0
    5.1060   -2.4554    3.1203 C   0  0  0  0  0  0  0  0  0  0  0  0
    4.5734   -2.4234    1.6812 C   0  0  0  0  0  0  0  0  0  0  0  0
    4.9327   -3.6608    0.8413 C   0  0  0  0  0  0  0  0  0  0  0  0
    3.9104   -4.8314    0.7707 C   0  0  0  0  0  0  0  0  0  0  0  0
    2.6812   -4.3875   -0.0857 C   0  0  0  0  0  0  0  0  0  0  0  0
    4.5995   -5.8796   -0.1319 C   0  0  0  0  0  0  0  0  0  0  0  0
    3.4278   -5.4345    2.1744 C   0  0  2  0  0  0  0  0  0  0  0  0
    2.4342   -4.4698    2.8977 C   0  0  1  0  0  0  0  0  0  0  0  0
    1.1154   -5.1599    3.3010 C   0  0  0  0  0  0  0  0  0  0  0  0
    3.0785   -3.7209    4.0744 C   0  0  0  0  0  0  0  0  0  0  0  0
    5.2329   -3.3359    5.4596 C   0  0  0  0  0  0  0  0  0  0  0  0
    4.6143   -4.0596    6.6797 C   0  0  0  0  0  0  0  0  0  0  0  0
    4.1633   -3.3580    7.5888 O   0  0  0  0  0  0  0  0  0  0  0  0
    4.5707   -5.4157    6.7239 N   0  0  0  0  0  0  0  0  0  0  0  0
    3.9490   -6.1425    7.8343 C   0  0  0  0  0  0  0  0  0  0  0  0
    4.9734   -9.4999    0.5054 H   0  0  0  0  0  0  0  0  0  0  0  0
    5.1996   -9.9261    2.1847 H   0  0  0  0  0  0  0  0  0  0  0  0
    6.5436   -9.2761    1.2437 H   0  0  0  0  0  0  0  0  0  0  0  0
    7.3445   -8.0599    2.8401 H   0  0  0  0  0  0  0  0  0  0  0  0
    7.2233   -6.3646    2.6542 H   0  0  0  0  0  0  0  0  0  0  0  0
    7.5434   -8.0615    5.0984 H   0  0  0  0  0  0  0  0  0  0  0  0
    9.2296   -6.4181    5.6760 H   0  0  0  0  0  0  0  0  0  0  0  0
    8.6624   -5.3286    4.4194 H   0  0  0  0  0  0  0  0  0  0  0  0
    9.4277   -6.8520    3.9781 H   0  0  0  0  0  0  0  0  0  0  0  0
    7.0341   -6.0021    6.5956 H   0  0  0  0  0  0  0  0  0  0  0  0
    3.1517   -6.4215    4.9182 H   0  0  0  0  0  0  0  0  0  0  0  0
    2.4285   -8.9760    4.3761 H   0  0  0  0  0  0  0  0  0  0  0  0
    3.1847   -9.4817    2.8839 H   0  0  0  0  0  0  0  0  0  0  0  0
    2.4112   -7.9218    3.0027 H   0  0  0  0  0  0  0  0  0  0  0  0
    4.3155   -9.9484    5.1046 H   0  0  0  0  0  0  0  0  0  0  0  0
    5.3490   -8.7767    5.8689 H   0  0  0  0  0  0  0  0  0  0  0  0
    5.8535   -9.5666    4.3861 H   0  0  0  0  0  0  0  0  0  0  0  0
    4.8392   -1.5040    3.5794 H   0  0  0  0  0  0  0  0  0  0  0  0
    6.1941   -2.4461    3.0686 H   0  0  0  0  0  0  0  0  0  0  0  0
    3.5124   -2.1996    1.6564 H   0  0  0  0  0  0  0  0  0  0  0  0
    5.0339   -1.5614    1.1981 H   0  0  0  0  0  0  0  0  0  0  0  0
    5.0886   -3.3096   -0.1810 H   0  0  0  0  0  0  0  0  0  0  0  0
    5.9136   -4.0293    1.1514 H   0  0  0  0  0  0  0  0  0  0  0  0
    1.8869   -5.1353   -0.0478 H   0  0  0  0  0  0  0  0  0  0  0  0
    2.9380   -4.2549   -1.1377 H   0  0  0  0  0  0  0  0  0  0  0  0
    2.2572   -3.4253    0.2015 H   0  0  0  0  0  0  0  0  0  0  0  0
    3.9970   -6.7818   -0.2374 H   0  0  0  0  0  0  0  0  0  0  0  0
    5.5945   -6.1479    0.2217 H   0  0  0  0  0  0  0  0  0  0  0  0
    4.7541   -5.4931   -1.1396 H   0  0  0  0  0  0  0  0  0  0  0  0
    2.8401   -6.2853    1.8468 H   0  0  0  0  0  0  0  0  0  0  0  0
    2.0911   -3.6862    2.2364 H   0  0  0  0  0  0  0  0  0  0  0  0
    1.2560   -5.9511    4.0317 H   0  0  0  0  0  0  0  0  0  0  0  0
    0.6271   -5.6045    2.4345 H   0  0  0  0  0  0  0  0  0  0  0  0
    0.4314   -4.4323    3.7369 H   0  0  0  0  0  0  0  0  0  0  0  0
    2.7051   -4.1944    4.9770 H   0  0  0  0  0  0  0  0  0  0  0  0
    2.6742   -2.7117    4.1257 H   0  0  0  0  0  0  0  0  0  0  0  0
    6.3083   -3.5153    5.4686 H   0  0  0  0  0  0  0  0  0  0  0  0
    5.1249   -2.2705    5.6787 H   0  0  0  0  0  0  0  0  0  0  0  0
    3.5502   -5.4968    8.6201 H   0  0  0  0  0  0  0  0  0  0  0  0
    4.6790   -6.7982    8.3105 H   0  0  0  0  0  0  0  0  0  0  0  0
    3.1202   -6.7601    7.4836 H   0  0  0  0  0  0  0  0  0  0  0  0
  1  2  1  0
  1 31  1  0
  1 32  1  0
  1 33  1  0
  3  2  1  6
  3 10  1  0
  3 13  1  0
  3  4  1  0
  4  5  1  0
  4 34  1  0
  4 35  1  0
  5  6  1  0
  5  7  1  0
  5 36  1  1
  6 37  1  0
  6 38  1  0
  6 39  1  0
  7  8  2  0
  7 40  1  0
  8 29  1  0
  8  9  1  0
  9 10  1  0
  9 13  1  0
  9 41  1  1
 10 11  1  0
 10 12  1  0
 11 42  1  0
 11 43  1  0
 11 44  1  0
 12 45  1  0
 12 46  1  0
 12 47  1  0
 13 22  1  0
 13 14  1  1
 14 15  1  0
 15 25  1  0
 15 16  1  0
 15 26  1  1
 16 17  1  0
 16 48  1  0
 16 49  1  0
 17 18  1  0
 17 50  1  0
 17 51  1  0
 18 19  1  0
 18 52  1  0
 18 53  1  0
 19 20  1  0
 19 21  1  0
 19 22  1  0
 20 54  1  0
 20 55  1  0
 20 56  1  0
 21 57  1  0
 21 58  1  0
 21 59  1  0
 22 23  1  0
 22 60  1  6
 23 24  1  0
 23 25  1  0
 23 61  1  6
 24 62  1  0
 24 63  1  0
 24 64  1  0
 25 65  1  0
 25 66  1  0
 26 27  1  0
 26 67  1  0
 26 68  1  0
 27 28  2  0
 27 29  1  0
 29 30  1  0
 30 69  1  0
 30 70  1  0
 30 71  1  0
M  END
>  <i_m_ct_stereo_status>  (403) 
1

>  <s_m_source_file>  (403) 
/var/tmp/pbs.5076255.sched01/tmpo_pg7vmn/129owyy42_r.sdf

>  <i_m_source_file_index>  (403) 
31

>  <i_lp_mmshare_version>  (403) 
48012

>  <i_f3d_flags>  (403) 
0

>  <s_epik_input>  (403) 
W0NIM11PW0NAXTEoW0NAQF0yMzQpW0NIMl1bQ0BASF0oW0NIM10pW0NIXT1DKFtDQEBIXTJDMShbQ0gzXSlbQ0gzXSlOKFtDSDNdKUMoPU8pW0NIMl1bQ0BdNShPMylbQ0gyXVtDSDJdW0NIMl1DKFtDSDNdKShbQ0gzXSlbQ0BASF00W0NAQEhdKFtDSDNdKVtDSDJdNQ==

>  <s_epik_cmdline>  (403) 
J2VwaWtfcHl0aG9uJywgJy1waHQnLCAnMi4wJywgJy1waCcsICc3LjAnLCAnLXRuJywgJzgnLCAnLW1hJywgJzIwMCcsICctaW1hZScsICc8aW5maWxlLm1hZT4nLCAnLW9tYWUnLCAnPG91dGZpbGUubWFlPic=

>  <r_lp_tautomer_probability>  (403) 
1

>  <r_epik_Ionization_Penalty>  (403) 
9.24545e-10

>  <r_epik_Ionization_Penalty_Charging>  (403) 
0

>  <r_epik_Ionization_Penalty_Neutral>  (403) 
9.24545e-10

>  <r_epik_State_Penalty>  (403) 
-0

>  <r_epik_Charging_Adjusted_Penalty>  (403) 
0

>  <i_epik_Tot_Q>  (403) 
0

>  <i_epik_Tot_abs_Q>  (403) 
0

>  <s_lp_Force_Field>  (403) 
OPLS3e

>  <r_lp_Energy>  (403) 
106.993

>  <b_lp_Chiralities_Consistent>  (403) 
1

>  <s_lp_Variant>  (403) 
112:0-1

>  <s_i_glide_gridfile>  (403) 
pfpi4k_grid

>  <i_i_glide_lignum>  (403) 
31

>  <i_i_glide_rotatable_bonds>  (403) 
1

>  <r_i_docking_score>  (403) 
-1.61973

>  <r_i_glide_ligand_efficiency>  (403) 
-0.0539911

>  <r_i_glide_ligand_efficiency_sa>  (403) 
-0.167763

>  <r_i_glide_ligand_efficiency_ln>  (403) 
-0.368021

>  <r_i_glide_gscore>  (403) 
-1.61973

>  <r_i_glide_lipo>  (403) 
-0.212761

>  <r_i_glide_hbond>  (403) 
0

>  <r_i_glide_metal>  (403) 
-0

>  <r_i_glide_rewards>  (403) 
-0.575396

>  <r_i_glide_evdw>  (403) 
-15.1946

>  <r_i_glide_ecoul>  (403) 
-0.478957

>  <r_i_glide_erotb>  (403) 
0

>  <r_i_glide_esite>  (403) 
0

>  <r_i_glide_emodel>  (403) 
-16.9728

>  <r_i_glide_energy>  (403) 
-15.6736

>  <r_i_glide_einternal>  (403) 
0.0331933

>  <r_i_glide_intrahb_reward>  (403) 
-0

>  <i_i_glide_confnum>  (403) 
1

>  <i_i_glide_posenum>  (403) 
12

>  <r_i_glide_eff_state_penalty>  (403) 
0

>  <ligand_id>  (403) 
112

>  <original_smiles>  (403) 
COC12CC(C)C=C3C(C1(C)C)C21OC2(CCCC(C)(C)C1C(C)C2)CC(=O)N3C

>  <smiles>  (403) 
[H]C1=C2N(C([H])([H])[H])C(=O)C([H])([H])C34OC5(C2([H])C(C([H])([H])[H])(C([H])([H])[H])C5(OC([H])([H])[H])C([H])([H])C1([H])C([H])([H])[H])C([H])(C([H])(C([H])([H])[H])C3([H])[H])C(C([H])([H])[H])(C([H])([H])[H])C([H])([H])C([H])([H])C4([H])[H]

$$$$
113:0:0
     RDKit          3D

 36 39  0  0  1  0  0  0  0  0999 V2000
    4.6034   -0.6620   -0.6832 C   0  0  0  0  0  0  0  0  0  0  0  0
    3.8812   -0.8958    0.2648 C   0  0  0  0  0  0  0  0  0  0  0  0
    3.0150   -1.1860    1.3974 C   0  0  0  0  0  0  0  0  0  0  0  0
    2.2674   -0.1456    1.9881 C   0  0  0  0  0  0  0  0  0  0  0  0
    1.4365   -0.4322    3.0994 C   0  0  0  0  0  0  0  0  0  0  0  0
    1.4077   -1.7731    3.5686 C   0  0  0  0  0  0  0  0  0  0  0  0
    2.1715   -2.7400    2.8950 C   0  0  0  0  0  0  0  0  0  0  0  0
    2.9678   -2.4616    1.8411 N   0  0  0  0  0  0  0  0  0  0  0  0
    0.6400   -2.1088    4.7008 N   0  0  0  0  0  0  0  0  0  0  0  0
    0.2017   -3.3198    5.1047 N   0  0  0  0  0  0  0  0  0  0  0  0
   -0.5394   -3.0888    6.1614 N   0  0  0  0  0  0  0  0  0  0  0  0
   -0.5740   -1.7358    6.4777 N   0  0  0  0  0  0  0  0  0  0  0  0
    0.1850   -1.1820    5.5369 C   0  0  0  0  0  0  0  0  0  0  0  0
    0.4822    0.2653    5.3314 C   0  0  0  0  0  0  0  0  0  0  0  0
    0.5687    0.6237    3.8193 C   0  0  2  0  0  0  0  0  0  0  0  0
   -0.8620    0.6811    3.2649 C   0  0  0  0  0  0  0  0  0  0  0  0
   -1.3528    2.0991    3.5694 C   0  0  0  0  0  0  0  0  0  0  0  0
   -0.1493    2.9155    3.6901 N   0  0  0  0  0  0  0  0  0  0  0  0
   -0.1412    4.2616    3.7035 C   0  0  0  0  0  0  0  0  0  0  0  0
    1.2058    5.0062    3.6811 C   0  0  0  0  0  0  0  0  0  0  0  0
   -1.1879    4.9174    3.7323 O   0  0  0  0  0  0  0  0  0  0  0  0
    1.0446    2.0834    3.6677 C   0  0  0  0  0  0  0  0  0  0  0  0
    5.2115   -0.4694   -1.5397 H   0  0  0  0  0  0  0  0  0  0  0  0
    2.3636    0.8313    1.5278 H   0  0  0  0  0  0  0  0  0  0  0  0
    2.1713   -3.7758    3.2096 H   0  0  0  0  0  0  0  0  0  0  0  0
   -0.2677    0.8556    5.8470 H   0  0  0  0  0  0  0  0  0  0  0  0
    1.4319    0.4584    5.8231 H   0  0  0  0  0  0  0  0  0  0  0  0
   -0.8525    0.5232    2.1873 H   0  0  0  0  0  0  0  0  0  0  0  0
   -1.5276   -0.0784    3.6815 H   0  0  0  0  0  0  0  0  0  0  0  0
   -2.0459    2.4383    2.7941 H   0  0  0  0  0  0  0  0  0  0  0  0
   -1.8743    2.1275    4.5243 H   0  0  0  0  0  0  0  0  0  0  0  0
    2.0943    4.3728    3.6913 H   0  0  0  0  0  0  0  0  0  0  0  0
    1.2776    5.6652    4.5430 H   0  0  0  0  0  0  0  0  0  0  0  0
    1.2803    5.6091    2.7761 H   0  0  0  0  0  0  0  0  0  0  0  0
    1.7744    2.3317    4.4396 H   0  0  0  0  0  0  0  0  0  0  0  0
    1.4736    2.3363    2.6963 H   0  0  0  0  0  0  0  0  0  0  0  0
  1  2  3  0
  1 23  1  0
  2  3  1  0
  3  8  2  0
  3  4  1  0
  4  5  2  0
  4 24  1  0
  5 15  1  0
  5  6  1  0
  6  7  2  0
  6  9  1  0
  7  8  1  0
  7 25  1  0
  9 13  1  0
  9 10  1  0
 10 11  2  0
 11 12  1  0
 12 13  2  0
 13 14  1  0
 15 14  1  1
 14 26  1  0
 14 27  1  0
 15 22  1  0
 15 16  1  0
 16 17  1  0
 16 28  1  0
 16 29  1  0
 17 18  1  0
 17 30  1  0
 17 31  1  0
 18 19  1  0
 18 22  1  0
 19 20  1  0
 19 21  2  0
 20 32  1  0
 20 33  1  0
 20 34  1  0
 22 35  1  0
 22 36  1  0
M  END
>  <i_m_ct_stereo_status>  (404) 
1

>  <s_m_source_file>  (404) 
/var/tmp/pbs.5076255.sched01/tmpo_pg7vmn/129owyy42_r.sdf

>  <i_m_source_file_index>  (404) 
32

>  <i_lp_mmshare_version>  (404) 
48012

>  <i_f3d_flags>  (404) 
0

>  <s_epik_input>  (404) 
W0NIXSNDYyhbY0hdMSluW2NIXWMobjJjKFtDSDJdMylubm4yKWMxW0NAQF0zNFtDSDJdW0NIMl1OKFtDSDJdNClDKD1PKVtDSDNd

>  <s_epik_cmdline>  (404) 
J2VwaWtfcHl0aG9uJywgJy1waHQnLCAnMi4wJywgJy1waCcsICc3LjAnLCAnLXRuJywgJzgnLCAnLW1hJywgJzIwMCcsICctaW1hZScsICc8aW5maWxlLm1hZT4nLCAnLW9tYWUnLCAnPG91dGZpbGUubWFlPic=

>  <r_lp_tautomer_probability>  (404) 
1

>  <r_epik_Ionization_Penalty>  (404) 
1.76644e-06

>  <r_epik_Ionization_Penalty_Charging>  (404) 
0

>  <r_epik_Ionization_Penalty_Neutral>  (404) 
1.76644e-06

>  <r_epik_State_Penalty>  (404) 
-0

>  <r_epik_Charging_Adjusted_Penalty>  (404) 
0

>  <i_epik_Tot_Q>  (404) 
0

>  <i_epik_Tot_abs_Q>  (404) 
0

>  <s_lp_Force_Field>  (404) 
OPLS3e

>  <r_lp_Energy>  (404) 
28.1936

>  <b_lp_Chiralities_Consistent>  (404) 
1

>  <s_lp_Variant>  (404) 
113:0-1

>  <s_i_glide_gridfile>  (404) 
pfpi4k_grid

>  <i_i_glide_lignum>  (404) 
32

>  <i_i_glide_rotatable_bonds>  (404) 
2

>  <r_i_docking_score>  (404) 
-3.64514

>  <r_i_glide_ligand_efficiency>  (404) 
-0.165688

>  <r_i_glide_ligand_efficiency_sa>  (404) 
-0.464265

>  <r_i_glide_ligand_efficiency_ln>  (404) 
-0.891005

>  <r_i_glide_gscore>  (404) 
-3.64514

>  <r_i_glide_lipo>  (404) 
-0.00815307

>  <r_i_glide_hbond>  (404) 
-0.148451

>  <r_i_glide_metal>  (404) 
-0

>  <r_i_glide_rewards>  (404) 
-1.42048

>  <r_i_glide_evdw>  (404) 
-22.9672

>  <r_i_glide_ecoul>  (404) 
-5.79878

>  <r_i_glide_erotb>  (404) 
0.211115

>  <r_i_glide_esite>  (404) 
-0.260994

>  <r_i_glide_emodel>  (404) 
-35.7372

>  <r_i_glide_energy>  (404) 
-28.766

>  <r_i_glide_einternal>  (404) 
0.0804896

>  <r_i_glide_intrahb_reward>  (404) 
-0

>  <i_i_glide_confnum>  (404) 
3

>  <i_i_glide_posenum>  (404) 
33

>  <r_i_glide_eff_state_penalty>  (404) 
0

>  <ligand_id>  (404) 
113

>  <original_smiles>  (404) 
C#Cc1cc2c(cn1)-n1nnnc1CC21CCN(C(C)=O)C1

>  <smiles>  (404) 
[H]C#Cc1nc([H])c2c(c1[H])C1(C([H])([H])c3nnnn3-2)C([H])([H])N(C(=O)C([H])([H])[H])C([H])([H])C1([H])[H]

$$$$
113:0:1
     RDKit          3D

 36 39  0  0  1  0  0  0  0  0999 V2000
   -1.5775   -8.4303    2.0947 C   0  0  0  0  0  0  0  0  0  0  0  0
   -0.4663   -7.9604    1.9088 C   0  0  0  0  0  0  0  0  0  0  0  0
    0.8695   -7.4439    1.6727 C   0  0  0  0  0  0  0  0  0  0  0  0
    1.9907   -8.1804    2.0999 C   0  0  0  0  0  0  0  0  0  0  0  0
    3.2889   -7.6455    1.9059 C   0  0  0  0  0  0  0  0  0  0  0  0
    3.3929   -6.3788    1.2792 C   0  0  0  0  0  0  0  0  0  0  0  0
    2.2145   -5.7380    0.8576 C   0  0  0  0  0  0  0  0  0  0  0  0
    0.9735   -6.2563    1.0434 N   0  0  0  0  0  0  0  0  0  0  0  0
    4.6651   -5.7858    1.1021 N   0  0  0  0  0  0  0  0  0  0  0  0
    5.0337   -4.7942    0.2585 N   0  0  0  0  0  0  0  0  0  0  0  0
    6.3159   -4.6406    0.4435 N   0  0  0  0  0  0  0  0  0  0  0  0
    6.8130   -5.5213    1.3980 N   0  0  0  0  0  0  0  0  0  0  0  0
    5.7371   -6.2091    1.7666 C   0  0  0  0  0  0  0  0  0  0  0  0
    5.6514   -7.3196    2.7627 C   0  0  0  0  0  0  0  0  0  0  0  0
    4.5810   -8.3673    2.3355 C   0  0  2  0  0  0  0  0  0  0  0  0
    5.1761   -9.1969    1.1927 C   0  0  0  0  0  0  0  0  0  0  0  0
    5.9845  -10.2933    1.8888 C   0  0  0  0  0  0  0  0  0  0  0  0
    5.3724  -10.4551    3.2068 N   0  0  0  0  0  0  0  0  0  0  0  0
    5.6244  -11.4803    4.0444 C   0  0  0  0  0  0  0  0  0  0  0  0
    4.7887  -11.6269    5.3305 C   0  0  0  0  0  0  0  0  0  0  0  0
    6.5037  -12.3132    3.8149 O   0  0  0  0  0  0  0  0  0  0  0  0
    4.3912   -9.4077    3.4545 C   0  0  0  0  0  0  0  0  0  0  0  0
   -2.5533   -8.8399    2.2377 H   0  0  0  0  0  0  0  0  0  0  0  0
    1.7999   -9.1370    2.5621 H   0  0  0  0  0  0  0  0  0  0  0  0
    2.2540   -4.7670    0.3785 H   0  0  0  0  0  0  0  0  0  0  0  0
    6.6363   -7.7682    2.8931 H   0  0  0  0  0  0  0  0  0  0  0  0
    5.3796   -6.8755    3.7234 H   0  0  0  0  0  0  0  0  0  0  0  0
    4.3819   -9.6456    0.5952 H   0  0  0  0  0  0  0  0  0  0  0  0
    5.7923   -8.6197    0.5024 H   0  0  0  0  0  0  0  0  0  0  0  0
    5.9835  -11.2126    1.2970 H   0  0  0  0  0  0  0  0  0  0  0  0
    7.0200   -9.9867    2.0288 H   0  0  0  0  0  0  0  0  0  0  0  0
    4.0537  -10.8385    5.5019 H   0  0  0  0  0  0  0  0  0  0  0  0
    5.4467  -11.6373    6.1998 H   0  0  0  0  0  0  0  0  0  0  0  0
    4.2310  -12.5655    5.3136 H   0  0  0  0  0  0  0  0  0  0  0  0
    4.4994   -8.9457    4.4397 H   0  0  0  0  0  0  0  0  0  0  0  0
    3.4387   -9.9358    3.4199 H   0  0  0  0  0  0  0  0  0  0  0  0
  1  2  3  0
  1 23  1  0
  2  3  1  0
  3  8  2  0
  3  4  1  0
  4  5  2  0
  4 24  1  0
  5 15  1  0
  5  6  1  0
  6  7  2  0
  6  9  1  0
  7  8  1  0
  7 25  1  0
  9 13  1  0
  9 10  1  0
 10 11  2  0
 11 12  1  0
 12 13  2  0
 13 14  1  0
 15 14  1  1
 14 26  1  0
 14 27  1  0
 15 22  1  0
 15 16  1  0
 16 17  1  0
 16 28  1  0
 16 29  1  0
 17 18  1  0
 17 30  1  0
 17 31  1  0
 18 19  1  0
 18 22  1  0
 19 20  1  0
 19 21  2  0
 20 32  1  0
 20 33  1  0
 20 34  1  0
 22 35  1  0
 22 36  1  0
M  END
>  <i_m_ct_stereo_status>  (405) 
1

>  <s_m_source_file>  (405) 
/var/tmp/pbs.5076255.sched01/tmpo_pg7vmn/129owyy42_r.sdf

>  <i_m_source_file_index>  (405) 
32

>  <i_lp_mmshare_version>  (405) 
48012

>  <i_f3d_flags>  (405) 
0

>  <s_epik_input>  (405) 
W0NIXSNDYyhbY0hdMSluW2NIXWMobjJjKFtDSDJdMylubm4yKWMxW0NAQF0zNFtDSDJdW0NIMl1OKFtDSDJdNClDKD1PKVtDSDNd

>  <s_epik_cmdline>  (405) 
J2VwaWtfcHl0aG9uJywgJy1waHQnLCAnMi4wJywgJy1waCcsICc3LjAnLCAnLXRuJywgJzgnLCAnLW1hJywgJzIwMCcsICctaW1hZScsICc8aW5maWxlLm1hZT4nLCAnLW9tYWUnLCAnPG91dGZpbGUubWFlPic=

>  <r_lp_tautomer_probability>  (405) 
1

>  <r_epik_Ionization_Penalty>  (405) 
1.76644e-06

>  <r_epik_Ionization_Penalty_Charging>  (405) 
0

>  <r_epik_Ionization_Penalty_Neutral>  (405) 
1.76644e-06

>  <r_epik_State_Penalty>  (405) 
-0

>  <r_epik_Charging_Adjusted_Penalty>  (405) 
0

>  <i_epik_Tot_Q>  (405) 
0

>  <i_epik_Tot_abs_Q>  (405) 
0

>  <s_lp_Force_Field>  (405) 
OPLS3e

>  <r_lp_Energy>  (405) 
28.1936

>  <b_lp_Chiralities_Consistent>  (405) 
1

>  <s_lp_Variant>  (405) 
113:0-1

>  <s_i_glide_gridfile>  (405) 
pfpi4k_grid

>  <i_i_glide_lignum>  (405) 
32

>  <i_i_glide_rotatable_bonds>  (405) 
2

>  <r_i_docking_score>  (405) 
-3.53094

>  <r_i_glide_ligand_efficiency>  (405) 
-0.160497

>  <r_i_glide_ligand_efficiency_sa>  (405) 
-0.44972

>  <r_i_glide_ligand_efficiency_ln>  (405) 
-0.86309

>  <r_i_glide_gscore>  (405) 
-3.53094

>  <r_i_glide_lipo>  (405) 
-0.135737

>  <r_i_glide_hbond>  (405) 
-0.16

>  <r_i_glide_metal>  (405) 
-0

>  <r_i_glide_rewards>  (405) 
-1.57838

>  <r_i_glide_evdw>  (405) 
-25.2044

>  <r_i_glide_ecoul>  (405) 
-3.8052

>  <r_i_glide_erotb>  (405) 
0.211115

>  <r_i_glide_esite>  (405) 
-0.0369387

>  <r_i_glide_emodel>  (405) 
-35.7977

>  <r_i_glide_energy>  (405) 
-29.0096

>  <r_i_glide_einternal>  (405) 
0.110043

>  <r_i_glide_intrahb_reward>  (405) 
-0

>  <i_i_glide_confnum>  (405) 
3

>  <i_i_glide_posenum>  (405) 
35

>  <r_i_glide_eff_state_penalty>  (405) 
0

>  <ligand_id>  (405) 
113

>  <original_smiles>  (405) 
C#Cc1cc2c(cn1)-n1nnnc1CC21CCN(C(C)=O)C1

>  <smiles>  (405) 
[H]C#Cc1nc([H])c2c(c1[H])C1(C([H])([H])c3nnnn3-2)C([H])([H])N(C(=O)C([H])([H])[H])C([H])([H])C1([H])[H]

$$$$
113:0:2
     RDKit          3D

 36 39  0  0  1  0  0  0  0  0999 V2000
   -0.7680    2.4415    2.7418 C   0  0  0  0  0  0  0  0  0  0  0  0
   -0.3243    1.3388    3.0125 C   0  0  0  0  0  0  0  0  0  0  0  0
    0.2330    0.0359    3.3216 C   0  0  0  0  0  0  0  0  0  0  0  0
    1.2928   -0.4743    2.5430 C   0  0  0  0  0  0  0  0  0  0  0  0
    1.8120   -1.7592    2.8374 C   0  0  0  0  0  0  0  0  0  0  0  0
    1.2300   -2.4678    3.9197 C   0  0  0  0  0  0  0  0  0  0  0  0
    0.1982   -1.8576    4.6544 C   0  0  0  0  0  0  0  0  0  0  0  0
   -0.3047   -0.6380    4.3616 N   0  0  0  0  0  0  0  0  0  0  0  0
    1.6781   -3.7722    4.2244 N   0  0  0  0  0  0  0  0  0  0  0  0
    1.5332   -4.4722    5.3714 N   0  0  0  0  0  0  0  0  0  0  0  0
    2.1718   -5.5920    5.1770 N   0  0  0  0  0  0  0  0  0  0  0  0
    2.7329   -5.6538    3.9047 N   0  0  0  0  0  0  0  0  0  0  0  0
    2.3995   -4.4868    3.3654 C   0  0  0  0  0  0  0  0  0  0  0  0
    2.7550   -3.9631    2.0140 C   0  0  0  0  0  0  0  0  0  0  0  0
    2.9651   -2.4200    2.0518 C   0  0  2  0  0  0  0  0  0  0  0  0
    4.3314   -2.1486    2.6998 C   0  0  0  0  0  0  0  0  0  0  0  0
    5.3386   -2.2591    1.5490 C   0  0  0  0  0  0  0  0  0  0  0  0
    4.5814   -1.9721    0.3305 N   0  0  0  0  0  0  0  0  0  0  0  0
    5.1271   -1.7309   -0.8780 C   0  0  0  0  0  0  0  0  0  0  0  0
    4.2285   -1.2794   -2.0423 C   0  0  0  0  0  0  0  0  0  0  0  0
    6.3395   -1.8406   -1.0871 O   0  0  0  0  0  0  0  0  0  0  0  0
    3.1565   -1.8890    0.6192 C   0  0  0  0  0  0  0  0  0  0  0  0
   -1.1365    3.4082    2.4795 H   0  0  0  0  0  0  0  0  0  0  0  0
    1.6555    0.1451    1.7337 H   0  0  0  0  0  0  0  0  0  0  0  0
   -0.2649   -2.3662    5.4909 H   0  0  0  0  0  0  0  0  0  0  0  0
    3.6314   -4.4888    1.6376 H   0  0  0  0  0  0  0  0  0  0  0  0
    1.9303   -4.2148    1.3458 H   0  0  0  0  0  0  0  0  0  0  0  0
    4.3553   -1.1428    3.1192 H   0  0  0  0  0  0  0  0  0  0  0  0
    4.5688   -2.8336    3.5178 H   0  0  0  0  0  0  0  0  0  0  0  0
    6.1868   -1.5861    1.7037 H   0  0  0  0  0  0  0  0  0  0  0  0
    5.7244   -3.2758    1.4703 H   0  0  0  0  0  0  0  0  0  0  0  0
    3.1623   -1.2253   -1.8154 H   0  0  0  0  0  0  0  0  0  0  0  0
    4.3403   -1.9657   -2.8814 H   0  0  0  0  0  0  0  0  0  0  0  0
    4.5239   -0.2813   -2.3703 H   0  0  0  0  0  0  0  0  0  0  0  0
    2.5474   -2.4553   -0.0894 H   0  0  0  0  0  0  0  0  0  0  0  0
    2.9274   -0.8302    0.4984 H   0  0  0  0  0  0  0  0  0  0  0  0
  1  2  3  0
  1 23  1  0
  2  3  1  0
  3  8  2  0
  3  4  1  0
  4  5  2  0
  4 24  1  0
  5 15  1  0
  5  6  1  0
  6  7  2  0
  6  9  1  0
  7  8  1  0
  7 25  1  0
  9 13  1  0
  9 10  1  0
 10 11  2  0
 11 12  1  0
 12 13  2  0
 13 14  1  0
 15 14  1  6
 14 26  1  0
 14 27  1  0
 15 22  1  0
 15 16  1  0
 16 17  1  0
 16 28  1  0
 16 29  1  0
 17 18  1  0
 17 30  1  0
 17 31  1  0
 18 19  1  0
 18 22  1  0
 19 20  1  0
 19 21  2  0
 20 32  1  0
 20 33  1  0
 20 34  1  0
 22 35  1  0
 22 36  1  0
M  END
>  <i_m_ct_stereo_status>  (406) 
1

>  <s_m_source_file>  (406) 
/var/tmp/pbs.5076255.sched01/tmpo_pg7vmn/129owyy42_r.sdf

>  <i_m_source_file_index>  (406) 
32

>  <i_lp_mmshare_version>  (406) 
48012

>  <i_f3d_flags>  (406) 
0

>  <s_epik_input>  (406) 
W0NIXSNDYyhbY0hdMSluW2NIXWMobjJjKFtDSDJdMylubm4yKWMxW0NAQF0zNFtDSDJdW0NIMl1OKFtDSDJdNClDKD1PKVtDSDNd

>  <s_epik_cmdline>  (406) 
J2VwaWtfcHl0aG9uJywgJy1waHQnLCAnMi4wJywgJy1waCcsICc3LjAnLCAnLXRuJywgJzgnLCAnLW1hJywgJzIwMCcsICctaW1hZScsICc8aW5maWxlLm1hZT4nLCAnLW9tYWUnLCAnPG91dGZpbGUubWFlPic=

>  <r_lp_tautomer_probability>  (406) 
1

>  <r_epik_Ionization_Penalty>  (406) 
1.76644e-06

>  <r_epik_Ionization_Penalty_Charging>  (406) 
0

>  <r_epik_Ionization_Penalty_Neutral>  (406) 
1.76644e-06

>  <r_epik_State_Penalty>  (406) 
-0

>  <r_epik_Charging_Adjusted_Penalty>  (406) 
0

>  <i_epik_Tot_Q>  (406) 
0

>  <i_epik_Tot_abs_Q>  (406) 
0

>  <s_lp_Force_Field>  (406) 
OPLS3e

>  <r_lp_Energy>  (406) 
28.1936

>  <b_lp_Chiralities_Consistent>  (406) 
1

>  <s_lp_Variant>  (406) 
113:0-1

>  <s_i_glide_gridfile>  (406) 
pfpi4k_grid

>  <i_i_glide_lignum>  (406) 
32

>  <i_i_glide_rotatable_bonds>  (406) 
2

>  <r_i_docking_score>  (406) 
-3.33314

>  <r_i_glide_ligand_efficiency>  (406) 
-0.151506

>  <r_i_glide_ligand_efficiency_sa>  (406) 
-0.424527

>  <r_i_glide_ligand_efficiency_ln>  (406) 
-0.814741

>  <r_i_glide_gscore>  (406) 
-3.33314

>  <r_i_glide_lipo>  (406) 
-0.117896

>  <r_i_glide_hbond>  (406) 
-0.15319

>  <r_i_glide_metal>  (406) 
-0

>  <r_i_glide_rewards>  (406) 
-1.41261

>  <r_i_glide_evdw>  (406) 
-22.5571

>  <r_i_glide_ecoul>  (406) 
-4.66882

>  <r_i_glide_erotb>  (406) 
0.211115

>  <r_i_glide_esite>  (406) 
-0.0323753

>  <r_i_glide_emodel>  (406) 
-33.6316

>  <r_i_glide_energy>  (406) 
-27.2259

>  <r_i_glide_einternal>  (406) 
0.0911685

>  <r_i_glide_intrahb_reward>  (406) 
-0

>  <i_i_glide_confnum>  (406) 
3

>  <i_i_glide_posenum>  (406) 
2

>  <r_i_glide_eff_state_penalty>  (406) 
0

>  <ligand_id>  (406) 
113

>  <original_smiles>  (406) 
C#Cc1cc2c(cn1)-n1nnnc1CC21CCN(C(C)=O)C1

>  <smiles>  (406) 
[H]C#Cc1nc([H])c2c(c1[H])C1(C([H])([H])c3nnnn3-2)C([H])([H])N(C(=O)C([H])([H])[H])C([H])([H])C1([H])[H]

$$$$
115:2:0
     RDKit          3D

 65 70  0  0  1  0  0  0  0  0999 V2000
    2.8311    0.5411   -4.9199 C   0  0  0  0  0  0  0  0  0  0  0  0
    3.9066    0.0782   -3.9354 C   0  0  0  0  0  0  0  0  0  0  0  0
    3.4609   -0.9935   -2.9349 C   0  0  0  0  0  0  0  0  0  0  0  0
    3.4071   -2.4135   -3.5277 C   0  0  0  0  0  0  0  0  0  0  0  0
    2.5075   -3.3569   -2.7176 C   0  0  0  0  0  0  0  0  0  0  0  0
    3.1895   -3.8307   -1.4104 C   0  0  0  0  0  0  0  0  0  0  0  0
    2.2602   -4.6756   -0.5443 C   0  0  0  0  0  0  0  0  0  0  0  0
    2.8889   -5.2239    0.6983 N   0  0  2  0  0  0  0  0  0  0  0  0
    2.1393   -6.4633    1.3707 C   0  0  0  0  0  0  0  0  0  0  0  0
    0.7316   -6.6324    1.4486 C   0  0  0  0  0  0  0  0  0  0  0  0
   -0.0998   -6.2714    0.4597 O   0  0  0  0  0  0  0  0  0  0  0  0
    0.0872   -7.1624    2.6032 C   0  0  0  0  0  0  0  0  0  0  0  0
    0.7864   -7.2724    3.8202 C   0  0  0  0  0  0  0  0  0  0  0  0
    2.1816   -7.1140    3.8187 C   0  0  0  0  0  0  0  0  0  0  0  0
    2.8032   -7.1055    2.4656 C   0  0  0  0  0  0  0  0  0  0  0  0
    4.3371   -7.1577    2.3613 C   0  0  1  0  0  0  0  0  0  0  0  0
    4.8123   -8.3849    2.9383 O   0  0  0  0  0  0  0  0  0  0  0  0
    4.4955   -9.5615    2.1958 C   0  0  0  0  0  0  0  0  0  0  0  0
    5.4658   -6.7999    1.3377 C   0  0  0  0  0  0  0  0  0  0  0  0
    6.7912   -6.4233    2.1551 C   0  0  0  0  0  0  0  0  0  0  0  0
    6.5763   -5.6924    3.5284 C   0  0  0  0  0  0  0  0  0  0  0  0
    7.3697   -5.8553    4.4474 O   0  0  0  0  0  0  0  0  0  0  0  0
    5.2760   -4.8903    3.5249 C   0  0  2  0  0  0  0  0  0  0  0  0
    5.5453   -3.5855    2.7050 C   0  0  0  0  0  0  0  0  0  0  0  0
    4.6839   -3.4813    1.4477 C   0  0  0  0  0  0  0  0  0  0  0  0
    3.3121   -4.1216    1.6943 C   0  0  2  0  0  0  0  0  0  0  0  0
    3.2518   -4.7749    3.0888 C   0  0  2  0  0  0  0  0  0  0  0  0
    3.8696   -4.8642    4.4449 C   0  0  1  0  0  0  0  0  0  0  0  0
    2.8356   -6.1322    4.9977 C   0  0  0  0  0  0  0  0  0  0  0  0
    4.3814   -5.9696    3.1648 C   0  0  1  0  0  0  0  0  0  0  0  0
    3.1996    1.3634   -5.5327 H   0  0  0  0  0  0  0  0  0  0  0  0
    1.9332    0.8771   -4.4050 H   0  0  0  0  0  0  0  0  0  0  0  0
    2.5435   -0.2559   -5.5993 H   0  0  0  0  0  0  0  0  0  0  0  0
    4.7404   -0.3026   -4.5164 H   0  0  0  0  0  0  0  0  0  0  0  0
    4.2353    0.9513   -3.3724 H   0  0  0  0  0  0  0  0  0  0  0  0
    4.1408   -1.0001   -2.0820 H   0  0  0  0  0  0  0  0  0  0  0  0
    2.4945   -0.7005   -2.5310 H   0  0  0  0  0  0  0  0  0  0  0  0
    3.0343   -2.3731   -4.5492 H   0  0  0  0  0  0  0  0  0  0  0  0
    4.4147   -2.8305   -3.5967 H   0  0  0  0  0  0  0  0  0  0  0  0
    1.5501   -2.8640   -2.5188 H   0  0  0  0  0  0  0  0  0  0  0  0
    2.2321   -4.2094   -3.3424 H   0  0  0  0  0  0  0  0  0  0  0  0
    4.1103   -4.3660   -1.6294 H   0  0  0  0  0  0  0  0  0  0  0  0
    3.4548   -2.9272   -0.8447 H   0  0  0  0  0  0  0  0  0  0  0  0
    1.4749   -3.9901   -0.3158 H   0  0  0  0  0  0  0  0  0  0  0  0
    1.7935   -5.4773   -1.0980 H   0  0  0  0  0  0  0  0  0  0  0  0
   -0.9863   -7.2767    2.6081 H   0  0  0  0  0  0  0  0  0  0  0  0
    0.2275   -7.3151    4.7490 H   0  0  0  0  0  0  0  0  0  0  0  0
    4.9455  -10.4205    2.6890 H   0  0  0  0  0  0  0  0  0  0  0  0
    4.8799   -9.5628    1.1764 H   0  0  0  0  0  0  0  0  0  0  0  0
    3.4226   -9.7396    2.1488 H   0  0  0  0  0  0  0  0  0  0  0  0
    5.6733   -7.6284    0.6650 H   0  0  0  0  0  0  0  0  0  0  0  0
    5.2498   -5.9792    0.6668 H   0  0  0  0  0  0  0  0  0  0  0  0
    7.3372   -7.3383    2.3778 H   0  0  0  0  0  0  0  0  0  0  0  0
    7.4685   -5.8208    1.5539 H   0  0  0  0  0  0  0  0  0  0  0  0
    5.3492   -2.7310    3.3597 H   0  0  0  0  0  0  0  0  0  0  0  0
    6.5768   -3.4695    2.4028 H   0  0  0  0  0  0  0  0  0  0  0  0
    4.5744   -2.4221    1.2157 H   0  0  0  0  0  0  0  0  0  0  0  0
    5.2320   -3.9028    0.6060 H   0  0  0  0  0  0  0  0  0  0  0  0
    2.5747   -3.3133    1.6653 H   0  0  0  0  0  0  0  0  0  0  0  0
    2.1899   -4.7860    3.3347 H   0  0  0  0  0  0  0  0  0  0  0  0
    3.8062   -3.9551    5.0082 H   0  0  0  0  0  0  0  0  0  0  0  0
    2.0144   -5.6613    5.5266 H   0  0  0  0  0  0  0  0  0  0  0  0
    3.3435   -6.7474    5.7430 H   0  0  0  0  0  0  0  0  0  0  0  0
    4.6804   -6.6693    4.0171 H   0  0  0  0  0  0  0  0  0  0  0  0
    3.7698   -5.5839    0.3474 H   0  0  0  0  0  0  0  0  0  0  0  0
  1  2  1  0
  1 31  1  0
  1 32  1  0
  1 33  1  0
  2  3  1  0
  2 34  1  0
  2 35  1  0
  3  4  1  0
  3 36  1  0
  3 37  1  0
  4  5  1  0
  4 38  1  0
  4 39  1  0
  5  6  1  0
  5 40  1  0
  5 41  1  0
  6  7  1  0
  6 42  1  0
  6 43  1  0
  7  8  1  0
  7 44  1  0
  7 45  1  0
  8 26  1  0
  8  9  1  0
  8 65  1  6
  9 15  2  0
  9 10  1  0
 10 11  1  0
 10 12  2  0
 12 13  1  0
 12 46  1  0
 13 14  2  0
 13 47  1  0
 14 29  1  0
 14 15  1  0
 15 16  1  0
 16 30  1  0
 16 17  1  1
 16 19  1  0
 17 18  1  0
 18 48  1  0
 18 49  1  0
 18 50  1  0
 19 20  1  0
 19 51  1  0
 19 52  1  0
 20 21  1  0
 20 53  1  0
 20 54  1  0
 21 22  2  0
 21 23  1  0
 23 28  1  0
 23 30  1  0
 23 24  1  6
 24 25  1  0
 24 55  1  0
 24 56  1  0
 25 26  1  0
 25 57  1  0
 25 58  1  0
 26 27  1  0
 26 59  1  1
 27 28  1  0
 27 30  1  0
 27 60  1  1
 28 29  1  0
 28 61  1  1
 29 62  1  0
 29 63  1  0
 30 64  1  1
M  CHG  2   8   1  11  -1
M  END
>  <i_m_ct_stereo_status>  (407) 
1

>  <s_m_source_file>  (407) 
/var/tmp/pbs.5076255.sched01/tmpo_pg7vmn/129owyy42_r.sdf

>  <i_m_source_file_index>  (407) 
36

>  <i_lp_mmshare_version>  (407) 
48012

>  <i_f3d_flags>  (407) 
0

>  <s_epik_input>  (407) 
W0NIM11bQ0gyXVtDSDJdW0NIMl1bQ0gyXVtDSDJdW0NIMl1OKFtDQEhdKFtDSDJdW0NIMl0xKVtDQEBIXTJbQ0BASF0zW0NAQF0xNDUpYzZjKFtDQEBdKFtDQEhdMjUpKE9bQ0gzXSlbQ0gyXVtDSDJdQzQ9TyljKFtDSDJdMylbY0hdW2NIXWM2W09IXQ==

>  <s_epik_cmdline>  (407) 
J2VwaWtfcHl0aG9uJywgJy1waHQnLCAnMi4wJywgJy1waCcsICc3LjAnLCAnLXRuJywgJzgnLCAnLW1hJywgJzIwMCcsICctaW1hZScsICc8aW5maWxlLm1hZT4nLCAnLW9tYWUnLCAnPG91dGZpbGUubWFlPic=

>  <r_epik_Ionization_Penalty>  (407) 
0.507955

>  <r_epik_Ionization_Penalty_Charging>  (407) 
0.507955

>  <r_epik_Ionization_Penalty_Neutral>  (407) 
4.20908e-12

>  <r_epik_State_Penalty>  (407) 
1.86942

>  <r_epik_Charging_Adjusted_Penalty>  (407) 
2.37737

>  <i_epik_Tot_Q>  (407) 
0

>  <i_epik_Tot_abs_Q>  (407) 
2

>  <s_lp_Force_Field>  (407) 
OPLS3e

>  <r_lp_Energy>  (407) 
407.675

>  <b_lp_Chiralities_Consistent>  (407) 
1

>  <s_lp_Variant>  (407) 
115:0-3

>  <s_i_glide_gridfile>  (407) 
pfpi4k_grid

>  <i_i_glide_lignum>  (407) 
36

>  <i_i_glide_rotatable_bonds>  (407) 
7

>  <r_i_docking_score>  (407) 
-2.7394

>  <r_i_glide_ligand_efficiency>  (407) 
-0.0913132

>  <r_i_glide_ligand_efficiency_sa>  (407) 
-0.283731

>  <r_i_glide_ligand_efficiency_ln>  (407) 
-0.622421

>  <r_i_glide_gscore>  (407) 
-2.7394

>  <r_i_glide_lipo>  (407) 
-0.663659

>  <r_i_glide_hbond>  (407) 
-0.226747

>  <r_i_glide_metal>  (407) 
-0

>  <r_i_glide_rewards>  (407) 
-0.620541

>  <r_i_glide_evdw>  (407) 
-19.0083

>  <r_i_glide_ecoul>  (407) 
-5.58845

>  <r_i_glide_erotb>  (407) 
0.586977

>  <r_i_glide_esite>  (407) 
-0.0267437

>  <r_i_glide_emodel>  (407) 
-28.6099

>  <r_i_glide_energy>  (407) 
-24.5968

>  <r_i_glide_einternal>  (407) 
3.46152

>  <r_i_glide_intrahb_reward>  (407) 
-0

>  <i_i_glide_confnum>  (407) 
4

>  <i_i_glide_posenum>  (407) 
3

>  <r_i_glide_eff_state_penalty>  (407) 
0

>  <ligand_id>  (407) 
115

>  <original_smiles>  (407) 
CCCCCCCN1c2c(O)ccc3c2C2(OC)CCC(=O)C45CCC1C(C4C3)C25

>  <smiles>  (407) 
[H]c1c([H])c2c3c(c1[O-])[N+]([H])(C([H])([H])C([H])([H])C([H])([H])C([H])([H])C([H])([H])C([H])([H])C([H])([H])[H])C1([H])C([H])([H])C([H])([H])C45C(=O)C([H])([H])C([H])([H])C3(OC([H])([H])[H])C4([H])C1([H])C5([H])C2([H])[H]

$$$$
115:2:1
     RDKit          3D

 65 70  0  0  1  0  0  0  0  0999 V2000
    4.3136   -3.7446   -3.7964 C   0  0  0  0  0  0  0  0  0  0  0  0
    4.2972   -2.7967   -2.5875 C   0  0  0  0  0  0  0  0  0  0  0  0
    3.7865   -3.4662   -1.3006 C   0  0  0  0  0  0  0  0  0  0  0  0
    3.6174   -2.4774   -0.1296 C   0  0  0  0  0  0  0  0  0  0  0  0
    2.9567   -3.1181    1.1107 C   0  0  0  0  0  0  0  0  0  0  0  0
    2.2330   -2.1168    2.0358 C   0  0  0  0  0  0  0  0  0  0  0  0
    3.1708   -1.2806    2.9192 C   0  0  0  0  0  0  0  0  0  0  0  0
    2.4795   -0.1712    3.6326 N   0  0  2  0  0  0  0  0  0  0  0  0
    3.4595    0.9331    4.2239 C   0  0  0  0  0  0  0  0  0  0  0  0
    4.7379    0.6463    4.7804 C   0  0  0  0  0  0  0  0  0  0  0  0
    5.5587   -0.2999    4.2494 O   0  0  0  0  0  0  0  0  0  0  0  0
    5.2096    1.3316    5.9337 C   0  0  0  0  0  0  0  0  0  0  0  0
    4.3280    2.1071    6.7087 C   0  0  0  0  0  0  0  0  0  0  0  0
    3.0396    2.3992    6.2237 C   0  0  0  0  0  0  0  0  0  0  0  0
    2.8634    2.0966    4.7741 C   0  0  0  0  0  0  0  0  0  0  0  0
    1.5623    2.5952    4.0885 C   0  0  1  0  0  0  0  0  0  0  0  0
    1.5149    4.0335    4.1362 O   0  0  0  0  0  0  0  0  0  0  0  0
    2.4252    4.7068    3.2671 C   0  0  0  0  0  0  0  0  0  0  0  0
    0.6992    2.2423    2.8381 C   0  0  0  0  0  0  0  0  0  0  0  0
   -0.8328    2.6339    3.1404 C   0  0  0  0  0  0  0  0  0  0  0  0
   -1.3225    2.4285    4.6281 C   0  0  0  0  0  0  0  0  0  0  0  0
   -2.1912    3.1537    5.1095 O   0  0  0  0  0  0  0  0  0  0  0  0
   -0.5260    1.3182    5.3106 C   0  0  2  0  0  0  0  0  0  0  0  0
   -1.0946   -0.0287    4.7698 C   0  0  0  0  0  0  0  0  0  0  0  0
   -0.0421   -0.8508    4.0041 C   0  0  0  0  0  0  0  0  0  0  0  0
    1.3678   -0.6233    4.6043 C   0  0  2  0  0  0  0  0  0  0  0  0
    1.3107    0.4307    5.7193 C   0  0  2  0  0  0  0  0  0  0  0  0
    0.4506    1.1940    6.6892 C   0  0  1  0  0  0  0  0  0  0  0  0
    1.7480    2.1758    7.2571 C   0  0  0  0  0  0  0  0  0  0  0  0
    0.8169    1.8484    5.0706 C   0  0  1  0  0  0  0  0  0  0  0  0
    4.6157   -3.2184   -4.7002 H   0  0  0  0  0  0  0  0  0  0  0  0
    3.3246   -4.1655   -3.9817 H   0  0  0  0  0  0  0  0  0  0  0  0
    5.0067   -4.5731   -3.6474 H   0  0  0  0  0  0  0  0  0  0  0  0
    5.2998   -2.4017   -2.4256 H   0  0  0  0  0  0  0  0  0  0  0  0
    3.6618   -1.9435   -2.8274 H   0  0  0  0  0  0  0  0  0  0  0  0
    2.8229   -3.9290   -1.5161 H   0  0  0  0  0  0  0  0  0  0  0  0
    4.4572   -4.2758   -1.0123 H   0  0  0  0  0  0  0  0  0  0  0  0
    4.5834   -2.0571    0.1509 H   0  0  0  0  0  0  0  0  0  0  0  0
    3.0134   -1.6384   -0.4764 H   0  0  0  0  0  0  0  0  0  0  0  0
    2.2105   -3.8354    0.7716 H   0  0  0  0  0  0  0  0  0  0  0  0
    3.6874   -3.7053    1.6723 H   0  0  0  0  0  0  0  0  0  0  0  0
    1.6091   -1.4574    1.4318 H   0  0  0  0  0  0  0  0  0  0  0  0
    1.5617   -2.6828    2.6832 H   0  0  0  0  0  0  0  0  0  0  0  0
    3.6719   -1.9341    3.6334 H   0  0  0  0  0  0  0  0  0  0  0  0
    3.9473   -0.8432    2.2912 H   0  0  0  0  0  0  0  0  0  0  0  0
    6.1886    1.1009    6.3306 H   0  0  0  0  0  0  0  0  0  0  0  0
    4.5851    2.3178    7.7404 H   0  0  0  0  0  0  0  0  0  0  0  0
    2.2599    5.7798    3.3489 H   0  0  0  0  0  0  0  0  0  0  0  0
    2.2998    4.4609    2.2136 H   0  0  0  0  0  0  0  0  0  0  0  0
    3.4600    4.5074    3.5395 H   0  0  0  0  0  0  0  0  0  0  0  0
    1.0508    2.7680    1.9586 H   0  0  0  0  0  0  0  0  0  0  0  0
    0.7313    1.2095    2.5189 H   0  0  0  0  0  0  0  0  0  0  0  0
   -0.9684    3.6932    2.9127 H   0  0  0  0  0  0  0  0  0  0  0  0
   -1.5079    2.0936    2.4744 H   0  0  0  0  0  0  0  0  0  0  0  0
   -1.4371   -0.6144    5.6249 H   0  0  0  0  0  0  0  0  0  0  0  0
   -1.9980    0.0962    4.1648 H   0  0  0  0  0  0  0  0  0  0  0  0
   -0.3135   -1.9044    4.0852 H   0  0  0  0  0  0  0  0  0  0  0  0
   -0.1021   -0.6242    2.9422 H   0  0  0  0  0  0  0  0  0  0  0  0
    1.6873   -1.5737    5.0409 H   0  0  0  0  0  0  0  0  0  0  0  0
    2.1962    0.1917    6.3249 H   0  0  0  0  0  0  0  0  0  0  0  0
   -0.0086    0.5606    7.4468 H   0  0  0  0  0  0  0  0  0  0  0  0
    2.1350    1.7123    8.1629 H   0  0  0  0  0  0  0  0  0  0  0  0
    1.3733    3.1475    7.5869 H   0  0  0  0  0  0  0  0  0  0  0  0
    0.6307    2.8580    5.5458 H   0  0  0  0  0  0  0  0  0  0  0  0
    1.9809    0.2905    2.8854 H   0  0  0  0  0  0  0  0  0  0  0  0
  1  2  1  0
  1 31  1  0
  1 32  1  0
  1 33  1  0
  2  3  1  0
  2 34  1  0
  2 35  1  0
  3  4  1  0
  3 36  1  0
  3 37  1  0
  4  5  1  0
  4 38  1  0
  4 39  1  0
  5  6  1  0
  5 40  1  0
  5 41  1  0
  6  7  1  0
  6 42  1  0
  6 43  1  0
  7  8  1  0
  7 44  1  0
  7 45  1  0
  8 26  1  0
  8  9  1  0
  8 65  1  6
  9 15  2  0
  9 10  1  0
 10 11  1  0
 10 12  2  0
 12 13  1  0
 12 46  1  0
 13 14  2  0
 13 47  1  0
 14 29  1  0
 14 15  1  0
 15 16  1  0
 16 30  1  0
 16 17  1  1
 16 19  1  0
 17 18  1  0
 18 48  1  0
 18 49  1  0
 18 50  1  0
 19 20  1  0
 19 51  1  0
 19 52  1  0
 20 21  1  0
 20 53  1  0
 20 54  1  0
 21 22  2  0
 21 23  1  0
 23 28  1  0
 23 30  1  0
 23 24  1  6
 24 25  1  0
 24 55  1  0
 24 56  1  0
 25 26  1  0
 25 57  1  0
 25 58  1  0
 26 27  1  0
 26 59  1  1
 27 28  1  0
 27 30  1  0
 27 60  1  1
 28 29  1  0
 28 61  1  1
 29 62  1  0
 29 63  1  0
 30 64  1  1
M  CHG  2   8   1  11  -1
M  END
>  <i_m_ct_stereo_status>  (408) 
1

>  <s_m_source_file>  (408) 
/var/tmp/pbs.5076255.sched01/tmpo_pg7vmn/129owyy42_r.sdf

>  <i_m_source_file_index>  (408) 
36

>  <i_lp_mmshare_version>  (408) 
48012

>  <i_f3d_flags>  (408) 
0

>  <s_epik_input>  (408) 
W0NIM11bQ0gyXVtDSDJdW0NIMl1bQ0gyXVtDSDJdW0NIMl1OKFtDQEhdKFtDSDJdW0NIMl0xKVtDQEBIXTJbQ0BASF0zW0NAQF0xNDUpYzZjKFtDQEBdKFtDQEhdMjUpKE9bQ0gzXSlbQ0gyXVtDSDJdQzQ9TyljKFtDSDJdMylbY0hdW2NIXWM2W09IXQ==

>  <s_epik_cmdline>  (408) 
J2VwaWtfcHl0aG9uJywgJy1waHQnLCAnMi4wJywgJy1waCcsICc3LjAnLCAnLXRuJywgJzgnLCAnLW1hJywgJzIwMCcsICctaW1hZScsICc8aW5maWxlLm1hZT4nLCAnLW9tYWUnLCAnPG91dGZpbGUubWFlPic=

>  <r_epik_Ionization_Penalty>  (408) 
0.507955

>  <r_epik_Ionization_Penalty_Charging>  (408) 
0.507955

>  <r_epik_Ionization_Penalty_Neutral>  (408) 
4.20908e-12

>  <r_epik_State_Penalty>  (408) 
1.86942

>  <r_epik_Charging_Adjusted_Penalty>  (408) 
2.37737

>  <i_epik_Tot_Q>  (408) 
0

>  <i_epik_Tot_abs_Q>  (408) 
2

>  <s_lp_Force_Field>  (408) 
OPLS3e

>  <r_lp_Energy>  (408) 
407.675

>  <b_lp_Chiralities_Consistent>  (408) 
1

>  <s_lp_Variant>  (408) 
115:0-3

>  <s_i_glide_gridfile>  (408) 
pfpi4k_grid

>  <i_i_glide_lignum>  (408) 
36

>  <i_i_glide_rotatable_bonds>  (408) 
7

>  <r_i_docking_score>  (408) 
-1.8639

>  <r_i_glide_ligand_efficiency>  (408) 
-0.0621301

>  <r_i_glide_ligand_efficiency_sa>  (408) 
-0.193053

>  <r_i_glide_ligand_efficiency_ln>  (408) 
-0.423499

>  <r_i_glide_gscore>  (408) 
-1.8639

>  <r_i_glide_lipo>  (408) 
-0.105451

>  <r_i_glide_hbond>  (408) 
0

>  <r_i_glide_metal>  (408) 
-0

>  <r_i_glide_rewards>  (408) 
-0.61663

>  <r_i_glide_evdw>  (408) 
-23.4988

>  <r_i_glide_ecoul>  (408) 
-3.57671

>  <r_i_glide_erotb>  (408) 
0.586977

>  <r_i_glide_esite>  (408) 
-0.0173535

>  <r_i_glide_emodel>  (408) 
-30.0155

>  <r_i_glide_energy>  (408) 
-27.0755

>  <r_i_glide_einternal>  (408) 
2.68077

>  <r_i_glide_intrahb_reward>  (408) 
-0

>  <i_i_glide_confnum>  (408) 
6

>  <i_i_glide_posenum>  (408) 
12

>  <r_i_glide_eff_state_penalty>  (408) 
0

>  <ligand_id>  (408) 
115

>  <original_smiles>  (408) 
CCCCCCCN1c2c(O)ccc3c2C2(OC)CCC(=O)C45CCC1C(C4C3)C25

>  <smiles>  (408) 
[H]c1c([H])c2c3c(c1[O-])[N+]([H])(C([H])([H])C([H])([H])C([H])([H])C([H])([H])C([H])([H])C([H])([H])C([H])([H])[H])C1([H])C([H])([H])C([H])([H])C45C(=O)C([H])([H])C([H])([H])C3(OC([H])([H])[H])C4([H])C1([H])C5([H])C2([H])[H]

$$$$
115:2:2
     RDKit          3D

 65 70  0  0  1  0  0  0  0  0999 V2000
    4.3855   -7.9895    0.9333 C   0  0  0  0  0  0  0  0  0  0  0  0
    4.0804   -6.4850    0.9082 C   0  0  0  0  0  0  0  0  0  0  0  0
    3.1217   -6.0439    2.0247 C   0  0  0  0  0  0  0  0  0  0  0  0
    2.8483   -4.5290    2.0102 C   0  0  0  0  0  0  0  0  0  0  0  0
    1.8146   -4.1123    3.0622 C   0  0  0  0  0  0  0  0  0  0  0  0
    1.4365   -2.6223    3.0364 C   0  0  0  0  0  0  0  0  0  0  0  0
    2.5135   -1.6831    3.6118 C   0  0  0  0  0  0  0  0  0  0  0  0
    1.9871   -0.3525    4.0379 N   0  0  2  0  0  0  0  0  0  0  0  0
    3.1184    0.7352    4.3050 C   0  0  0  0  0  0  0  0  0  0  0  0
    4.3944    0.4467    4.8659 C   0  0  0  0  0  0  0  0  0  0  0  0
    5.0770   -0.6967    4.5688 O   0  0  0  0  0  0  0  0  0  0  0  0
    5.0077    1.3268    5.7999 C   0  0  0  0  0  0  0  0  0  0  0  0
    4.2585    2.3583    6.3975 C   0  0  0  0  0  0  0  0  0  0  0  0
    2.9766    2.6698    5.9059 C   0  0  0  0  0  0  0  0  0  0  0  0
    2.6782    2.0594    4.5795 C   0  0  0  0  0  0  0  0  0  0  0  0
    1.3927    2.5291    3.8435 C   0  0  1  0  0  0  0  0  0  0  0  0
    1.4984    3.9356    3.5617 O   0  0  0  0  0  0  0  0  0  0  0  0
    2.4168    4.2780    2.5281 C   0  0  0  0  0  0  0  0  0  0  0  0
    0.4168    1.9964    2.7397 C   0  0  0  0  0  0  0  0  0  0  0  0
   -1.0455    2.6115    3.0067 C   0  0  0  0  0  0  0  0  0  0  0  0
   -1.4494    2.8222    4.5202 C   0  0  0  0  0  0  0  0  0  0  0  0
   -2.1987    3.7349    4.8489 O   0  0  0  0  0  0  0  0  0  0  0  0
   -0.7331    1.8278    5.4237 C   0  0  2  0  0  0  0  0  0  0  0  0
   -1.4751    0.4713    5.2556 C   0  0  0  0  0  0  0  0  0  0  0  0
   -0.5672   -0.6168    4.6737 C   0  0  0  0  0  0  0  0  0  0  0  0
    0.9025   -0.4243    5.1363 C   0  0  2  0  0  0  0  0  0  0  0  0
    1.0278    0.8574    5.9671 C   0  0  2  0  0  0  0  0  0  0  0  0
    0.3110    1.9207    6.7580 C   0  0  1  0  0  0  0  0  0  0  0  0
    1.7390    2.8525    7.0154 C   0  0  0  0  0  0  0  0  0  0  0  0
    0.6393    2.1228    5.0088 C   0  0  1  0  0  0  0  0  0  0  0  0
    5.0083   -8.2729    0.0855 H   0  0  0  0  0  0  0  0  0  0  0  0
    3.4731   -8.5853    0.8805 H   0  0  0  0  0  0  0  0  0  0  0  0
    4.9168   -8.2735    1.8431 H   0  0  0  0  0  0  0  0  0  0  0  0
    5.0159   -5.9309    0.9855 H   0  0  0  0  0  0  0  0  0  0  0  0
    3.6517   -6.2274   -0.0602 H   0  0  0  0  0  0  0  0  0  0  0  0
    2.1821   -6.5879    1.9220 H   0  0  0  0  0  0  0  0  0  0  0  0
    3.5318   -6.3262    2.9948 H   0  0  0  0  0  0  0  0  0  0  0  0
    3.7768   -3.9853    2.1860 H   0  0  0  0  0  0  0  0  0  0  0  0
    2.4897   -4.2299    1.0248 H   0  0  0  0  0  0  0  0  0  0  0  0
    0.8985   -4.6806    2.9005 H   0  0  0  0  0  0  0  0  0  0  0  0
    2.1531   -4.3848    4.0654 H   0  0  0  0  0  0  0  0  0  0  0  0
    1.1681   -2.2794    2.0353 H   0  0  0  0  0  0  0  0  0  0  0  0
    0.5323   -2.5941    3.6301 H   0  0  0  0  0  0  0  0  0  0  0  0
    3.0126   -2.1637    4.4509 H   0  0  0  0  0  0  0  0  0  0  0  0
    3.2735   -1.5179    2.8436 H   0  0  0  0  0  0  0  0  0  0  0  0
    5.9766    1.0874    6.2066 H   0  0  0  0  0  0  0  0  0  0  0  0
    4.5984    2.7750    7.3347 H   0  0  0  0  0  0  0  0  0  0  0  0
    2.3626    5.3482    2.3421 H   0  0  0  0  0  0  0  0  0  0  0  0
    2.2099    3.7897    1.5804 H   0  0  0  0  0  0  0  0  0  0  0  0
    3.4375    4.0333    2.8040 H   0  0  0  0  0  0  0  0  0  0  0  0
    0.7425    2.2588    1.7360 H   0  0  0  0  0  0  0  0  0  0  0  0
    0.3266    0.9204    2.6846 H   0  0  0  0  0  0  0  0  0  0  0  0
   -1.0920    3.5970    2.5383 H   0  0  0  0  0  0  0  0  0  0  0  0
   -1.8145    2.0076    2.5207 H   0  0  0  0  0  0  0  0  0  0  0  0
   -1.8218    0.1496    6.2384 H   0  0  0  0  0  0  0  0  0  0  0  0
   -2.3902    0.5452    4.6626 H   0  0  0  0  0  0  0  0  0  0  0  0
   -0.9449   -1.5811    5.0228 H   0  0  0  0  0  0  0  0  0  0  0  0
   -0.6799   -0.6358    3.5916 H   0  0  0  0  0  0  0  0  0  0  0  0
    1.1498   -1.2744    5.7766 H   0  0  0  0  0  0  0  0  0  0  0  0
    1.9222    0.6653    6.5737 H   0  0  0  0  0  0  0  0  0  0  0  0
   -0.1600    1.5417    7.6638 H   0  0  0  0  0  0  0  0  0  0  0  0
    2.1340    2.5758    7.9913 H   0  0  0  0  0  0  0  0  0  0  0  0
    1.4870    3.9102    7.1132 H   0  0  0  0  0  0  0  0  0  0  0  0
    0.5907    3.2304    5.2321 H   0  0  0  0  0  0  0  0  0  0  0  0
    1.4959   -0.0276    3.2207 H   0  0  0  0  0  0  0  0  0  0  0  0
  1  2  1  0
  1 31  1  0
  1 32  1  0
  1 33  1  0
  2  3  1  0
  2 34  1  0
  2 35  1  0
  3  4  1  0
  3 36  1  0
  3 37  1  0
  4  5  1  0
  4 38  1  0
  4 39  1  0
  5  6  1  0
  5 40  1  0
  5 41  1  0
  6  7  1  0
  6 42  1  0
  6 43  1  0
  7  8  1  0
  7 44  1  0
  7 45  1  0
  8 26  1  0
  8  9  1  0
  8 65  1  6
  9 15  2  0
  9 10  1  0
 10 11  1  0
 10 12  2  0
 12 13  1  0
 12 46  1  0
 13 14  2  0
 13 47  1  0
 14 29  1  0
 14 15  1  0
 15 16  1  0
 16 30  1  0
 16 17  1  6
 16 19  1  0
 17 18  1  0
 18 48  1  0
 18 49  1  0
 18 50  1  0
 19 20  1  0
 19 51  1  0
 19 52  1  0
 20 21  1  0
 20 53  1  0
 20 54  1  0
 21 22  2  0
 21 23  1  0
 23 28  1  0
 23 30  1  0
 23 24  1  6
 24 25  1  0
 24 55  1  0
 24 56  1  0
 25 26  1  0
 25 57  1  0
 25 58  1  0
 26 27  1  0
 26 59  1  1
 27 28  1  0
 27 30  1  0
 27 60  1  1
 28 29  1  0
 28 61  1  1
 29 62  1  0
 29 63  1  0
 30 64  1  1
M  CHG  2   8   1  11  -1
M  END
>  <i_m_ct_stereo_status>  (409) 
1

>  <s_m_source_file>  (409) 
/var/tmp/pbs.5076255.sched01/tmpo_pg7vmn/129owyy42_r.sdf

>  <i_m_source_file_index>  (409) 
36

>  <i_lp_mmshare_version>  (409) 
48012

>  <i_f3d_flags>  (409) 
0

>  <s_epik_input>  (409) 
W0NIM11bQ0gyXVtDSDJdW0NIMl1bQ0gyXVtDSDJdW0NIMl1OKFtDQEhdKFtDSDJdW0NIMl0xKVtDQEBIXTJbQ0BASF0zW0NAQF0xNDUpYzZjKFtDQEBdKFtDQEhdMjUpKE9bQ0gzXSlbQ0gyXVtDSDJdQzQ9TyljKFtDSDJdMylbY0hdW2NIXWM2W09IXQ==

>  <s_epik_cmdline>  (409) 
J2VwaWtfcHl0aG9uJywgJy1waHQnLCAnMi4wJywgJy1waCcsICc3LjAnLCAnLXRuJywgJzgnLCAnLW1hJywgJzIwMCcsICctaW1hZScsICc8aW5maWxlLm1hZT4nLCAnLW9tYWUnLCAnPG91dGZpbGUubWFlPic=

>  <r_epik_Ionization_Penalty>  (409) 
0.507955

>  <r_epik_Ionization_Penalty_Charging>  (409) 
0.507955

>  <r_epik_Ionization_Penalty_Neutral>  (409) 
4.20908e-12

>  <r_epik_State_Penalty>  (409) 
1.86942

>  <r_epik_Charging_Adjusted_Penalty>  (409) 
2.37737

>  <i_epik_Tot_Q>  (409) 
0

>  <i_epik_Tot_abs_Q>  (409) 
2

>  <s_lp_Force_Field>  (409) 
OPLS3e

>  <r_lp_Energy>  (409) 
407.675

>  <b_lp_Chiralities_Consistent>  (409) 
1

>  <s_lp_Variant>  (409) 
115:0-3

>  <s_i_glide_gridfile>  (409) 
pfpi4k_grid

>  <i_i_glide_lignum>  (409) 
36

>  <i_i_glide_rotatable_bonds>  (409) 
7

>  <r_i_docking_score>  (409) 
-1.86229

>  <r_i_glide_ligand_efficiency>  (409) 
-0.0620764

>  <r_i_glide_ligand_efficiency_sa>  (409) 
-0.192886

>  <r_i_glide_ligand_efficiency_ln>  (409) 
-0.423133

>  <r_i_glide_gscore>  (409) 
-1.86229

>  <r_i_glide_lipo>  (409) 
-0.193619

>  <r_i_glide_hbond>  (409) 
0

>  <r_i_glide_metal>  (409) 
-0

>  <r_i_glide_rewards>  (409) 
-0.61663

>  <r_i_glide_evdw>  (409) 
-21.8816

>  <r_i_glide_ecoul>  (409) 
-3.47979

>  <r_i_glide_erotb>  (409) 
0.586977

>  <r_i_glide_esite>  (409) 
-0.0229725

>  <r_i_glide_emodel>  (409) 
-28.4575

>  <r_i_glide_energy>  (409) 
-25.3614

>  <r_i_glide_einternal>  (409) 
2.29406

>  <r_i_glide_intrahb_reward>  (409) 
-0

>  <i_i_glide_confnum>  (409) 
6

>  <i_i_glide_posenum>  (409) 
17

>  <r_i_glide_eff_state_penalty>  (409) 
0

>  <ligand_id>  (409) 
115

>  <original_smiles>  (409) 
CCCCCCCN1c2c(O)ccc3c2C2(OC)CCC(=O)C45CCC1C(C4C3)C25

>  <smiles>  (409) 
[H]c1c([H])c2c3c(c1[O-])[N+]([H])(C([H])([H])C([H])([H])C([H])([H])C([H])([H])C([H])([H])C([H])([H])C([H])([H])[H])C1([H])C([H])([H])C([H])([H])C45C(=O)C([H])([H])C([H])([H])C3(OC([H])([H])[H])C4([H])C1([H])C5([H])C2([H])[H]

$$$$
116:0:0
     RDKit          3D

 31 34  0  0  1  0  0  0  0  0999 V2000
    7.9384   -3.2868    0.4560 C   0  0  0  0  0  0  0  0  0  0  0  0
    6.6092   -3.5304   -0.2942 C   0  0  0  0  0  0  0  0  0  0  0  0
    5.3328   -2.9253    0.3476 C   0  0  1  0  0  0  0  0  0  0  0  0
    5.5067   -1.4010    0.4542 C   0  0  0  0  0  0  0  0  0  0  0  0
    6.0674   -0.9236    1.4342 O   0  0  0  0  0  0  0  0  0  0  0  0
    5.0875   -0.6596   -0.5670 N   0  0  0  0  0  0  0  0  0  0  0  0
    4.3937   -1.1387   -1.6915 C   0  0  0  0  0  0  0  0  0  0  0  0
    4.2150   -0.3242   -2.7495 N   0  0  0  0  0  0  0  0  0  0  0  0
    3.5140   -0.7832   -3.8036 C   0  0  0  0  0  0  0  0  0  0  0  0
    2.9667   -2.0751   -3.8518 C   0  0  0  0  0  0  0  0  0  0  0  0
    3.1328   -2.9217   -2.7429 C   0  0  0  0  0  0  0  0  0  0  0  0
    3.8921   -2.4621   -1.6447 C   0  0  0  0  0  0  0  0  0  0  0  0
    4.1827   -3.2522   -0.5016 N   0  0  0  0  0  0  0  0  0  0  0  0
    3.3155   -4.0680    0.1314 C   0  0  0  0  0  0  0  0  0  0  0  0
    2.2616   -4.5121   -0.3285 O   0  0  0  0  0  0  0  0  0  0  0  0
    3.7802   -4.3477    1.5040 C   0  0  2  0  0  0  0  0  0  0  0  0
    3.7495   -3.2048    2.4803 C   0  0  0  0  0  0  0  0  0  0  0  0
    5.0098   -3.5266    1.7007 C   0  0  2  0  0  0  0  0  0  0  0  0
    8.7787   -3.7009   -0.1008 H   0  0  0  0  0  0  0  0  0  0  0  0
    7.9243   -3.7537    1.4400 H   0  0  0  0  0  0  0  0  0  0  0  0
    8.1675   -2.2281    0.5942 H   0  0  0  0  0  0  0  0  0  0  0  0
    6.7189   -3.1106   -1.2962 H   0  0  0  0  0  0  0  0  0  0  0  0
    6.4551   -4.6029   -0.4363 H   0  0  0  0  0  0  0  0  0  0  0  0
    5.2925    0.3344   -0.5673 H   0  0  0  0  0  0  0  0  0  0  0  0
    3.4000   -0.0920   -4.6276 H   0  0  0  0  0  0  0  0  0  0  0  0
    2.4195   -2.4171   -4.7038 H   0  0  0  0  0  0  0  0  0  0  0  0
    2.6865   -3.8942   -2.7604 H   0  0  0  0  0  0  0  0  0  0  0  0
    3.8037   -5.3716    1.8768 H   0  0  0  0  0  0  0  0  0  0  0  0
    3.2018   -2.3146    2.1593 H   0  0  0  0  0  0  0  0  0  0  0  0
    3.7315   -3.4445    3.5458 H   0  0  0  0  0  0  0  0  0  0  0  0
    5.8202   -3.9751    2.2638 H   0  0  0  0  0  0  0  0  0  0  0  0
  1  2  1  0
  1 19  1  0
  1 20  1  0
  1 21  1  0
  3  2  1  6
  2 22  1  0
  2 23  1  0
  3 13  1  0
  3 18  1  0
  3  4  1  0
  4  5  2  0
  4  6  1  0
  6  7  1  0
  6 24  1  0
  7 12  2  0
  7  8  1  0
  8  9  2  0
  9 10  1  0
  9 25  1  0
 10 11  2  0
 10 26  1  0
 11 12  1  0
 11 27  1  0
 12 13  1  0
 13 14  1  0
 14 15  2  0
 14 16  1  0
 16 18  1  0
 16 17  1  0
 16 28  1  1
 17 18  1  0
 17 29  1  0
 17 30  1  0
 18 31  1  1
M  END
>  <i_m_ct_stereo_status>  (410) 
1

>  <s_m_source_file>  (410) 
/var/tmp/pbs.5076255.sched01/tmpo_pg7vmn/129owyy42_r.sdf

>  <i_m_source_file_index>  (410) 
37

>  <i_lp_mmshare_version>  (410) 
48012

>  <i_f3d_flags>  (410) 
0

>  <s_epik_input>  (410) 
W0NIMl0xW0NASF0yW0NAQEhdMUMoPU8pTihbQ0BdMjNbQ0gyXVtDSDNdKWM0YyhbTkhdQzM9TyluW2NIXVtjSF1bY0hdNA==

>  <s_epik_cmdline>  (410) 
J2VwaWtfcHl0aG9uJywgJy1waHQnLCAnMi4wJywgJy1waCcsICc3LjAnLCAnLXRuJywgJzgnLCAnLW1hJywgJzIwMCcsICctaW1hZScsICc8aW5maWxlLm1hZT4nLCAnLW9tYWUnLCAnPG91dGZpbGUubWFlPic=

>  <r_lp_tautomer_probability>  (410) 
1

>  <r_epik_Ionization_Penalty>  (410) 
0.000426181

>  <r_epik_Ionization_Penalty_Charging>  (410) 
0

>  <r_epik_Ionization_Penalty_Neutral>  (410) 
0.000426181

>  <r_epik_State_Penalty>  (410) 
-0

>  <r_epik_Charging_Adjusted_Penalty>  (410) 
0

>  <i_epik_Tot_Q>  (410) 
0

>  <i_epik_Tot_abs_Q>  (410) 
0

>  <s_lp_Force_Field>  (410) 
OPLS3e

>  <r_lp_Energy>  (410) 
49.4279

>  <b_lp_Chiralities_Consistent>  (410) 
1

>  <s_lp_Variant>  (410) 
116:0-1

>  <s_i_glide_gridfile>  (410) 
pfpi4k_grid

>  <i_i_glide_lignum>  (410) 
37

>  <i_i_glide_rotatable_bonds>  (410) 
1

>  <r_i_docking_score>  (410) 
-4.65738

>  <r_i_glide_ligand_efficiency>  (410) 
-0.258743

>  <r_i_glide_ligand_efficiency_sa>  (410) 
-0.6781

>  <r_i_glide_ligand_efficiency_ln>  (410) 
-1.19716

>  <r_i_glide_gscore>  (410) 
-4.65738

>  <r_i_glide_lipo>  (410) 
-0.773275

>  <r_i_glide_hbond>  (410) 
-0.32

>  <r_i_glide_metal>  (410) 
-0

>  <r_i_glide_rewards>  (410) 
-1.91327

>  <r_i_glide_evdw>  (410) 
-22.9537

>  <r_i_glide_ecoul>  (410) 
-3.0233

>  <r_i_glide_erotb>  (410) 
0

>  <r_i_glide_esite>  (410) 
-0.0496502

>  <r_i_glide_emodel>  (410) 
-33.4814

>  <r_i_glide_energy>  (410) 
-25.977

>  <r_i_glide_einternal>  (410) 
0.0178403

>  <r_i_glide_intrahb_reward>  (410) 
-0

>  <i_i_glide_confnum>  (410) 
1

>  <i_i_glide_posenum>  (410) 
7

>  <r_i_glide_eff_state_penalty>  (410) 
0

>  <ligand_id>  (410) 
116

>  <original_smiles>  (410) 
CCC12C(=O)Nc3ncccc3N1C(=O)C1CC12

>  <smiles>  (410) 
[H]c1nc2c(c([H])c1[H])N1C(=O)C3([H])C([H])([H])C3([H])C1(C([H])([H])C([H])([H])[H])C(=O)N2[H]

$$$$
116:0:1
     RDKit          3D

 31 34  0  0  1  0  0  0  0  0999 V2000
    6.9446   -3.0932   -1.7405 C   0  0  0  0  0  0  0  0  0  0  0  0
    6.6249   -3.5268   -0.2820 C   0  0  0  0  0  0  0  0  0  0  0  0
    5.3277   -2.9202    0.3339 C   0  0  1  0  0  0  0  0  0  0  0  0
    5.5147   -1.4104    0.4614 C   0  0  0  0  0  0  0  0  0  0  0  0
    6.1346   -0.9483    1.4093 O   0  0  0  0  0  0  0  0  0  0  0  0
    5.0594   -0.6596   -0.5495 N   0  0  0  0  0  0  0  0  0  0  0  0
    4.3433   -1.1357   -1.6693 C   0  0  0  0  0  0  0  0  0  0  0  0
    4.2062   -0.3411   -2.7518 N   0  0  0  0  0  0  0  0  0  0  0  0
    3.5207   -0.8078   -3.8056 C   0  0  0  0  0  0  0  0  0  0  0  0
    2.9762   -2.0990   -3.8464 C   0  0  0  0  0  0  0  0  0  0  0  0
    3.1182   -2.9370   -2.7339 C   0  0  0  0  0  0  0  0  0  0  0  0
    3.8364   -2.4551   -1.6299 C   0  0  0  0  0  0  0  0  0  0  0  0
    4.1597   -3.2536   -0.4972 N   0  0  0  0  0  0  0  0  0  0  0  0
    3.3082   -4.0759    0.1486 C   0  0  0  0  0  0  0  0  0  0  0  0
    2.2679   -4.5349   -0.3088 O   0  0  0  0  0  0  0  0  0  0  0  0
    3.7993   -4.3516    1.5166 C   0  0  2  0  0  0  0  0  0  0  0  0
    3.7662   -3.1958    2.4820 C   0  0  0  0  0  0  0  0  0  0  0  0
    5.0283   -3.5182    1.6945 C   0  0  2  0  0  0  0  0  0  0  0  0
    7.8660   -3.5449   -2.1071 H   0  0  0  0  0  0  0  0  0  0  0  0
    7.0726   -2.0148   -1.8347 H   0  0  0  0  0  0  0  0  0  0  0  0
    6.1567   -3.3887   -2.4343 H   0  0  0  0  0  0  0  0  0  0  0  0
    6.5717   -4.6192   -0.2431 H   0  0  0  0  0  0  0  0  0  0  0  0
    7.4785   -3.2438    0.3412 H   0  0  0  0  0  0  0  0  0  0  0  0
    5.2762    0.3281   -0.5573 H   0  0  0  0  0  0  0  0  0  0  0  0
    3.4090   -0.1296   -4.6368 H   0  0  0  0  0  0  0  0  0  0  0  0
    2.4445   -2.4604   -4.7126 H   0  0  0  0  0  0  0  0  0  0  0  0
    2.7066   -3.9205   -2.7500 H   0  0  0  0  0  0  0  0  0  0  0  0
    3.8287   -5.3704    1.9021 H   0  0  0  0  0  0  0  0  0  0  0  0
    3.2010   -2.3121    2.1680 H   0  0  0  0  0  0  0  0  0  0  0  0
    3.7394   -3.4323    3.5542 H   0  0  0  0  0  0  0  0  0  0  0  0
    5.8605   -3.9428    2.2583 H   0  0  0  0  0  0  0  0  0  0  0  0
  1  2  1  0
  1 19  1  0
  1 20  1  0
  1 21  1  0
  3  2  1  6
  2 22  1  0
  2 23  1  0
  3 13  1  0
  3 18  1  0
  3  4  1  0
  4  5  2  0
  4  6  1  0
  6  7  1  0
  6 24  1  0
  7 12  2  0
  7  8  1  0
  8  9  2  0
  9 10  1  0
  9 25  1  0
 10 11  2  0
 10 26  1  0
 11 12  1  0
 11 27  1  0
 12 13  1  0
 13 14  1  0
 14 15  2  0
 14 16  1  0
 16 18  1  0
 16 17  1  0
 16 28  1  1
 17 18  1  0
 17 29  1  0
 17 30  1  0
 18 31  1  1
M  END
>  <i_m_ct_stereo_status>  (411) 
1

>  <s_m_source_file>  (411) 
/var/tmp/pbs.5076255.sched01/tmpo_pg7vmn/129owyy42_r.sdf

>  <i_m_source_file_index>  (411) 
37

>  <i_lp_mmshare_version>  (411) 
48012

>  <i_f3d_flags>  (411) 
0

>  <s_epik_input>  (411) 
W0NIMl0xW0NASF0yW0NAQEhdMUMoPU8pTihbQ0BdMjNbQ0gyXVtDSDNdKWM0YyhbTkhdQzM9TyluW2NIXVtjSF1bY0hdNA==

>  <s_epik_cmdline>  (411) 
J2VwaWtfcHl0aG9uJywgJy1waHQnLCAnMi4wJywgJy1waCcsICc3LjAnLCAnLXRuJywgJzgnLCAnLW1hJywgJzIwMCcsICctaW1hZScsICc8aW5maWxlLm1hZT4nLCAnLW9tYWUnLCAnPG91dGZpbGUubWFlPic=

>  <r_lp_tautomer_probability>  (411) 
1

>  <r_epik_Ionization_Penalty>  (411) 
0.000426181

>  <r_epik_Ionization_Penalty_Charging>  (411) 
0

>  <r_epik_Ionization_Penalty_Neutral>  (411) 
0.000426181

>  <r_epik_State_Penalty>  (411) 
-0

>  <r_epik_Charging_Adjusted_Penalty>  (411) 
0

>  <i_epik_Tot_Q>  (411) 
0

>  <i_epik_Tot_abs_Q>  (411) 
0

>  <s_lp_Force_Field>  (411) 
OPLS3e

>  <r_lp_Energy>  (411) 
49.4279

>  <b_lp_Chiralities_Consistent>  (411) 
1

>  <s_lp_Variant>  (411) 
116:0-1

>  <s_i_glide_gridfile>  (411) 
pfpi4k_grid

>  <i_i_glide_lignum>  (411) 
37

>  <i_i_glide_rotatable_bonds>  (411) 
1

>  <r_i_docking_score>  (411) 
-4.44987

>  <r_i_glide_ligand_efficiency>  (411) 
-0.247215

>  <r_i_glide_ligand_efficiency_sa>  (411) 
-0.647886

>  <r_i_glide_ligand_efficiency_ln>  (411) 
-1.14382

>  <r_i_glide_gscore>  (411) 
-4.44987

>  <r_i_glide_lipo>  (411) 
-0.572823

>  <r_i_glide_hbond>  (411) 
-0.32

>  <r_i_glide_metal>  (411) 
-0

>  <r_i_glide_rewards>  (411) 
-1.91367

>  <r_i_glide_evdw>  (411) 
-23.5791

>  <r_i_glide_ecoul>  (411) 
-2.77679

>  <r_i_glide_erotb>  (411) 
0

>  <r_i_glide_esite>  (411) 
-0.0479025

>  <r_i_glide_emodel>  (411) 
-32.7078

>  <r_i_glide_energy>  (411) 
-26.3559

>  <r_i_glide_einternal>  (411) 
1.1144

>  <r_i_glide_intrahb_reward>  (411) 
-0

>  <i_i_glide_confnum>  (411) 
2

>  <i_i_glide_posenum>  (411) 
32

>  <r_i_glide_eff_state_penalty>  (411) 
0

>  <ligand_id>  (411) 
116

>  <original_smiles>  (411) 
CCC12C(=O)Nc3ncccc3N1C(=O)C1CC12

>  <smiles>  (411) 
[H]c1nc2c(c([H])c1[H])N1C(=O)C3([H])C([H])([H])C3([H])C1(C([H])([H])C([H])([H])[H])C(=O)N2[H]

$$$$
116:0:2
     RDKit          3D

 31 34  0  0  1  0  0  0  0  0999 V2000
    6.5241   -4.9725    0.3668 C   0  0  0  0  0  0  0  0  0  0  0  0
    6.3733   -3.4475    0.3012 C   0  0  0  0  0  0  0  0  0  0  0  0
    4.9906   -2.8803    0.7155 C   0  0  1  0  0  0  0  0  0  0  0  0
    5.1437   -1.3517    0.7859 C   0  0  0  0  0  0  0  0  0  0  0  0
    5.6060   -0.8145    1.7879 O   0  0  0  0  0  0  0  0  0  0  0  0
    4.8318   -0.6565   -0.3151 N   0  0  0  0  0  0  0  0  0  0  0  0
    4.3005   -1.1992   -1.5007 C   0  0  0  0  0  0  0  0  0  0  0  0
    4.2549   -0.4395   -2.6198 N   0  0  0  0  0  0  0  0  0  0  0  0
    3.7202   -0.9601   -3.7384 C   0  0  0  0  0  0  0  0  0  0  0  0
    3.2125   -2.2660   -3.8090 C   0  0  0  0  0  0  0  0  0  0  0  0
    3.2423   -3.0565   -2.6455 C   0  0  0  0  0  0  0  0  0  0  0  0
    3.8249   -2.5303   -1.4752 C   0  0  0  0  0  0  0  0  0  0  0  0
    3.9716   -3.2720   -0.2640 N   0  0  0  0  0  0  0  0  0  0  0  0
    3.0567   -4.1092    0.2694 C   0  0  0  0  0  0  0  0  0  0  0  0
    2.1229   -4.6422   -0.3232 O   0  0  0  0  0  0  0  0  0  0  0  0
    3.3359   -4.3095    1.7190 C   0  0  2  0  0  0  0  0  0  0  0  0
    3.1361   -3.1208    2.6182 C   0  0  0  0  0  0  0  0  0  0  0  0
    4.5053   -3.4331    2.0404 C   0  0  2  0  0  0  0  0  0  0  0  0
    7.5380   -5.2590    0.0774 H   0  0  0  0  0  0  0  0  0  0  0  0
    5.8234   -5.4723   -0.3043 H   0  0  0  0  0  0  0  0  0  0  0  0
    6.3626   -5.3509    1.3782 H   0  0  0  0  0  0  0  0  0  0  0  0
    7.1623   -3.0031    0.9088 H   0  0  0  0  0  0  0  0  0  0  0  0
    6.5827   -3.1315   -0.7221 H   0  0  0  0  0  0  0  0  0  0  0  0
    5.0076    0.3405   -0.3242 H   0  0  0  0  0  0  0  0  0  0  0  0
    3.7148   -0.3140   -4.5994 H   0  0  0  0  0  0  0  0  0  0  0  0
    2.7988   -2.6611   -4.7170 H   0  0  0  0  0  0  0  0  0  0  0  0
    2.8387   -4.0475   -2.6633 H   0  0  0  0  0  0  0  0  0  0  0  0
    3.3354   -5.3154    2.1319 H   0  0  0  0  0  0  0  0  0  0  0  0
    2.6091   -2.2612    2.1997 H   0  0  0  0  0  0  0  0  0  0  0  0
    2.9690   -3.3115    3.6779 H   0  0  0  0  0  0  0  0  0  0  0  0
    5.2559   -3.8038    2.7349 H   0  0  0  0  0  0  0  0  0  0  0  0
  1  2  1  0
  1 19  1  0
  1 20  1  0
  1 21  1  0
  3  2  1  6
  2 22  1  0
  2 23  1  0
  3 13  1  0
  3 18  1  0
  3  4  1  0
  4  5  2  0
  4  6  1  0
  6  7  1  0
  6 24  1  0
  7 12  2  0
  7  8  1  0
  8  9  2  0
  9 10  1  0
  9 25  1  0
 10 11  2  0
 10 26  1  0
 11 12  1  0
 11 27  1  0
 12 13  1  0
 13 14  1  0
 14 15  2  0
 14 16  1  0
 16 18  1  0
 16 17  1  0
 16 28  1  1
 17 18  1  0
 17 29  1  0
 17 30  1  0
 18 31  1  1
M  END
>  <i_m_ct_stereo_status>  (412) 
1

>  <s_m_source_file>  (412) 
/var/tmp/pbs.5076255.sched01/tmpo_pg7vmn/129owyy42_r.sdf

>  <i_m_source_file_index>  (412) 
37

>  <i_lp_mmshare_version>  (412) 
48012

>  <i_f3d_flags>  (412) 
0

>  <s_epik_input>  (412) 
W0NIMl0xW0NASF0yW0NAQEhdMUMoPU8pTihbQ0BdMjNbQ0gyXVtDSDNdKWM0YyhbTkhdQzM9TyluW2NIXVtjSF1bY0hdNA==

>  <s_epik_cmdline>  (412) 
J2VwaWtfcHl0aG9uJywgJy1waHQnLCAnMi4wJywgJy1waCcsICc3LjAnLCAnLXRuJywgJzgnLCAnLW1hJywgJzIwMCcsICctaW1hZScsICc8aW5maWxlLm1hZT4nLCAnLW9tYWUnLCAnPG91dGZpbGUubWFlPic=

>  <r_lp_tautomer_probability>  (412) 
1

>  <r_epik_Ionization_Penalty>  (412) 
0.000426181

>  <r_epik_Ionization_Penalty_Charging>  (412) 
0

>  <r_epik_Ionization_Penalty_Neutral>  (412) 
0.000426181

>  <r_epik_State_Penalty>  (412) 
-0

>  <r_epik_Charging_Adjusted_Penalty>  (412) 
0

>  <i_epik_Tot_Q>  (412) 
0

>  <i_epik_Tot_abs_Q>  (412) 
0

>  <s_lp_Force_Field>  (412) 
OPLS3e

>  <r_lp_Energy>  (412) 
49.4279

>  <b_lp_Chiralities_Consistent>  (412) 
1

>  <s_lp_Variant>  (412) 
116:0-1

>  <s_i_glide_gridfile>  (412) 
pfpi4k_grid

>  <i_i_glide_lignum>  (412) 
37

>  <i_i_glide_rotatable_bonds>  (412) 
1

>  <r_i_docking_score>  (412) 
-4.40991

>  <r_i_glide_ligand_efficiency>  (412) 
-0.244995

>  <r_i_glide_ligand_efficiency_sa>  (412) 
-0.642069

>  <r_i_glide_ligand_efficiency_ln>  (412) 
-1.13355

>  <r_i_glide_gscore>  (412) 
-4.40991

>  <r_i_glide_lipo>  (412) 
-0.630157

>  <r_i_glide_hbond>  (412) 
-0.322605

>  <r_i_glide_metal>  (412) 
-0

>  <r_i_glide_rewards>  (412) 
-1.8971

>  <r_i_glide_evdw>  (412) 
-21.9089

>  <r_i_glide_ecoul>  (412) 
-2.88162

>  <r_i_glide_erotb>  (412) 
0

>  <r_i_glide_esite>  (412) 
-0.032364

>  <r_i_glide_emodel>  (412) 
-30.4973

>  <r_i_glide_energy>  (412) 
-24.7905

>  <r_i_glide_einternal>  (412) 
2.69909

>  <r_i_glide_intrahb_reward>  (412) 
-0

>  <i_i_glide_confnum>  (412) 
2

>  <i_i_glide_posenum>  (412) 
39

>  <r_i_glide_eff_state_penalty>  (412) 
0

>  <ligand_id>  (412) 
116

>  <original_smiles>  (412) 
CCC12C(=O)Nc3ncccc3N1C(=O)C1CC12

>  <smiles>  (412) 
[H]c1nc2c(c([H])c1[H])N1C(=O)C3([H])C([H])([H])C3([H])C1(C([H])([H])C([H])([H])[H])C(=O)N2[H]

$$$$
117:0:0
     RDKit          3D

 87 91  0  0  1  0  0  0  0  0999 V2000
   -0.8626    0.2573    3.5571 C   0  0  0  0  0  0  0  0  0  0  0  0
    0.5552    0.3982    2.9797 C   0  0  0  0  0  0  0  0  0  0  0  0
    0.6755    1.6986    2.1721 C   0  0  0  0  0  0  0  0  0  0  0  0
    0.9630   -0.8223    2.1331 C   0  0  0  0  0  0  0  0  0  0  0  0
    2.3970   -0.7474    1.5683 C   0  0  0  0  0  0  0  0  0  0  0  0
    2.7941   -2.1098    0.9300 C   0  0  0  0  0  0  0  0  0  0  0  0
    4.3571   -2.2760    0.8127 C   0  0  2  0  0  0  0  0  0  0  0  0
    4.8530   -1.4459   -0.3873 C   0  0  0  0  0  0  0  0  0  0  0  0
    4.7988   -3.7768    0.7257 C   0  0  2  0  0  0  0  0  0  0  0  0
    4.0365   -4.5932   -0.3262 C   0  0  0  0  0  0  0  0  0  0  0  0
    4.2026   -6.0589    0.0621 C   0  0  0  0  0  0  0  0  0  0  0  0
    4.9272   -6.1121    1.4245 C   0  0  2  0  0  0  0  0  0  0  0  0
    4.4818   -7.2397    2.4072 C   0  0  2  0  0  0  0  0  0  0  0  0
    4.6814   -8.6504    1.8130 C   0  0  0  0  0  0  0  0  0  0  0  0
    3.8259   -9.8163    2.3780 C   0  0  1  0  0  0  0  0  0  0  0  0
    4.6590  -10.9103    2.4958 O   0  0  0  0  0  0  0  0  0  0  0  0
    2.8742   -9.4640    3.6084 C   0  0  2  0  0  0  0  0  0  0  0  0
    3.7681   -9.4121    4.8989 C   0  0  1  0  0  0  0  0  0  0  0  0
    3.1965   -8.6730    5.9701 O   0  0  0  0  0  0  0  0  0  0  0  0
    3.9507  -10.8800    5.3508 C   0  0  1  0  0  0  0  0  0  0  0  0
    4.1028  -11.0611    6.7519 O   0  0  0  0  0  0  0  0  0  0  0  0
    2.7647  -11.6663    4.7667 C   0  0  0  0  0  0  0  0  0  0  0  0
    1.9159  -10.6677    3.9336 C   0  0  1  0  0  0  0  0  0  0  0  0
    0.5980  -10.3002    4.6815 C   0  0  1  0  0  0  0  0  0  0  0  0
    0.8303  -10.1317    6.0774 O   0  0  0  0  0  0  0  0  0  0  0  0
   -0.0743   -9.0315    4.1218 C   0  0  1  0  0  0  0  0  0  0  0  0
   -1.2012   -8.6478    4.8701 O   0  0  0  0  0  0  0  0  0  0  0  0
    0.8945   -7.8511    4.0586 C   0  0  0  0  0  0  0  0  0  0  0  0
    2.1106   -8.1448    3.1447 C   0  0  2  0  0  0  0  0  0  0  0  0
    1.5042   -8.2652    1.7178 C   0  0  0  0  0  0  0  0  0  0  0  0
    3.1221   -6.9608    3.1393 C   0  0  2  0  0  0  0  0  0  0  0  0
    2.5770   -5.5527    2.8310 C   0  0  0  0  0  0  0  0  0  0  0  0
    3.7204   -4.5198    3.0777 C   0  0  0  0  0  0  0  0  0  0  0  0
    4.8696   -4.6807    2.0154 C   0  0  2  0  0  0  0  0  0  0  0  0
    6.1652   -4.4238    2.7757 C   0  0  0  0  0  0  0  0  0  0  0  0
   -1.6077    0.1951    2.7649 H   0  0  0  0  0  0  0  0  0  0  0  0
   -1.1296    1.1333    4.1438 H   0  0  0  0  0  0  0  0  0  0  0  0
   -0.9509   -0.6199    4.2017 H   0  0  0  0  0  0  0  0  0  0  0  0
    1.2445    0.4473    3.8232 H   0  0  0  0  0  0  0  0  0  0  0  0
    0.0130    1.6895    1.3045 H   0  0  0  0  0  0  0  0  0  0  0  0
    1.6904    1.8608    1.8130 H   0  0  0  0  0  0  0  0  0  0  0  0
    0.4249    2.5603    2.7861 H   0  0  0  0  0  0  0  0  0  0  0  0
    0.8427   -1.7191    2.7446 H   0  0  0  0  0  0  0  0  0  0  0  0
    0.2742   -0.9302    1.2985 H   0  0  0  0  0  0  0  0  0  0  0  0
    2.4604    0.0217    0.8097 H   0  0  0  0  0  0  0  0  0  0  0  0
    3.0799   -0.4651    2.3710 H   0  0  0  0  0  0  0  0  0  0  0  0
    2.3255   -2.9101    1.4855 H   0  0  0  0  0  0  0  0  0  0  0  0
    2.3551   -2.1545   -0.0766 H   0  0  0  0  0  0  0  0  0  0  0  0
    4.8687   -1.8645    1.6829 H   0  0  0  0  0  0  0  0  0  0  0  0
    5.9420   -1.3891   -0.4728 H   0  0  0  0  0  0  0  0  0  0  0  0
    4.4809   -0.4125   -0.3392 H   0  0  0  0  0  0  0  0  0  0  0  0
    4.4784   -1.8411   -1.3367 H   0  0  0  0  0  0  0  0  0  0  0  0
    5.8256   -3.7506    0.3367 H   0  0  0  0  0  0  0  0  0  0  0  0
    2.9705   -4.3989   -0.2846 H   0  0  0  0  0  0  0  0  0  0  0  0
    4.3563   -4.3764   -1.3506 H   0  0  0  0  0  0  0  0  0  0  0  0
    3.2113   -6.5016    0.1124 H   0  0  0  0  0  0  0  0  0  0  0  0
    4.7512   -6.5997   -0.7126 H   0  0  0  0  0  0  0  0  0  0  0  0
    5.9645   -6.3132    1.1555 H   0  0  0  0  0  0  0  0  0  0  0  0
    5.2212   -7.1847    3.2123 H   0  0  0  0  0  0  0  0  0  0  0  0
    4.5673   -8.6494    0.7247 H   0  0  0  0  0  0  0  0  0  0  0  0
    5.7303   -8.9154    1.9566 H   0  0  0  0  0  0  0  0  0  0  0  0
    3.1764  -10.1417    1.5765 H   0  0  0  0  0  0  0  0  0  0  0  0
    4.5648  -11.4753    1.7175 H   0  0  0  0  0  0  0  0  0  0  0  0
    4.7341   -8.9549    4.7027 H   0  0  0  0  0  0  0  0  0  0  0  0
    2.4121   -9.1349    6.2322 H   0  0  0  0  0  0  0  0  0  0  0  0
    4.8734  -11.2674    4.9236 H   0  0  0  0  0  0  0  0  0  0  0  0
    3.3057  -11.4134    7.1087 H   0  0  0  0  0  0  0  0  0  0  0  0
    3.1419  -12.4571    4.1234 H   0  0  0  0  0  0  0  0  0  0  0  0
    2.2017  -12.1912    5.5340 H   0  0  0  0  0  0  0  0  0  0  0  0
    1.6162  -11.1521    3.0011 H   0  0  0  0  0  0  0  0  0  0  0  0
   -0.0821  -11.1452    4.5533 H   0  0  0  0  0  0  0  0  0  0  0  0
    0.9609  -10.9868    6.4696 H   0  0  0  0  0  0  0  0  0  0  0  0
   -0.4820   -9.2688    3.1420 H   0  0  0  0  0  0  0  0  0  0  0  0
   -1.7263   -9.4125    5.0246 H   0  0  0  0  0  0  0  0  0  0  0  0
    0.3343   -6.9830    3.6932 H   0  0  0  0  0  0  0  0  0  0  0  0
    1.2032   -7.5839    5.0685 H   0  0  0  0  0  0  0  0  0  0  0  0
    0.7858   -7.4746    1.4987 H   0  0  0  0  0  0  0  0  0  0  0  0
    0.9961   -9.2178    1.6236 H   0  0  0  0  0  0  0  0  0  0  0  0
    2.2384   -8.2364    0.9185 H   0  0  0  0  0  0  0  0  0  0  0  0
    3.3935   -6.8585    4.1889 H   0  0  0  0  0  0  0  0  0  0  0  0
    2.1169   -5.4963    1.8406 H   0  0  0  0  0  0  0  0  0  0  0  0
    1.7885   -5.3142    3.5335 H   0  0  0  0  0  0  0  0  0  0  0  0
    3.3755   -3.5036    3.1759 H   0  0  0  0  0  0  0  0  0  0  0  0
    4.1352   -4.7565    4.0749 H   0  0  0  0  0  0  0  0  0  0  0  0
    6.3108   -5.1671    3.5650 H   0  0  0  0  0  0  0  0  0  0  0  0
    6.0914   -3.4451    3.2496 H   0  0  0  0  0  0  0  0  0  0  0  0
    7.0488   -4.4556    2.1358 H   0  0  0  0  0  0  0  0  0  0  0  0
  1  2  1  0
  1 36  1  0
  1 37  1  0
  1 38  1  0
  2  3  1  0
  2  4  1  0
  2 39  1  0
  3 40  1  0
  3 41  1  0
  3 42  1  0
  4  5  1  0
  4 43  1  0
  4 44  1  0
  5  6  1  0
  5 45  1  0
  5 46  1  0
  6  7  1  0
  6 47  1  0
  6 48  1  0
  7  8  1  0
  7  9  1  0
  7 49  1  1
  8 50  1  0
  8 51  1  0
  8 52  1  0
  9 34  1  0
  9 10  1  0
  9 53  1  6
 10 11  1  0
 10 54  1  0
 10 55  1  0
 11 12  1  0
 11 56  1  0
 11 57  1  0
 12 34  1  0
 12 13  1  0
 12 58  1  6
 13 31  1  0
 13 14  1  0
 13 59  1  1
 14 15  1  0
 14 60  1  0
 14 61  1  0
 15 16  1  0
 15 17  1  0
 15 62  1  6
 16 63  1  0
 17 23  1  0
 17 29  1  6
 17 18  1  0
 18 19  1  0
 18 20  1  0
 18 64  1  6
 19 65  1  0
 20 21  1  0
 20 22  1  0
 20 66  1  6
 21 67  1  0
 22 23  1  0
 22 68  1  0
 22 69  1  0
 23 24  1  0
 23 70  1  6
 24 25  1  0
 24 26  1  0
 24 71  1  1
 25 72  1  0
 26 27  1  0
 26 28  1  0
 26 73  1  6
 27 74  1  0
 28 29  1  0
 28 75  1  0
 28 76  1  0
 29 30  1  6
 29 31  1  0
 30 77  1  0
 30 78  1  0
 30 79  1  0
 31 32  1  0
 31 80  1  1
 32 33  1  0
 32 81  1  0
 32 82  1  0
 33 34  1  0
 33 83  1  0
 33 84  1  0
 34 35  1  1
 35 85  1  0
 35 86  1  0
 35 87  1  0
M  END
>  <i_m_ct_stereo_status>  (413) 
1

>  <s_m_source_file>  (413) 
/var/tmp/pbs.5076255.sched01/tmpo_pg7vmn/129owyy42_r.sdf

>  <i_m_source_file_index>  (413) 
38

>  <i_lp_mmshare_version>  (413) 
48012

>  <i_f3d_flags>  (413) 
0

>  <s_epik_input>  (413) 
W0NIM11bQ0hdKFtDSDNdKVtDSDJdW0NIMl1bQ0gyXVtDQEhdKFtDSDNdKVtDQEhdKFtDSDJdW0NIMl0xKVtDQEBdKFtDSDNdKShbQ0gyXVtDSDJdMilbQ0BIXTFbQ0BIXShbQ0gyXVtDQEhdM1tPSF0pW0NAQEhdMltDQF00KFtDSDNdKVtDSDJdW0NASF0oW09IXSlbQ0BIXShbT0hdKVtDQEBIXShbQ0BAXTM0NSlbQ0gyXVtDQEhdKFtPSF0pW0NAQEhdNVtPSF0=

>  <s_epik_cmdline>  (413) 
J2VwaWtfcHl0aG9uJywgJy1waHQnLCAnMi4wJywgJy1waCcsICc3LjAnLCAnLXRuJywgJzgnLCAnLW1hJywgJzIwMCcsICctaW1hZScsICc8aW5maWxlLm1hZT4nLCAnLW9tYWUnLCAnPG91dGZpbGUubWFlPic=

>  <r_lp_tautomer_probability>  (413) 
1

>  <r_epik_Ionization_Penalty>  (413) 
1.97772e-06

>  <r_epik_Ionization_Penalty_Charging>  (413) 
0

>  <r_epik_Ionization_Penalty_Neutral>  (413) 
1.97772e-06

>  <r_epik_State_Penalty>  (413) 
-0

>  <r_epik_Charging_Adjusted_Penalty>  (413) 
0

>  <i_epik_Tot_Q>  (413) 
0

>  <i_epik_Tot_abs_Q>  (413) 
0

>  <s_lp_Force_Field>  (413) 
OPLS3e

>  <r_lp_Energy>  (413) 
83.487

>  <b_lp_Chiralities_Consistent>  (413) 
1

>  <s_lp_Variant>  (413) 
117:0-1

>  <s_i_glide_gridfile>  (413) 
pfpi4k_grid

>  <i_i_glide_lignum>  (413) 
38

>  <i_i_glide_rotatable_bonds>  (413) 
10

>  <r_i_docking_score>  (413) 
-3.59312

>  <r_i_glide_ligand_efficiency>  (413) 
-0.102661

>  <r_i_glide_ligand_efficiency_sa>  (413) 
-0.335809

>  <r_i_glide_ligand_efficiency_ln>  (413) 
-0.788769

>  <r_i_glide_gscore>  (413) 
-3.59312

>  <r_i_glide_lipo>  (413) 
-0.164382

>  <r_i_glide_hbond>  (413) 
-0.140333

>  <r_i_glide_metal>  (413) 
-0

>  <r_i_glide_rewards>  (413) 
-0.549562

>  <r_i_glide_evdw>  (413) 
-18.5566

>  <r_i_glide_ecoul>  (413) 
-14.3104

>  <r_i_glide_erotb>  (413) 
0.335551

>  <r_i_glide_esite>  (413) 
0

>  <r_i_glide_emodel>  (413) 
-40.8369

>  <r_i_glide_energy>  (413) 
-32.867

>  <r_i_glide_einternal>  (413) 
10.832

>  <r_i_glide_intrahb_reward>  (413) 
-0.5

>  <i_i_glide_confnum>  (413) 
5

>  <i_i_glide_posenum>  (413) 
19

>  <r_i_glide_eff_state_penalty>  (413) 
0

>  <ligand_id>  (413) 
117

>  <original_smiles>  (413) 
CC(C)CCCC(C)C1CCC2C3CC(O)C45C(O)C(O)CC4C(O)C(O)CC5(C)C3CCC12C

>  <smiles>  (413) 
[H]OC1([H])C([H])([H])C2(C([H])([H])[H])C3([H])C([H])([H])C([H])([H])C4(C([H])([H])[H])C([H])(C([H])(C([H])([H])[H])C([H])([H])C([H])([H])C([H])([H])C([H])(C([H])([H])[H])C([H])([H])[H])C([H])([H])C([H])([H])C4([H])C3([H])C([H])([H])C([H])(O[H])C23C([H])(O[H])C([H])(O[H])C([H])([H])C3([H])C1([H])O[H]

$$$$
117:0:1
     RDKit          3D

 87 91  0  0  1  0  0  0  0  0999 V2000
   -0.0295    3.0947    4.0196 C   0  0  0  0  0  0  0  0  0  0  0  0
   -0.8932    1.9406    3.4970 C   0  0  0  0  0  0  0  0  0  0  0  0
   -1.5909    1.1966    4.6481 C   0  0  0  0  0  0  0  0  0  0  0  0
   -0.1095    0.9879    2.5849 C   0  0  0  0  0  0  0  0  0  0  0  0
    1.0617    0.2582    3.2652 C   0  0  0  0  0  0  0  0  0  0  0  0
    1.6824   -0.7866    2.3252 C   0  0  0  0  0  0  0  0  0  0  0  0
    3.2272   -0.8638    2.3916 C   0  0  2  0  0  0  0  0  0  0  0  0
    3.8247    0.3320    1.6397 C   0  0  0  0  0  0  0  0  0  0  0  0
    3.7936   -2.2127    1.8518 C   0  0  2  0  0  0  0  0  0  0  0  0
    3.0708   -2.7798    0.6119 C   0  0  0  0  0  0  0  0  0  0  0  0
    3.4063   -4.2653    0.5649 C   0  0  0  0  0  0  0  0  0  0  0  0
    4.1823   -4.6092    1.8538 C   0  0  2  0  0  0  0  0  0  0  0  0
    3.8746   -6.0006    2.4838 C   0  0  2  0  0  0  0  0  0  0  0  0
    4.1845   -7.1709    1.5114 C   0  0  0  0  0  0  0  0  0  0  0  0
    3.4451   -8.5221    1.7203 C   0  0  1  0  0  0  0  0  0  0  0  0
    4.4241   -9.5242    1.4971 O   0  0  0  0  0  0  0  0  0  0  0  0
    2.5645   -8.6350    3.0203 C   0  0  2  0  0  0  0  0  0  0  0  0
    3.5022   -8.8549    4.2621 C   0  0  1  0  0  0  0  0  0  0  0  0
    2.9147   -8.5247    5.5004 O   0  0  0  0  0  0  0  0  0  0  0  0
    3.8334  -10.3744    4.2678 C   0  0  1  0  0  0  0  0  0  0  0  0
    4.0917  -10.9360    5.5484 O   0  0  0  0  0  0  0  0  0  0  0  0
    2.7073  -11.0861    3.5025 C   0  0  0  0  0  0  0  0  0  0  0  0
    1.7423   -9.9792    3.0191 C   0  0  1  0  0  0  0  0  0  0  0  0
    0.4407   -9.9677    3.8759 C   0  0  1  0  0  0  0  0  0  0  0  0
    0.6907  -10.1551    5.2628 O   0  0  0  0  0  0  0  0  0  0  0  0
   -0.3828   -8.6830    3.7020 C   0  0  1  0  0  0  0  0  0  0  0  0
   -1.4954   -8.6408    4.5778 O   0  0  0  0  0  0  0  0  0  0  0  0
    0.4601   -7.4281    3.9609 C   0  0  0  0  0  0  0  0  0  0  0  0
    1.6458   -7.3202    2.9640 C   0  0  2  0  0  0  0  0  0  0  0  0
    0.9714   -7.0911    1.5813 C   0  0  0  0  0  0  0  0  0  0  0  0
    2.5459   -6.0862    3.3038 C   0  0  2  0  0  0  0  0  0  0  0  0
    1.8491   -4.7139    3.4202 C   0  0  0  0  0  0  0  0  0  0  0  0
    2.8578   -3.6391    3.8522 C   0  0  0  0  0  0  0  0  0  0  0  0
    4.0101   -3.4108    2.8320 C   0  0  2  0  0  0  0  0  0  0  0  0
    5.3136   -3.2219    3.6324 C   0  0  0  0  0  0  0  0  0  0  0  0
    0.8105    2.7407    4.6164 H   0  0  0  0  0  0  0  0  0  0  0  0
   -0.6153    3.7641    4.6477 H   0  0  0  0  0  0  0  0  0  0  0  0
    0.3701    3.6762    3.1893 H   0  0  0  0  0  0  0  0  0  0  0  0
   -1.6760    2.3784    2.8798 H   0  0  0  0  0  0  0  0  0  0  0  0
   -0.8816    0.7432    5.3413 H   0  0  0  0  0  0  0  0  0  0  0  0
   -2.2254    0.3977    4.2622 H   0  0  0  0  0  0  0  0  0  0  0  0
   -2.2186    1.8780    5.2247 H   0  0  0  0  0  0  0  0  0  0  0  0
   -0.7978    0.2545    2.1708 H   0  0  0  0  0  0  0  0  0  0  0  0
    0.2622    1.5456    1.7244 H   0  0  0  0  0  0  0  0  0  0  0  0
    1.8072    0.9772    3.6089 H   0  0  0  0  0  0  0  0  0  0  0  0
    0.7288   -0.2663    4.1585 H   0  0  0  0  0  0  0  0  0  0  0  0
    1.2072   -1.7445    2.5573 H   0  0  0  0  0  0  0  0  0  0  0  0
    1.4152   -0.5363    1.2968 H   0  0  0  0  0  0  0  0  0  0  0  0
    3.5518   -0.7710    3.4309 H   0  0  0  0  0  0  0  0  0  0  0  0
    4.8995    0.3951    1.7763 H   0  0  0  0  0  0  0  0  0  0  0  0
    3.4211    1.2738    1.9942 H   0  0  0  0  0  0  0  0  0  0  0  0
    3.6221    0.2719    0.5724 H   0  0  0  0  0  0  0  0  0  0  0  0
    4.7945   -1.9711    1.4978 H   0  0  0  0  0  0  0  0  0  0  0  0
    1.9875   -2.7030    0.7021 H   0  0  0  0  0  0  0  0  0  0  0  0
    3.3423   -2.2383   -0.3022 H   0  0  0  0  0  0  0  0  0  0  0  0
    2.4691   -4.8013    0.5010 H   0  0  0  0  0  0  0  0  0  0  0  0
    3.9778   -4.5228   -0.3271 H   0  0  0  0  0  0  0  0  0  0  0  0
    5.2260   -4.6168    1.5493 H   0  0  0  0  0  0  0  0  0  0  0  0
    4.6441   -6.1152    3.2560 H   0  0  0  0  0  0  0  0  0  0  0  0
    4.0175   -6.8543    0.4753 H   0  0  0  0  0  0  0  0  0  0  0  0
    5.2537   -7.3429    1.5684 H   0  0  0  0  0  0  0  0  0  0  0  0
    2.7704   -8.6733    0.8804 H   0  0  0  0  0  0  0  0  0  0  0  0
    4.0109  -10.3452    1.2315 H   0  0  0  0  0  0  0  0  0  0  0  0
    4.4130   -8.2655    4.1810 H   0  0  0  0  0  0  0  0  0  0  0  0
    2.2112   -9.1498    5.6635 H   0  0  0  0  0  0  0  0  0  0  0  0
    4.7633  -10.5268    3.7190 H   0  0  0  0  0  0  0  0  0  0  0  0
    3.2987  -11.3413    5.8782 H   0  0  0  0  0  0  0  0  0  0  0  0
    3.1169  -11.6186    2.6500 H   0  0  0  0  0  0  0  0  0  0  0  0
    2.2088  -11.8508    4.1038 H   0  0  0  0  0  0  0  0  0  0  0  0
    1.4196  -10.1994    1.9968 H   0  0  0  0  0  0  0  0  0  0  0  0
   -0.1738  -10.8109    3.5609 H   0  0  0  0  0  0  0  0  0  0  0  0
    0.7358  -11.0800    5.4373 H   0  0  0  0  0  0  0  0  0  0  0  0
   -0.8116   -8.6741    2.6984 H   0  0  0  0  0  0  0  0  0  0  0  0
   -1.7276   -9.5482    4.7891 H   0  0  0  0  0  0  0  0  0  0  0  0
   -0.1962   -6.5585    3.8750 H   0  0  0  0  0  0  0  0  0  0  0  0
    0.7881   -7.4138    5.0004 H   0  0  0  0  0  0  0  0  0  0  0  0
    0.1867   -6.3438    1.6324 H   0  0  0  0  0  0  0  0  0  0  0  0
    0.5301   -8.0048    1.1948 H   0  0  0  0  0  0  0  0  0  0  0  0
    1.6625   -6.7578    0.8230 H   0  0  0  0  0  0  0  0  0  0  0  0
    2.8545   -6.2489    4.3405 H   0  0  0  0  0  0  0  0  0  0  0  0
    1.3624   -4.4202    2.4867 H   0  0  0  0  0  0  0  0  0  0  0  0
    1.0629   -4.7559    4.1682 H   0  0  0  0  0  0  0  0  0  0  0  0
    2.3495   -2.7141    4.1097 H   0  0  0  0  0  0  0  0  0  0  0  0
    3.2942   -3.9964    4.7999 H   0  0  0  0  0  0  0  0  0  0  0  0
    5.5699   -4.1389    4.1657 H   0  0  0  0  0  0  0  0  0  0  0  0
    5.2218   -2.4300    4.3735 H   0  0  0  0  0  0  0  0  0  0  0  0
    6.1480   -2.9829    2.9755 H   0  0  0  0  0  0  0  0  0  0  0  0
  1  2  1  0
  1 36  1  0
  1 37  1  0
  1 38  1  0
  2  3  1  0
  2  4  1  0
  2 39  1  0
  3 40  1  0
  3 41  1  0
  3 42  1  0
  4  5  1  0
  4 43  1  0
  4 44  1  0
  5  6  1  0
  5 45  1  0
  5 46  1  0
  6  7  1  0
  6 47  1  0
  6 48  1  0
  7  8  1  0
  7  9  1  0
  7 49  1  1
  8 50  1  0
  8 51  1  0
  8 52  1  0
  9 34  1  0
  9 10  1  0
  9 53  1  6
 10 11  1  0
 10 54  1  0
 10 55  1  0
 11 12  1  0
 11 56  1  0
 11 57  1  0
 12 34  1  0
 12 13  1  0
 12 58  1  6
 13 31  1  0
 13 14  1  0
 13 59  1  1
 14 15  1  0
 14 60  1  0
 14 61  1  0
 15 16  1  0
 15 17  1  0
 15 62  1  6
 16 63  1  0
 17 23  1  0
 17 29  1  1
 17 18  1  0
 18 19  1  0
 18 20  1  0
 18 64  1  6
 19 65  1  0
 20 21  1  0
 20 22  1  0
 20 66  1  6
 21 67  1  0
 22 23  1  0
 22 68  1  0
 22 69  1  0
 23 24  1  0
 23 70  1  6
 24 25  1  0
 24 26  1  0
 24 71  1  6
 25 72  1  0
 26 27  1  0
 26 28  1  0
 26 73  1  6
 27 74  1  0
 28 29  1  0
 28 75  1  0
 28 76  1  0
 29 30  1  6
 29 31  1  0
 30 77  1  0
 30 78  1  0
 30 79  1  0
 31 32  1  0
 31 80  1  1
 32 33  1  0
 32 81  1  0
 32 82  1  0
 33 34  1  0
 33 83  1  0
 33 84  1  0
 34 35  1  1
 35 85  1  0
 35 86  1  0
 35 87  1  0
M  END
>  <i_m_ct_stereo_status>  (414) 
1

>  <s_m_source_file>  (414) 
/var/tmp/pbs.5076255.sched01/tmpo_pg7vmn/129owyy42_r.sdf

>  <i_m_source_file_index>  (414) 
38

>  <i_lp_mmshare_version>  (414) 
48012

>  <i_f3d_flags>  (414) 
0

>  <s_epik_input>  (414) 
W0NIM11bQ0hdKFtDSDNdKVtDSDJdW0NIMl1bQ0gyXVtDQEhdKFtDSDNdKVtDQEhdKFtDSDJdW0NIMl0xKVtDQEBdKFtDSDNdKShbQ0gyXVtDSDJdMilbQ0BIXTFbQ0BIXShbQ0gyXVtDQEhdM1tPSF0pW0NAQEhdMltDQF00KFtDSDNdKVtDSDJdW0NASF0oW09IXSlbQ0BIXShbT0hdKVtDQEBIXShbQ0BAXTM0NSlbQ0gyXVtDQEhdKFtPSF0pW0NAQEhdNVtPSF0=

>  <s_epik_cmdline>  (414) 
J2VwaWtfcHl0aG9uJywgJy1waHQnLCAnMi4wJywgJy1waCcsICc3LjAnLCAnLXRuJywgJzgnLCAnLW1hJywgJzIwMCcsICctaW1hZScsICc8aW5maWxlLm1hZT4nLCAnLW9tYWUnLCAnPG91dGZpbGUubWFlPic=

>  <r_lp_tautomer_probability>  (414) 
1

>  <r_epik_Ionization_Penalty>  (414) 
1.97772e-06

>  <r_epik_Ionization_Penalty_Charging>  (414) 
0

>  <r_epik_Ionization_Penalty_Neutral>  (414) 
1.97772e-06

>  <r_epik_State_Penalty>  (414) 
-0

>  <r_epik_Charging_Adjusted_Penalty>  (414) 
0

>  <i_epik_Tot_Q>  (414) 
0

>  <i_epik_Tot_abs_Q>  (414) 
0

>  <s_lp_Force_Field>  (414) 
OPLS3e

>  <r_lp_Energy>  (414) 
83.487

>  <b_lp_Chiralities_Consistent>  (414) 
1

>  <s_lp_Variant>  (414) 
117:0-1

>  <s_i_glide_gridfile>  (414) 
pfpi4k_grid

>  <i_i_glide_lignum>  (414) 
38

>  <i_i_glide_rotatable_bonds>  (414) 
10

>  <r_i_docking_score>  (414) 
-3.31234

>  <r_i_glide_ligand_efficiency>  (414) 
-0.0946382

>  <r_i_glide_ligand_efficiency_sa>  (414) 
-0.309568

>  <r_i_glide_ligand_efficiency_ln>  (414) 
-0.727132

>  <r_i_glide_gscore>  (414) 
-3.31234

>  <r_i_glide_lipo>  (414) 
-0.212141

>  <r_i_glide_hbond>  (414) 
-0.152

>  <r_i_glide_metal>  (414) 
-0

>  <r_i_glide_rewards>  (414) 
-0.549562

>  <r_i_glide_evdw>  (414) 
-24.9229

>  <r_i_glide_ecoul>  (414) 
-9.92028

>  <r_i_glide_erotb>  (414) 
0.335551

>  <r_i_glide_esite>  (414) 
0

>  <r_i_glide_emodel>  (414) 
-41.4777

>  <r_i_glide_energy>  (414) 
-34.8432

>  <r_i_glide_einternal>  (414) 
12.3287

>  <r_i_glide_intrahb_reward>  (414) 
-0.5

>  <i_i_glide_confnum>  (414) 
5

>  <i_i_glide_posenum>  (414) 
30

>  <r_i_glide_eff_state_penalty>  (414) 
0

>  <ligand_id>  (414) 
117

>  <original_smiles>  (414) 
CC(C)CCCC(C)C1CCC2C3CC(O)C45C(O)C(O)CC4C(O)C(O)CC5(C)C3CCC12C

>  <smiles>  (414) 
[H]OC1([H])C([H])([H])C2(C([H])([H])[H])C3([H])C([H])([H])C([H])([H])C4(C([H])([H])[H])C([H])(C([H])(C([H])([H])[H])C([H])([H])C([H])([H])C([H])([H])C([H])(C([H])([H])[H])C([H])([H])[H])C([H])([H])C([H])([H])C4([H])C3([H])C([H])([H])C([H])(O[H])C23C([H])(O[H])C([H])(O[H])C([H])([H])C3([H])C1([H])O[H]

$$$$
117:0:2
     RDKit          3D

 87 91  0  0  1  0  0  0  0  0999 V2000
    4.6024   -3.6919   -4.0642 C   0  0  0  0  0  0  0  0  0  0  0  0
    3.5801   -2.5416   -3.8578 C   0  0  0  0  0  0  0  0  0  0  0  0
    4.1392   -1.1583   -4.2130 C   0  0  0  0  0  0  0  0  0  0  0  0
    2.9942   -2.5090   -2.4380 C   0  0  0  0  0  0  0  0  0  0  0  0
    4.0366   -2.3807   -1.3120 C   0  0  0  0  0  0  0  0  0  0  0  0
    3.3782   -2.5363    0.0683 C   0  0  0  0  0  0  0  0  0  0  0  0
    4.3334   -2.8048    1.2591 C   0  0  2  0  0  0  0  0  0  0  0  0
    5.0575   -4.1639    1.0997 C   0  0  0  0  0  0  0  0  0  0  0  0
    3.5998   -2.7350    2.6406 C   0  0  2  0  0  0  0  0  0  0  0  0
    2.1431   -3.2308    2.6423 C   0  0  0  0  0  0  0  0  0  0  0  0
    1.4881   -2.6756    3.9114 C   0  0  0  0  0  0  0  0  0  0  0  0
    2.4883   -1.6768    4.5361 C   0  0  2  0  0  0  0  0  0  0  0  0
    1.8566   -0.3836    5.1456 C   0  0  2  0  0  0  0  0  0  0  0  0
    0.8299   -0.7049    6.2742 C   0  0  0  0  0  0  0  0  0  0  0  0
   -0.2716    0.3480    6.5821 C   0  0  1  0  0  0  0  0  0  0  0  0
   -0.4595    0.3864    7.9920 O   0  0  0  0  0  0  0  0  0  0  0  0
   -0.1361    1.7243    5.8408 C   0  0  2  0  0  0  0  0  0  0  0  0
    1.0062    2.5596    6.5109 C   0  0  1  0  0  0  0  0  0  0  0  0
    1.5316    3.5791    5.6783 O   0  0  0  0  0  0  0  0  0  0  0  0
    0.3711    3.2306    7.7551 C   0  0  1  0  0  0  0  0  0  0  0  0
    0.9551    4.4877    8.0449 O   0  0  0  0  0  0  0  0  0  0  0  0
   -1.1396    3.3042    7.4938 C   0  0  0  0  0  0  0  0  0  0  0  0
   -1.3772    2.6405    6.1139 C   0  0  1  0  0  0  0  0  0  0  0  0
   -1.7008    3.7199    5.0471 C   0  0  1  0  0  0  0  0  0  0  0  0
   -0.8911    4.8786    5.1743 O   0  0  0  0  0  0  0  0  0  0  0  0
   -1.5756    3.2230    3.6051 C   0  0  1  0  0  0  0  0  0  0  0  0
   -1.8101    4.3095    2.7404 O   0  0  0  0  0  0  0  0  0  0  0  0
   -0.2053    2.5596    3.3625 C   0  0  0  0  0  0  0  0  0  0  0  0
    0.0334    1.3356    4.2923 C   0  0  2  0  0  0  0  0  0  0  0  0
   -1.0242    0.2853    3.8365 C   0  0  0  0  0  0  0  0  0  0  0  0
    1.4635    0.7189    4.1080 C   0  0  2  0  0  0  0  0  0  0  0  0
    1.8811    0.3443    2.6654 C   0  0  0  0  0  0  0  0  0  0  0  0
    3.3422   -0.1240    2.6478 C   0  0  0  0  0  0  0  0  0  0  0  0
    3.6040   -1.4153    3.4723 C   0  0  2  0  0  0  0  0  0  0  0  0
    4.9497   -1.2323    4.2077 C   0  0  0  0  0  0  0  0  0  0  0  0
    5.4908   -3.5939   -3.4365 H   0  0  0  0  0  0  0  0  0  0  0  0
    4.9573   -3.8017   -5.0874 H   0  0  0  0  0  0  0  0  0  0  0  0
    4.1419   -4.6475   -3.8265 H   0  0  0  0  0  0  0  0  0  0  0  0
    2.7381   -2.7378   -4.5257 H   0  0  0  0  0  0  0  0  0  0  0  0
    4.9669   -0.8880   -3.5609 H   0  0  0  0  0  0  0  0  0  0  0  0
    3.3733   -0.3896   -4.1029 H   0  0  0  0  0  0  0  0  0  0  0  0
    4.4918   -1.1161   -5.2350 H   0  0  0  0  0  0  0  0  0  0  0  0
    2.2472   -1.7171   -2.3585 H   0  0  0  0  0  0  0  0  0  0  0  0
    2.4288   -3.4243   -2.2986 H   0  0  0  0  0  0  0  0  0  0  0  0
    4.7820   -3.1567   -1.4414 H   0  0  0  0  0  0  0  0  0  0  0  0
    4.5736   -1.4339   -1.3946 H   0  0  0  0  0  0  0  0  0  0  0  0
    2.7556   -1.6533    0.2383 H   0  0  0  0  0  0  0  0  0  0  0  0
    2.6777   -3.3751    0.0486 H   0  0  0  0  0  0  0  0  0  0  0  0
    5.1199   -2.0575    1.2635 H   0  0  0  0  0  0  0  0  0  0  0  0
    5.7861   -4.3237    1.8948 H   0  0  0  0  0  0  0  0  0  0  0  0
    5.5929   -4.2624    0.1545 H   0  0  0  0  0  0  0  0  0  0  0  0
    4.3556   -4.9923    1.1558 H   0  0  0  0  0  0  0  0  0  0  0  0
    4.1415   -3.4267    3.2772 H   0  0  0  0  0  0  0  0  0  0  0  0
    1.6275   -2.8400    1.7668 H   0  0  0  0  0  0  0  0  0  0  0  0
    2.0743   -4.3153    2.5968 H   0  0  0  0  0  0  0  0  0  0  0  0
    0.5760   -2.1829    3.6040 H   0  0  0  0  0  0  0  0  0  0  0  0
    1.1831   -3.4371    4.6393 H   0  0  0  0  0  0  0  0  0  0  0  0
    2.9549   -2.2229    5.3608 H   0  0  0  0  0  0  0  0  0  0  0  0
    2.6791    0.0819    5.6894 H   0  0  0  0  0  0  0  0  0  0  0  0
    0.3419   -1.6580    6.0683 H   0  0  0  0  0  0  0  0  0  0  0  0
    1.4172   -0.8886    7.1705 H   0  0  0  0  0  0  0  0  0  0  0  0
   -1.2243   -0.0818    6.2763 H   0  0  0  0  0  0  0  0  0  0  0  0
    0.3124    0.7298    8.4011 H   0  0  0  0  0  0  0  0  0  0  0  0
    1.8615    1.9466    6.7945 H   0  0  0  0  0  0  0  0  0  0  0  0
    2.1636    4.0560    6.1797 H   0  0  0  0  0  0  0  0  0  0  0  0
    0.5146    2.6206    8.6464 H   0  0  0  0  0  0  0  0  0  0  0  0
    1.7717    4.3287    8.4840 H   0  0  0  0  0  0  0  0  0  0  0  0
   -1.6793    2.7448    8.2600 H   0  0  0  0  0  0  0  0  0  0  0  0
   -1.5221    4.3251    7.5485 H   0  0  0  0  0  0  0  0  0  0  0  0
   -2.2672    2.0137    6.1764 H   0  0  0  0  0  0  0  0  0  0  0  0
   -2.7337    4.0321    5.1964 H   0  0  0  0  0  0  0  0  0  0  0  0
    0.0164    4.5965    5.0958 H   0  0  0  0  0  0  0  0  0  0  0  0
   -2.3663    2.5054    3.3922 H   0  0  0  0  0  0  0  0  0  0  0  0
   -1.1759    4.2449    2.0212 H   0  0  0  0  0  0  0  0  0  0  0  0
   -0.1537    2.2448    2.3190 H   0  0  0  0  0  0  0  0  0  0  0  0
    0.5957    3.2929    3.4410 H   0  0  0  0  0  0  0  0  0  0  0  0
   -1.0421    0.2005    2.7491 H   0  0  0  0  0  0  0  0  0  0  0  0
   -2.0268    0.5477    4.1709 H   0  0  0  0  0  0  0  0  0  0  0  0
   -0.8378   -0.7107    4.2176 H   0  0  0  0  0  0  0  0  0  0  0  0
    2.1387    1.5599    4.2913 H   0  0  0  0  0  0  0  0  0  0  0  0
    1.2376   -0.4159    2.2369 H   0  0  0  0  0  0  0  0  0  0  0  0
    1.7957    1.2133    2.0177 H   0  0  0  0  0  0  0  0  0  0  0  0
    3.6778   -0.2360    1.6152 H   0  0  0  0  0  0  0  0  0  0  0  0
    3.9361    0.6948    3.0716 H   0  0  0  0  0  0  0  0  0  0  0  0
    4.8881   -0.4095    4.9246 H   0  0  0  0  0  0  0  0  0  0  0  0
    5.7475   -0.9971    3.5041 H   0  0  0  0  0  0  0  0  0  0  0  0
    5.2422   -2.1218    4.7688 H   0  0  0  0  0  0  0  0  0  0  0  0
  1  2  1  0
  1 36  1  0
  1 37  1  0
  1 38  1  0
  2  3  1  0
  2  4  1  0
  2 39  1  0
  3 40  1  0
  3 41  1  0
  3 42  1  0
  4  5  1  0
  4 43  1  0
  4 44  1  0
  5  6  1  0
  5 45  1  0
  5 46  1  0
  6  7  1  0
  6 47  1  0
  6 48  1  0
  7  8  1  0
  7  9  1  0
  7 49  1  1
  8 50  1  0
  8 51  1  0
  8 52  1  0
  9 34  1  0
  9 10  1  0
  9 53  1  1
 10 11  1  0
 10 54  1  0
 10 55  1  0
 11 12  1  0
 11 56  1  0
 11 57  1  0
 12 34  1  0
 12 13  1  0
 12 58  1  1
 13 31  1  0
 13 14  1  0
 13 59  1  1
 14 15  1  0
 14 60  1  0
 14 61  1  0
 15 16  1  0
 15 17  1  0
 15 62  1  6
 16 63  1  0
 17 23  1  0
 17 29  1  6
 17 18  1  0
 18 19  1  0
 18 20  1  0
 18 64  1  1
 19 65  1  0
 20 21  1  0
 20 22  1  0
 20 66  1  1
 21 67  1  0
 22 23  1  0
 22 68  1  0
 22 69  1  0
 23 24  1  0
 23 70  1  1
 24 25  1  0
 24 26  1  0
 24 71  1  1
 25 72  1  0
 26 27  1  0
 26 28  1  0
 26 73  1  6
 27 74  1  0
 28 29  1  0
 28 75  1  0
 28 76  1  0
 29 30  1  6
 29 31  1  0
 30 77  1  0
 30 78  1  0
 30 79  1  0
 31 32  1  0
 31 80  1  1
 32 33  1  0
 32 81  1  0
 32 82  1  0
 33 34  1  0
 33 83  1  0
 33 84  1  0
 34 35  1  1
 35 85  1  0
 35 86  1  0
 35 87  1  0
M  END
>  <i_m_ct_stereo_status>  (415) 
1

>  <s_m_source_file>  (415) 
/var/tmp/pbs.5076255.sched01/tmpo_pg7vmn/129owyy42_r.sdf

>  <i_m_source_file_index>  (415) 
38

>  <i_lp_mmshare_version>  (415) 
48012

>  <i_f3d_flags>  (415) 
0

>  <s_epik_input>  (415) 
W0NIM11bQ0hdKFtDSDNdKVtDSDJdW0NIMl1bQ0gyXVtDQEhdKFtDSDNdKVtDQEhdKFtDSDJdW0NIMl0xKVtDQEBdKFtDSDNdKShbQ0gyXVtDSDJdMilbQ0BIXTFbQ0BIXShbQ0gyXVtDQEhdM1tPSF0pW0NAQEhdMltDQF00KFtDSDNdKVtDSDJdW0NASF0oW09IXSlbQ0BIXShbT0hdKVtDQEBIXShbQ0BAXTM0NSlbQ0gyXVtDQEhdKFtPSF0pW0NAQEhdNVtPSF0=

>  <s_epik_cmdline>  (415) 
J2VwaWtfcHl0aG9uJywgJy1waHQnLCAnMi4wJywgJy1waCcsICc3LjAnLCAnLXRuJywgJzgnLCAnLW1hJywgJzIwMCcsICctaW1hZScsICc8aW5maWxlLm1hZT4nLCAnLW9tYWUnLCAnPG91dGZpbGUubWFlPic=

>  <r_lp_tautomer_probability>  (415) 
1

>  <r_epik_Ionization_Penalty>  (415) 
1.97772e-06

>  <r_epik_Ionization_Penalty_Charging>  (415) 
0

>  <r_epik_Ionization_Penalty_Neutral>  (415) 
1.97772e-06

>  <r_epik_State_Penalty>  (415) 
-0

>  <r_epik_Charging_Adjusted_Penalty>  (415) 
0

>  <i_epik_Tot_Q>  (415) 
0

>  <i_epik_Tot_abs_Q>  (415) 
0

>  <s_lp_Force_Field>  (415) 
OPLS3e

>  <r_lp_Energy>  (415) 
83.487

>  <b_lp_Chiralities_Consistent>  (415) 
1

>  <s_lp_Variant>  (415) 
117:0-1

>  <s_i_glide_gridfile>  (415) 
pfpi4k_grid

>  <i_i_glide_lignum>  (415) 
38

>  <i_i_glide_rotatable_bonds>  (415) 
10

>  <r_i_docking_score>  (415) 
-3.04352

>  <r_i_glide_ligand_efficiency>  (415) 
-0.0869578

>  <r_i_glide_ligand_efficiency_sa>  (415) 
-0.284445

>  <r_i_glide_ligand_efficiency_ln>  (415) 
-0.668121

>  <r_i_glide_gscore>  (415) 
-3.04352

>  <r_i_glide_lipo>  (415) 
-0.285212

>  <r_i_glide_hbond>  (415) 
-0.0134616

>  <r_i_glide_metal>  (415) 
-0

>  <r_i_glide_rewards>  (415) 
-0.549562

>  <r_i_glide_evdw>  (415) 
-23.4995

>  <r_i_glide_ecoul>  (415) 
-9.03909

>  <r_i_glide_erotb>  (415) 
0.335551

>  <r_i_glide_esite>  (415) 
0

>  <r_i_glide_emodel>  (415) 
-40.183

>  <r_i_glide_energy>  (415) 
-32.5386

>  <r_i_glide_einternal>  (415) 
9.14384

>  <r_i_glide_intrahb_reward>  (415) 
-0.5

>  <i_i_glide_confnum>  (415) 
5

>  <i_i_glide_posenum>  (415) 
14

>  <r_i_glide_eff_state_penalty>  (415) 
0

>  <ligand_id>  (415) 
117

>  <original_smiles>  (415) 
CC(C)CCCC(C)C1CCC2C3CC(O)C45C(O)C(O)CC4C(O)C(O)CC5(C)C3CCC12C

>  <smiles>  (415) 
[H]OC1([H])C([H])([H])C2(C([H])([H])[H])C3([H])C([H])([H])C([H])([H])C4(C([H])([H])[H])C([H])(C([H])(C([H])([H])[H])C([H])([H])C([H])([H])C([H])([H])C([H])(C([H])([H])[H])C([H])([H])[H])C([H])([H])C([H])([H])C4([H])C3([H])C([H])([H])C([H])(O[H])C23C([H])(O[H])C([H])(O[H])C([H])([H])C3([H])C1([H])O[H]

$$$$
118:0:0
     RDKit          3D

 39 43  0  0  1  0  0  0  0  0999 V2000
    2.7031   -2.8420   -3.2649 C   0  0  0  0  0  0  0  0  0  0  0  0
    3.5295   -2.1988   -2.1282 C   0  0  2  0  0  0  0  0  0  0  0  0
    4.9943   -2.0368   -2.5576 C   0  0  0  0  0  0  0  0  0  0  0  0
    5.7725   -2.7128   -1.4597 C   0  0  1  0  0  0  0  0  0  0  0  0
    7.1237   -2.2995   -1.3214 O   0  0  0  0  0  0  0  0  0  0  0  0
    6.2808   -2.0296   -0.1765 C   0  0  1  0  0  0  0  0  0  0  0  0
    5.1677   -1.0600    0.1358 C   0  0  0  0  0  0  0  0  0  0  0  0
    3.8841   -1.9302    0.3865 C   0  0  2  0  0  0  0  0  0  0  0  0
    3.9751   -2.5408    1.7882 C   0  0  0  0  0  0  0  0  0  0  0  0
    3.7047   -1.6925    2.9997 C   0  0  0  0  0  0  0  0  0  0  0  0
    3.8804   -2.6018    4.0754 O   0  0  0  0  0  0  0  0  0  0  0  0
    4.2048   -3.8329    3.6389 C   0  0  0  0  0  0  0  0  0  0  0  0
    4.4093   -4.8124    4.3519 O   0  0  0  0  0  0  0  0  0  0  0  0
    4.2669   -3.7853    2.1697 C   0  0  0  0  0  0  0  0  0  0  0  0
    4.6152   -5.0355    1.3701 C   0  0  0  0  0  0  0  0  0  0  0  0
    5.4280   -4.8333    0.0789 C   0  0  0  0  0  0  0  0  0  0  0  0
    4.8968   -3.8653   -1.0193 C   0  0  1  0  0  0  0  0  0  0  0  0
    3.6203   -2.9896   -0.7701 C   0  0  2  0  0  0  0  0  0  0  0  0
    2.3147   -3.7770   -0.5312 C   0  0  0  0  0  0  0  0  0  0  0  0
    3.0392   -3.8535   -3.4899 H   0  0  0  0  0  0  0  0  0  0  0  0
    2.7836   -2.2602   -4.1825 H   0  0  0  0  0  0  0  0  0  0  0  0
    1.6438   -2.8870   -3.0157 H   0  0  0  0  0  0  0  0  0  0  0  0
    3.0987   -1.2116   -1.9485 H   0  0  0  0  0  0  0  0  0  0  0  0
    5.2044   -2.5509   -3.4977 H   0  0  0  0  0  0  0  0  0  0  0  0
    5.2914   -0.9959   -2.6667 H   0  0  0  0  0  0  0  0  0  0  0  0
    6.6000   -2.5931    0.6942 H   0  0  0  0  0  0  0  0  0  0  0  0
    5.4446   -0.4909    1.0270 H   0  0  0  0  0  0  0  0  0  0  0  0
    5.0197   -0.3113   -0.6460 H   0  0  0  0  0  0  0  0  0  0  0  0
    3.0223   -1.2625    0.4167 H   0  0  0  0  0  0  0  0  0  0  0  0
    2.6918   -1.2955    2.9839 H   0  0  0  0  0  0  0  0  0  0  0  0
    4.4083   -0.8670    3.0685 H   0  0  0  0  0  0  0  0  0  0  0  0
    3.7067   -5.6023    1.1688 H   0  0  0  0  0  0  0  0  0  0  0  0
    5.2112   -5.6872    2.0084 H   0  0  0  0  0  0  0  0  0  0  0  0
    6.4728   -4.6484    0.3145 H   0  0  0  0  0  0  0  0  0  0  0  0
    5.4647   -5.8162   -0.3898 H   0  0  0  0  0  0  0  0  0  0  0  0
    4.7045   -4.4893   -1.8970 H   0  0  0  0  0  0  0  0  0  0  0  0
    2.2150   -4.1576    0.4801 H   0  0  0  0  0  0  0  0  0  0  0  0
    2.2131   -4.6257   -1.2015 H   0  0  0  0  0  0  0  0  0  0  0  0
    1.4649   -3.1187   -0.7020 H   0  0  0  0  0  0  0  0  0  0  0  0
  1  2  1  0
  1 20  1  0
  1 21  1  0
  1 22  1  0
  2 18  1  0
  2  3  1  0
  2 23  1  1
  3  4  1  0
  3 24  1  0
  3 25  1  0
  4  6  1  0
  4 17  1  0
  4  5  1  6
  5  6  1  0
  6  7  1  0
  6 26  1  1
  7  8  1  0
  7 27  1  0
  7 28  1  0
  8 18  1  0
  8 29  1  1
  8  9  1  0
  9 14  2  0
  9 10  1  0
 10 11  1  0
 10 30  1  0
 10 31  1  0
 11 12  1  0
 12 14  1  0
 12 13  2  0
 14 15  1  0
 15 16  1  0
 15 32  1  0
 15 33  1  0
 16 17  1  0
 16 34  1  0
 16 35  1  0
 17 18  1  0
 17 36  1  6
 18 19  1  1
 19 37  1  0
 19 38  1  0
 19 39  1  0
M  END
>  <i_m_ct_stereo_status>  (416) 
1

>  <s_m_source_file>  (416) 
/var/tmp/pbs.5076255.sched01/tmpo_pg7vmn/129owyy42_r.sdf

>  <i_m_source_file_index>  (416) 
39

>  <i_lp_mmshare_version>  (416) 
48012

>  <i_f3d_flags>  (416) 
0

>  <s_epik_input>  (416) 
W0NIM11bQ0BIXShbQ0gyXTEpW0NAQF0yKFtDSDNdKVtDQEBIXTNbQ0gyXVtDSDJdYyhjKFtPSF0pb1tjSF00KWM0W0NASF0yW0NIMl1bQ0BASF0oW0NAXTEzNSlPNQ==

>  <s_epik_cmdline>  (416) 
J2VwaWtfcHl0aG9uJywgJy1waHQnLCAnMi4wJywgJy1waCcsICc3LjAnLCAnLXRuJywgJzgnLCAnLW1hJywgJzIwMCcsICctaW1hZScsICc8aW5maWxlLm1hZT4nLCAnLW9tYWUnLCAnPG91dGZpbGUubWFlPic=

>  <r_lp_tautomer_probability>  (416) 
1

>  <r_epik_Ionization_Penalty>  (416) 
1.11196e-11

>  <r_epik_Ionization_Penalty_Charging>  (416) 
0

>  <r_epik_Ionization_Penalty_Neutral>  (416) 
1.11196e-11

>  <r_epik_State_Penalty>  (416) 
-0

>  <r_epik_Charging_Adjusted_Penalty>  (416) 
0

>  <i_epik_Tot_Q>  (416) 
0

>  <i_epik_Tot_abs_Q>  (416) 
0

>  <s_epik_Chemistry_Notes>  (416) 
This compound has an ester and may undergo hydrolysis at high or low pH.

>  <s_lp_Force_Field>  (416) 
OPLS3e

>  <r_lp_Energy>  (416) 
65.6033

>  <b_lp_Chiralities_Consistent>  (416) 
1

>  <s_lp_Variant>  (416) 
118:0-1

>  <s_i_glide_gridfile>  (416) 
pfpi4k_grid

>  <i_i_glide_lignum>  (416) 
39

>  <i_i_glide_rotatable_bonds>  (416) 
0

>  <r_i_docking_score>  (416) 
-3.67261

>  <r_i_glide_ligand_efficiency>  (416) 
-0.193295

>  <r_i_glide_ligand_efficiency_sa>  (416) 
-0.51579

>  <r_i_glide_ligand_efficiency_ln>  (416) 
-0.931086

>  <r_i_glide_gscore>  (416) 
-3.67261

>  <r_i_glide_lipo>  (416) 
-0.360396

>  <r_i_glide_hbond>  (416) 
-0.16

>  <r_i_glide_metal>  (416) 
-0

>  <r_i_glide_rewards>  (416) 
-1.63765

>  <r_i_glide_evdw>  (416) 
-22.4516

>  <r_i_glide_ecoul>  (416) 
-2.61326

>  <r_i_glide_erotb>  (416) 
0

>  <r_i_glide_esite>  (416) 
0

>  <r_i_glide_emodel>  (416) 
-30.4781

>  <r_i_glide_energy>  (416) 
-25.0649

>  <r_i_glide_einternal>  (416) 
0

>  <r_i_glide_intrahb_reward>  (416) 
-0

>  <i_i_glide_confnum>  (416) 
1

>  <i_i_glide_posenum>  (416) 
32

>  <r_i_glide_eff_state_penalty>  (416) 
0

>  <ligand_id>  (416) 
118

>  <original_smiles>  (416) 
CC1CC23OC2CC2c4coc(O)c4CCC3C12C

>  <smiles>  (416) 
[H]C1([H])OC(=O)C2=C1C1([H])C([H])([H])C3([H])OC34C([H])([H])C([H])(C([H])([H])[H])C1(C([H])([H])[H])C4([H])C([H])([H])C2([H])[H]

$$$$
118:0:1
     RDKit          3D

 39 43  0  0  1  0  0  0  0  0999 V2000
    3.4139   -2.8511   -2.9491 C   0  0  0  0  0  0  0  0  0  0  0  0
    3.8405   -2.0550   -1.6937 C   0  0  2  0  0  0  0  0  0  0  0  0
    5.3134   -1.6387   -1.7979 C   0  0  0  0  0  0  0  0  0  0  0  0
    5.9221   -2.1567   -0.5193 C   0  0  1  0  0  0  0  0  0  0  0  0
    7.1323   -1.5303   -0.1212 O   0  0  0  0  0  0  0  0  0  0  0  0
    6.0230   -1.3701    0.8091 C   0  0  1  0  0  0  0  0  0  0  0  0
    4.7155   -0.6236    0.8134 C   0  0  0  0  0  0  0  0  0  0  0  0
    3.5753   -1.7028    0.8209 C   0  0  2  0  0  0  0  0  0  0  0  0
    3.4544   -2.2722    2.2382 C   0  0  0  0  0  0  0  0  0  0  0  0
    2.7772   -1.4709    3.3154 C   0  0  0  0  0  0  0  0  0  0  0  0
    2.8588   -2.3239    4.4476 O   0  0  0  0  0  0  0  0  0  0  0  0
    3.4820   -3.4815    4.1584 C   0  0  0  0  0  0  0  0  0  0  0  0
    3.6859   -4.3991    4.9442 O   0  0  0  0  0  0  0  0  0  0  0  0
    3.8648   -3.4378    2.7343 C   0  0  0  0  0  0  0  0  0  0  0  0
    4.5939   -4.6143    2.0964 C   0  0  0  0  0  0  0  0  0  0  0  0
    5.6276   -4.2856    1.0019 C   0  0  0  0  0  0  0  0  0  0  0  0
    5.1925   -3.4440   -0.2353 C   0  0  1  0  0  0  0  0  0  0  0  0
    3.7623   -2.8043   -0.3105 C   0  0  2  0  0  0  0  0  0  0  0  0
    2.5966   -3.8089   -0.3220 C   0  0  0  0  0  0  0  0  0  0  0  0
    3.9583   -3.7913   -3.0408 H   0  0  0  0  0  0  0  0  0  0  0  0
    3.5982   -2.2741   -3.8554 H   0  0  0  0  0  0  0  0  0  0  0  0
    2.3482   -3.0806   -2.9358 H   0  0  0  0  0  0  0  0  0  0  0  0
    3.2195   -1.1586   -1.6634 H   0  0  0  0  0  0  0  0  0  0  0  0
    5.8115   -2.1218   -2.6408 H   0  0  0  0  0  0  0  0  0  0  0  0
    5.4425   -0.5641   -1.8996 H   0  0  0  0  0  0  0  0  0  0  0  0
    6.2253   -1.8621    1.7551 H   0  0  0  0  0  0  0  0  0  0  0  0
    4.6761   -0.0017    1.7123 H   0  0  0  0  0  0  0  0  0  0  0  0
    4.6176    0.0808   -0.0167 H   0  0  0  0  0  0  0  0  0  0  0  0
    2.6278   -1.1966    0.6316 H   0  0  0  0  0  0  0  0  0  0  0  0
    1.7413   -1.2604    3.0590 H   0  0  0  0  0  0  0  0  0  0  0  0
    3.2956   -0.5329    3.4956 H   0  0  0  0  0  0  0  0  0  0  0  0
    3.8644   -5.3363    1.7312 H   0  0  0  0  0  0  0  0  0  0  0  0
    5.1358   -5.1412    2.8815 H   0  0  0  0  0  0  0  0  0  0  0  0
    6.5423   -3.9083    1.4501 H   0  0  0  0  0  0  0  0  0  0  0  0
    5.9463   -5.2480    0.6040 H   0  0  0  0  0  0  0  0  0  0  0  0
    5.3123   -4.1002   -1.1032 H   0  0  0  0  0  0  0  0  0  0  0  0
    2.3445   -4.1995    0.6577 H   0  0  0  0  0  0  0  0  0  0  0  0
    2.8123   -4.6547   -0.9699 H   0  0  0  0  0  0  0  0  0  0  0  0
    1.7007   -3.3235   -0.7028 H   0  0  0  0  0  0  0  0  0  0  0  0
  1  2  1  0
  1 20  1  0
  1 21  1  0
  1 22  1  0
  2 18  1  0
  2  3  1  0
  2 23  1  1
  3  4  1  0
  3 24  1  0
  3 25  1  0
  4  6  1  0
  4 17  1  0
  4  5  1  6
  5  6  1  0
  6  7  1  0
  6 26  1  1
  7  8  1  0
  7 27  1  0
  7 28  1  0
  8 18  1  0
  8 29  1  6
  8  9  1  0
  9 14  2  0
  9 10  1  0
 10 11  1  0
 10 30  1  0
 10 31  1  0
 11 12  1  0
 12 14  1  0
 12 13  2  0
 14 15  1  0
 15 16  1  0
 15 32  1  0
 15 33  1  0
 16 17  1  0
 16 34  1  0
 16 35  1  0
 17 18  1  0
 17 36  1  6
 18 19  1  6
 19 37  1  0
 19 38  1  0
 19 39  1  0
M  END
>  <i_m_ct_stereo_status>  (417) 
1

>  <s_m_source_file>  (417) 
/var/tmp/pbs.5076255.sched01/tmpo_pg7vmn/129owyy42_r.sdf

>  <i_m_source_file_index>  (417) 
39

>  <i_lp_mmshare_version>  (417) 
48012

>  <i_f3d_flags>  (417) 
0

>  <s_epik_input>  (417) 
W0NIM11bQ0BIXShbQ0gyXTEpW0NAQF0yKFtDSDNdKVtDQEBIXTNbQ0gyXVtDSDJdYyhjKFtPSF0pb1tjSF00KWM0W0NASF0yW0NIMl1bQ0BASF0oW0NAXTEzNSlPNQ==

>  <s_epik_cmdline>  (417) 
J2VwaWtfcHl0aG9uJywgJy1waHQnLCAnMi4wJywgJy1waCcsICc3LjAnLCAnLXRuJywgJzgnLCAnLW1hJywgJzIwMCcsICctaW1hZScsICc8aW5maWxlLm1hZT4nLCAnLW9tYWUnLCAnPG91dGZpbGUubWFlPic=

>  <r_lp_tautomer_probability>  (417) 
1

>  <r_epik_Ionization_Penalty>  (417) 
1.11196e-11

>  <r_epik_Ionization_Penalty_Charging>  (417) 
0

>  <r_epik_Ionization_Penalty_Neutral>  (417) 
1.11196e-11

>  <r_epik_State_Penalty>  (417) 
-0

>  <r_epik_Charging_Adjusted_Penalty>  (417) 
0

>  <i_epik_Tot_Q>  (417) 
0

>  <i_epik_Tot_abs_Q>  (417) 
0

>  <s_epik_Chemistry_Notes>  (417) 
This compound has an ester and may undergo hydrolysis at high or low pH.

>  <s_lp_Force_Field>  (417) 
OPLS3e

>  <r_lp_Energy>  (417) 
65.6033

>  <b_lp_Chiralities_Consistent>  (417) 
1

>  <s_lp_Variant>  (417) 
118:0-1

>  <s_i_glide_gridfile>  (417) 
pfpi4k_grid

>  <i_i_glide_lignum>  (417) 
39

>  <i_i_glide_rotatable_bonds>  (417) 
0

>  <r_i_docking_score>  (417) 
-3.58942

>  <r_i_glide_ligand_efficiency>  (417) 
-0.188917

>  <r_i_glide_ligand_efficiency_sa>  (417) 
-0.504107

>  <r_i_glide_ligand_efficiency_ln>  (417) 
-0.909996

>  <r_i_glide_gscore>  (417) 
-3.58942

>  <r_i_glide_lipo>  (417) 
-0.41238

>  <r_i_glide_hbond>  (417) 
-0.11628

>  <r_i_glide_metal>  (417) 
-0

>  <r_i_glide_rewards>  (417) 
-1.63413

>  <r_i_glide_evdw>  (417) 
-20.5679

>  <r_i_glide_ecoul>  (417) 
-2.65497

>  <r_i_glide_erotb>  (417) 
0

>  <r_i_glide_esite>  (417) 
0

>  <r_i_glide_emodel>  (417) 
-28.5896

>  <r_i_glide_energy>  (417) 
-23.2228

>  <r_i_glide_einternal>  (417) 
0

>  <r_i_glide_intrahb_reward>  (417) 
-0

>  <i_i_glide_confnum>  (417) 
1

>  <i_i_glide_posenum>  (417) 
7

>  <r_i_glide_eff_state_penalty>  (417) 
0

>  <ligand_id>  (417) 
118

>  <original_smiles>  (417) 
CC1CC23OC2CC2c4coc(O)c4CCC3C12C

>  <smiles>  (417) 
[H]C1([H])OC(=O)C2=C1C1([H])C([H])([H])C3([H])OC34C([H])([H])C([H])(C([H])([H])[H])C1(C([H])([H])[H])C4([H])C([H])([H])C2([H])[H]

$$$$
118:0:2
     RDKit          3D

 39 43  0  0  1  0  0  0  0  0999 V2000
    3.1381   -1.9309   -3.1645 C   0  0  0  0  0  0  0  0  0  0  0  0
    3.6099   -1.6648   -1.7166 C   0  0  2  0  0  0  0  0  0  0  0  0
    5.1036   -1.3420   -1.7035 C   0  0  0  0  0  0  0  0  0  0  0  0
    5.6643   -2.3125   -0.6998 C   0  0  1  0  0  0  0  0  0  0  0  0
    6.9388   -1.9766   -0.1976 O   0  0  0  0  0  0  0  0  0  0  0  0
    5.8598   -2.0421    0.7970 C   0  0  1  0  0  0  0  0  0  0  0  0
    4.5948   -1.2664    1.1053 C   0  0  0  0  0  0  0  0  0  0  0  0
    3.3771   -2.2040    0.7625 C   0  0  2  0  0  0  0  0  0  0  0  0
    3.2006   -3.2244    1.8880 C   0  0  0  0  0  0  0  0  0  0  0  0
    2.5804   -2.8155    3.1939 C   0  0  0  0  0  0  0  0  0  0  0  0
    2.5853   -4.0222    3.9446 O   0  0  0  0  0  0  0  0  0  0  0  0
    3.1206   -5.0408    3.2459 C   0  0  0  0  0  0  0  0  0  0  0  0
    3.2519   -6.1953    3.6461 O   0  0  0  0  0  0  0  0  0  0  0  0
    3.5111   -4.5210    1.9288 C   0  0  0  0  0  0  0  0  0  0  0  0
    4.1474   -5.4320    0.8902 C   0  0  0  0  0  0  0  0  0  0  0  0
    5.2109   -4.8065   -0.0238 C   0  0  0  0  0  0  0  0  0  0  0  0
    4.8479   -3.5640   -0.8827 C   0  0  1  0  0  0  0  0  0  0  0  0
    3.4705   -2.8443   -0.6926 C   0  0  2  0  0  0  0  0  0  0  0  0
    2.2253   -3.6933   -1.0336 C   0  0  0  0  0  0  0  0  0  0  0  0
    3.6147   -2.8093   -3.6010 H   0  0  0  0  0  0  0  0  0  0  0  0
    3.3617   -1.0756   -3.8041 H   0  0  0  0  0  0  0  0  0  0  0  0
    2.0613   -2.0832   -3.2044 H   0  0  0  0  0  0  0  0  0  0  0  0
    3.0582   -0.7968   -1.3560 H   0  0  0  0  0  0  0  0  0  0  0  0
    5.5483   -1.5534   -2.6788 H   0  0  0  0  0  0  0  0  0  0  0  0
    5.3276   -0.3151   -1.4203 H   0  0  0  0  0  0  0  0  0  0  0  0
    6.0074   -2.8570    1.4976 H   0  0  0  0  0  0  0  0  0  0  0  0
    4.5989   -1.0192    2.1714 H   0  0  0  0  0  0  0  0  0  0  0  0
    4.5392   -0.3007    0.5898 H   0  0  0  0  0  0  0  0  0  0  0  0
    2.4703   -1.6017    0.7915 H   0  0  0  0  0  0  0  0  0  0  0  0
    1.5677   -2.4482    3.0436 H   0  0  0  0  0  0  0  0  0  0  0  0
    3.1701   -2.0407    3.6778 H   0  0  0  0  0  0  0  0  0  0  0  0
    3.3719   -5.9227    0.2987 H   0  0  0  0  0  0  0  0  0  0  0  0
    4.6456   -6.2443    1.4170 H   0  0  0  0  0  0  0  0  0  0  0  0
    6.1576   -4.6908    0.5003 H   0  0  0  0  0  0  0  0  0  0  0  0
    5.4280   -5.5897   -0.7444 H   0  0  0  0  0  0  0  0  0  0  0  0
    4.9268   -3.8767   -1.9271 H   0  0  0  0  0  0  0  0  0  0  0  0
    1.9608   -4.4074   -0.2635 H   0  0  0  0  0  0  0  0  0  0  0  0
    2.3525   -4.2303   -1.9612 H   0  0  0  0  0  0  0  0  0  0  0  0
    1.3475   -3.0643   -1.1676 H   0  0  0  0  0  0  0  0  0  0  0  0
  1  2  1  0
  1 20  1  0
  1 21  1  0
  1 22  1  0
  2 18  1  0
  2  3  1  0
  2 23  1  1
  3  4  1  0
  3 24  1  0
  3 25  1  0
  4  6  1  0
  4 17  1  0
  4  5  1  6
  5  6  1  0
  6  7  1  0
  6 26  1  1
  7  8  1  0
  7 27  1  0
  7 28  1  0
  8 18  1  0
  8 29  1  6
  8  9  1  0
  9 14  2  0
  9 10  1  0
 10 11  1  0
 10 30  1  0
 10 31  1  0
 11 12  1  0
 12 14  1  0
 12 13  2  0
 14 15  1  0
 15 16  1  0
 15 32  1  0
 15 33  1  0
 16 17  1  0
 16 34  1  0
 16 35  1  0
 17 18  1  0
 17 36  1  6
 18 19  1  6
 19 37  1  0
 19 38  1  0
 19 39  1  0
M  END
>  <i_m_ct_stereo_status>  (418) 
1

>  <s_m_source_file>  (418) 
/var/tmp/pbs.5076255.sched01/tmpo_pg7vmn/129owyy42_r.sdf

>  <i_m_source_file_index>  (418) 
39

>  <i_lp_mmshare_version>  (418) 
48012

>  <i_f3d_flags>  (418) 
0

>  <s_epik_input>  (418) 
W0NIM11bQ0BIXShbQ0gyXTEpW0NAQF0yKFtDSDNdKVtDQEBIXTNbQ0gyXVtDSDJdYyhjKFtPSF0pb1tjSF00KWM0W0NASF0yW0NIMl1bQ0BASF0oW0NAXTEzNSlPNQ==

>  <s_epik_cmdline>  (418) 
J2VwaWtfcHl0aG9uJywgJy1waHQnLCAnMi4wJywgJy1waCcsICc3LjAnLCAnLXRuJywgJzgnLCAnLW1hJywgJzIwMCcsICctaW1hZScsICc8aW5maWxlLm1hZT4nLCAnLW9tYWUnLCAnPG91dGZpbGUubWFlPic=

>  <r_lp_tautomer_probability>  (418) 
1

>  <r_epik_Ionization_Penalty>  (418) 
1.11196e-11

>  <r_epik_Ionization_Penalty_Charging>  (418) 
0

>  <r_epik_Ionization_Penalty_Neutral>  (418) 
1.11196e-11

>  <r_epik_State_Penalty>  (418) 
-0

>  <r_epik_Charging_Adjusted_Penalty>  (418) 
0

>  <i_epik_Tot_Q>  (418) 
0

>  <i_epik_Tot_abs_Q>  (418) 
0

>  <s_epik_Chemistry_Notes>  (418) 
This compound has an ester and may undergo hydrolysis at high or low pH.

>  <s_lp_Force_Field>  (418) 
OPLS3e

>  <r_lp_Energy>  (418) 
65.6033

>  <b_lp_Chiralities_Consistent>  (418) 
1

>  <s_lp_Variant>  (418) 
118:0-1

>  <s_i_glide_gridfile>  (418) 
pfpi4k_grid

>  <i_i_glide_lignum>  (418) 
39

>  <i_i_glide_rotatable_bonds>  (418) 
0

>  <r_i_docking_score>  (418) 
-3.36013

>  <r_i_glide_ligand_efficiency>  (418) 
-0.176849

>  <r_i_glide_ligand_efficiency_sa>  (418) 
-0.471904

>  <r_i_glide_ligand_efficiency_ln>  (418) 
-0.851866

>  <r_i_glide_gscore>  (418) 
-3.36013

>  <r_i_glide_lipo>  (418) 
-0.304409

>  <r_i_glide_hbond>  (418) 
-0.0970151

>  <r_i_glide_metal>  (418) 
-0

>  <r_i_glide_rewards>  (418) 
-1.63413

>  <r_i_glide_evdw>  (418) 
-20.3428

>  <r_i_glide_ecoul>  (418) 
-2.04961

>  <r_i_glide_erotb>  (418) 
0

>  <r_i_glide_esite>  (418) 
0

>  <r_i_glide_emodel>  (418) 
-27.5167

>  <r_i_glide_energy>  (418) 
-22.3924

>  <r_i_glide_einternal>  (418) 
0

>  <r_i_glide_intrahb_reward>  (418) 
-0

>  <i_i_glide_confnum>  (418) 
2

>  <i_i_glide_posenum>  (418) 
26

>  <r_i_glide_eff_state_penalty>  (418) 
0

>  <ligand_id>  (418) 
118

>  <original_smiles>  (418) 
CC1CC23OC2CC2c4coc(O)c4CCC3C12C

>  <smiles>  (418) 
[H]C1([H])OC(=O)C2=C1C1([H])C([H])([H])C3([H])OC34C([H])([H])C([H])(C([H])([H])[H])C1(C([H])([H])[H])C4([H])C([H])([H])C2([H])[H]

$$$$
119:0:0
     RDKit          3D

 71 77  0  0  1  0  0  0  0  0999 V2000
   -0.4812   -8.1450    3.9740 C   0  0  0  0  0  0  0  0  0  0  0  0
    0.9502   -8.5561    3.6836 C   0  0  0  0  0  0  0  0  0  0  0  0
    2.0073   -7.8608    4.1429 C   0  0  0  0  0  0  0  0  0  0  0  0
    3.4757   -8.2280    3.9065 C   0  0  2  0  0  0  0  0  0  0  0  0
    4.4410   -7.0072    3.7297 C   0  0  2  0  0  0  0  0  0  0  0  0
    4.7594   -6.6187    5.0622 O   0  0  0  0  0  0  0  0  0  0  0  0
    3.7812   -5.7677    3.0791 C   0  0  0  0  0  0  0  0  0  0  0  0
    4.7423   -4.6136    2.6757 C   0  0  1  0  0  0  0  0  0  0  0  0
    5.3676   -4.1547    3.8731 O   0  0  0  0  0  0  0  0  0  0  0  0
    5.9038   -5.1543    1.7823 C   0  0  2  0  0  0  0  0  0  0  0  0
    5.5745   -5.0584    0.2631 C   0  0  0  0  0  0  0  0  0  0  0  0
    5.8243   -3.6687   -0.3863 C   0  0  2  0  0  0  0  0  0  0  0  0
    5.7949   -2.4790    0.5906 C   0  0  0  0  0  0  0  0  0  0  0  0
    6.8265   -1.8088    0.6962 O   0  0  0  0  0  0  0  0  0  0  0  0
    4.4609   -2.2248    1.2343 C   0  0  1  0  0  0  0  0  0  0  0  0
    4.4651   -0.8166    1.8316 C   0  0  0  0  0  0  0  0  0  0  0  0
    3.2930   -2.6079    0.3192 C   0  0  2  0  0  0  0  0  0  0  0  0
    3.0740   -3.8276    1.0304 O   0  0  0  0  0  0  0  0  0  0  0  0
    3.9258   -3.3854    2.1041 C   0  0  1  0  0  0  0  0  0  0  0  0
    3.1376   -2.9038    3.2226 O   0  0  0  0  0  0  0  0  0  0  0  0
    3.4608   -2.9223   -1.1818 C   0  0  1  0  0  0  0  0  0  0  0  0
    3.0224   -1.7904   -1.9166 O   0  0  0  0  0  0  0  0  0  0  0  0
    4.9030   -3.3887   -1.6046 C   0  0  1  0  0  0  0  0  0  0  0  0
    5.6095   -2.4865   -2.6331 C   0  0  0  0  0  0  0  0  0  0  0  0
    6.3888   -6.5673    2.1555 C   0  0  0  0  0  0  0  0  0  0  0  0
    7.6886   -6.9600    1.4590 C   0  0  0  0  0  0  0  0  0  0  0  0
    5.7414   -7.3935    3.0194 C   0  0  0  0  0  0  0  0  0  0  0  0
    6.1648   -8.8505    3.2414 C   0  0  1  0  0  0  0  0  0  0  0  0
    6.6224   -9.1281    4.6938 C   0  0  0  0  0  0  0  0  0  0  0  0
    5.0643   -9.7965    2.7047 C   0  0  1  0  0  0  0  0  0  0  0  0
    5.1721  -11.1060    3.2302 O   0  0  0  0  0  0  0  0  0  0  0  0
    3.6553   -9.2611    2.8199 C   0  0  2  0  0  0  0  0  0  0  0  0
    3.0282   -8.8952    1.5558 O   0  0  0  0  0  0  0  0  0  0  0  0
    2.4629  -10.0232    2.2955 C   0  0  2  0  0  0  0  0  0  0  0  0
    1.0922   -9.8294    2.8578 C   0  0  0  0  0  0  0  0  0  0  0  0
   -1.0183   -8.9638    4.4578 H   0  0  0  0  0  0  0  0  0  0  0  0
   -0.9992   -7.9018    3.0490 H   0  0  0  0  0  0  0  0  0  0  0  0
   -0.5142   -7.2750    4.6321 H   0  0  0  0  0  0  0  0  0  0  0  0
    1.8569   -6.9895    4.7559 H   0  0  0  0  0  0  0  0  0  0  0  0
    3.7468   -8.7519    4.8221 H   0  0  0  0  0  0  0  0  0  0  0  0
    5.3822   -5.9166    4.9944 H   0  0  0  0  0  0  0  0  0  0  0  0
    3.2755   -6.1136    2.1702 H   0  0  0  0  0  0  0  0  0  0  0  0
    3.0007   -5.3855    3.7323 H   0  0  0  0  0  0  0  0  0  0  0  0
    4.6855   -3.7254    4.3587 H   0  0  0  0  0  0  0  0  0  0  0  0
    6.7764   -4.5303    1.9729 H   0  0  0  0  0  0  0  0  0  0  0  0
    6.1708   -5.7738   -0.2938 H   0  0  0  0  0  0  0  0  0  0  0  0
    4.5534   -5.4036    0.0813 H   0  0  0  0  0  0  0  0  0  0  0  0
    6.8564   -3.7027   -0.7384 H   0  0  0  0  0  0  0  0  0  0  0  0
    3.4673   -0.5227    2.1699 H   0  0  0  0  0  0  0  0  0  0  0  0
    4.7651   -0.0553    1.1123 H   0  0  0  0  0  0  0  0  0  0  0  0
    5.1157   -0.7454    2.6973 H   0  0  0  0  0  0  0  0  0  0  0  0
    2.4534   -1.9255    0.5061 H   0  0  0  0  0  0  0  0  0  0  0  0
    2.5123   -2.3130    2.8583 H   0  0  0  0  0  0  0  0  0  0  0  0
    2.7891   -3.7346   -1.4470 H   0  0  0  0  0  0  0  0  0  0  0  0
    2.1492   -1.5316   -1.5896 H   0  0  0  0  0  0  0  0  0  0  0  0
    4.7892   -4.3484   -2.1112 H   0  0  0  0  0  0  0  0  0  0  0  0
    5.7887   -1.4779   -2.2625 H   0  0  0  0  0  0  0  0  0  0  0  0
    5.0191   -2.4044   -3.5473 H   0  0  0  0  0  0  0  0  0  0  0  0
    6.5751   -2.9096   -2.9267 H   0  0  0  0  0  0  0  0  0  0  0  0
    8.2043   -6.0935    1.0455 H   0  0  0  0  0  0  0  0  0  0  0  0
    7.4889   -7.6584    0.6531 H   0  0  0  0  0  0  0  0  0  0  0  0
    8.3826   -7.4370    2.1538 H   0  0  0  0  0  0  0  0  0  0  0  0
    7.0486   -9.0853    2.6462 H   0  0  0  0  0  0  0  0  0  0  0  0
    7.3798   -8.4031    5.0006 H   0  0  0  0  0  0  0  0  0  0  0  0
    7.0709  -10.1179    4.7873 H   0  0  0  0  0  0  0  0  0  0  0  0
    5.8089   -9.0781    5.4168 H   0  0  0  0  0  0  0  0  0  0  0  0
    5.2490   -9.9243    1.6353 H   0  0  0  0  0  0  0  0  0  0  0  0
    4.6561  -11.6831    2.6888 H   0  0  0  0  0  0  0  0  0  0  0  0
    2.6817  -10.9898    1.8630 H   0  0  0  0  0  0  0  0  0  0  0  0
    0.8797  -10.6750    3.5225 H   0  0  0  0  0  0  0  0  0  0  0  0
    0.3559   -9.8577    2.0661 H   0  0  0  0  0  0  0  0  0  0  0  0
  1  2  1  0
  1 36  1  0
  1 37  1  0
  1 38  1  0
  2 35  1  0
  2  3  2  0
  3  4  1  0
  3 39  1  0
  4 32  1  0
  4  5  1  0
  4 40  1  1
  5 27  1  0
  5  6  1  1
  5  7  1  0
  6 41  1  0
  7  8  1  0
  7 42  1  0
  7 43  1  0
  8 19  1  0
  8  9  1  1
  8 10  1  0
  9 44  1  0
 10 11  1  0
 10 25  1  0
 10 45  1  6
 11 12  1  0
 11 46  1  0
 11 47  1  0
 12 23  1  0
 12 13  1  0
 12 48  1  6
 13 14  2  0
 13 15  1  0
 15 19  1  0
 15 16  1  1
 15 17  1  0
 16 49  1  0
 16 50  1  0
 16 51  1  0
 17 18  1  0
 17 21  1  0
 17 52  1  6
 18 19  1  0
 19 20  1  1
 20 53  1  0
 21 22  1  0
 21 23  1  0
 21 54  1  6
 22 55  1  0
 23 24  1  0
 23 56  1  6
 24 57  1  0
 24 58  1  0
 24 59  1  0
 25 26  1  0
 25 27  2  0
 26 60  1  0
 26 61  1  0
 26 62  1  0
 27 28  1  0
 28 29  1  0
 28 30  1  0
 28 63  1  6
 29 64  1  0
 29 65  1  0
 29 66  1  0
 30 31  1  0
 30 32  1  0
 30 67  1  6
 31 68  1  0
 32 34  1  0
 32 33  1  6
 33 34  1  0
 34 35  1  0
 34 69  1  6
 35 70  1  0
 35 71  1  0
M  END
>  <i_m_ct_stereo_status>  (419) 
1

>  <s_m_source_file>  (419) 
/var/tmp/pbs.5076255.sched01/tmpo_pg7vmn/129owyy42_r.sdf

>  <i_m_source_file_index>  (419) 
40

>  <i_lp_mmshare_version>  (419) 
48012

>  <i_f3d_flags>  (419) 
0

>  <s_epik_input>  (419) 
TzFbQ0BASF0yW0NIMl1DKFtDSDNdKT1bQ0hdW0NAQEhdKFtDQF0xMjMpW0NAQF00KFtPSF0pQyhbQ0BASF0oW0NIM10pW0NASF0zW09IXSk9QyhbQ0gzXSlbQ0BASF01W0NAQF0oW0NIMl00KShbT0hdKVtDQEBdNihbT0hdKVtDQF03KFtDSDNdKVtDQEhdKE82KVtDQEBIXShbT0hdKVtDQEBIXShbQ0gzXSlbQ0BIXShbQ0gyXTUpQzc9Tw==

>  <s_epik_cmdline>  (419) 
J2VwaWtfcHl0aG9uJywgJy1waHQnLCAnMi4wJywgJy1waCcsICc3LjAnLCAnLXRuJywgJzgnLCAnLW1hJywgJzIwMCcsICctaW1hZScsICc8aW5maWxlLm1hZT4nLCAnLW9tYWUnLCAnPG91dGZpbGUubWFlPic=

>  <r_lp_tautomer_probability>  (419) 
1

>  <r_epik_Ionization_Penalty>  (419) 
2.36939e-05

>  <r_epik_Ionization_Penalty_Charging>  (419) 
0

>  <r_epik_Ionization_Penalty_Neutral>  (419) 
2.36939e-05

>  <r_epik_State_Penalty>  (419) 
-0

>  <r_epik_Charging_Adjusted_Penalty>  (419) 
0

>  <i_epik_Tot_Q>  (419) 
0

>  <i_epik_Tot_abs_Q>  (419) 
0

>  <s_lp_Force_Field>  (419) 
OPLS3e

>  <r_lp_Energy>  (419) 
63.7913

>  <b_lp_Chiralities_Consistent>  (419) 
1

>  <s_lp_Variant>  (419) 
119:0-1

>  <s_i_glide_gridfile>  (419) 
pfpi4k_grid

>  <i_i_glide_lignum>  (419) 
40

>  <i_i_glide_rotatable_bonds>  (419) 
5

>  <r_i_docking_score>  (419) 
-3.8857

>  <r_i_glide_ligand_efficiency>  (419) 
-0.11102

>  <r_i_glide_ligand_efficiency_sa>  (419) 
-0.363154

>  <r_i_glide_ligand_efficiency_ln>  (419) 
-0.852998

>  <r_i_glide_gscore>  (419) 
-3.8857

>  <r_i_glide_lipo>  (419) 
-0.570432

>  <r_i_glide_hbond>  (419) 
-0.16

>  <r_i_glide_metal>  (419) 
-0

>  <r_i_glide_rewards>  (419) 
-0.663575

>  <r_i_glide_evdw>  (419) 
-25.9546

>  <r_i_glide_ecoul>  (419) 
-7.95979

>  <r_i_glide_erotb>  (419) 
0

>  <r_i_glide_esite>  (419) 
0

>  <r_i_glide_emodel>  (419) 
-47.4292

>  <r_i_glide_energy>  (419) 
-33.9144

>  <r_i_glide_einternal>  (419) 
0.914707

>  <r_i_glide_intrahb_reward>  (419) 
-0.5

>  <i_i_glide_confnum>  (419) 
1

>  <i_i_glide_posenum>  (419) 
35

>  <r_i_glide_eff_state_penalty>  (419) 
0

>  <ligand_id>  (419) 
119

>  <original_smiles>  (419) 
CC1=CC2C3(O)CC4(O)C(CC5C(=O)C6(C)C(OC46O)C(O)C5C)C(C)=C3C(C)C(O)C23OC3C1

>  <smiles>  (419) 
[H]OC1([H])C2([H])OC3(O[H])C4(O[H])C([H])([H])C5(O[H])C(=C(C([H])([H])[H])C4([H])C([H])([H])C([H])(C(=O)C23C([H])([H])[H])C1([H])C([H])([H])[H])C([H])(C([H])([H])[H])C([H])(O[H])C12OC1([H])C([H])([H])C(C([H])([H])[H])=C([H])C52[H]

$$$$
119:0:1
     RDKit          3D

 71 77  0  0  1  0  0  0  0  0999 V2000
   -0.5425   -8.1112    4.0992 C   0  0  0  0  0  0  0  0  0  0  0  0
    0.8892   -8.5320    3.8265 C   0  0  0  0  0  0  0  0  0  0  0  0
    1.9452   -7.8268    4.2840 C   0  0  0  0  0  0  0  0  0  0  0  0
    3.4144   -8.1964    4.0777 C   0  0  2  0  0  0  0  0  0  0  0  0
    4.3888   -6.9745    3.8876 C   0  0  2  0  0  0  0  0  0  0  0  0
    4.7079   -6.5445    5.2015 O   0  0  0  0  0  0  0  0  0  0  0  0
    3.7399   -5.7547    3.1848 C   0  0  0  0  0  0  0  0  0  0  0  0
    4.6982   -4.6051    2.7496 C   0  0  1  0  0  0  0  0  0  0  0  0
    5.3534   -4.0695    3.8884 O   0  0  0  0  0  0  0  0  0  0  0  0
    5.8618   -5.1841    1.8810 C   0  0  2  0  0  0  0  0  0  0  0  0
    5.5502   -5.1296    0.3593 C   0  0  0  0  0  0  0  0  0  0  0  0
    5.8155   -3.7640   -0.3331 C   0  0  2  0  0  0  0  0  0  0  0  0
    5.7788   -2.5453    0.6034 C   0  0  0  0  0  0  0  0  0  0  0  0
    6.7972   -1.8656    0.7121 O   0  0  0  0  0  0  0  0  0  0  0  0
    4.4342   -2.2830    1.2355 C   0  0  1  0  0  0  0  0  0  0  0  0
    4.4161   -0.8483    1.7942 C   0  0  0  0  0  0  0  0  0  0  0  0
    3.2701   -2.6732    0.3116 C   0  0  2  0  0  0  0  0  0  0  0  0
    3.0369   -3.8917    1.0559 O   0  0  0  0  0  0  0  0  0  0  0  0
    3.8565   -3.4102    2.1442 C   0  0  1  0  0  0  0  0  0  0  0  0
    3.0412   -2.9198    3.1943 O   0  0  0  0  0  0  0  0  0  0  0  0
    3.4606   -3.0345   -1.1789 C   0  0  1  0  0  0  0  0  0  0  0  0
    3.0198   -1.9285   -1.9402 O   0  0  0  0  0  0  0  0  0  0  0  0
    4.9035   -3.5177   -1.5656 C   0  0  1  0  0  0  0  0  0  0  0  0
    5.6253   -2.6502   -2.6211 C   0  0  0  0  0  0  0  0  0  0  0  0
    6.3444   -6.5853    2.3012 C   0  0  0  0  0  0  0  0  0  0  0  0
    7.6514   -7.0029    1.6356 C   0  0  0  0  0  0  0  0  0  0  0  0
    5.6912   -7.3887    3.1840 C   0  0  0  0  0  0  0  0  0  0  0  0
    6.1150   -8.8393    3.4570 C   0  0  1  0  0  0  0  0  0  0  0  0
    6.5553   -9.0688    4.9247 C   0  0  0  0  0  0  0  0  0  0  0  0
    5.0210   -9.8045    2.9304 C   0  0  1  0  0  0  0  0  0  0  0  0
    5.1169  -11.0879    3.5136 O   0  0  0  0  0  0  0  0  0  0  0  0
    3.5974   -9.2615    3.0092 C   0  0  2  0  0  0  0  0  0  0  0  0
    2.9934   -8.9598    1.7459 O   0  0  0  0  0  0  0  0  0  0  0  0
    2.4299  -10.0477    2.4940 C   0  0  2  0  0  0  0  0  0  0  0  0
    1.0398   -9.8337    3.0484 C   0  0  0  0  0  0  0  0  0  0  0  0
   -1.0841   -8.9155    4.5988 H   0  0  0  0  0  0  0  0  0  0  0  0
   -1.0508   -7.8939    3.1608 H   0  0  0  0  0  0  0  0  0  0  0  0
   -0.5830   -7.2232    4.7300 H   0  0  0  0  0  0  0  0  0  0  0  0
    1.7806   -6.9351    4.8659 H   0  0  0  0  0  0  0  0  0  0  0  0
    3.6673   -8.7049    5.0068 H   0  0  0  0  0  0  0  0  0  0  0  0
    5.0461   -7.2929    5.6717 H   0  0  0  0  0  0  0  0  0  0  0  0
    3.2418   -6.1311    2.2878 H   0  0  0  0  0  0  0  0  0  0  0  0
    2.9517   -5.3579    3.8213 H   0  0  0  0  0  0  0  0  0  0  0  0
    5.7089   -4.8016    4.3736 H   0  0  0  0  0  0  0  0  0  0  0  0
    6.7418   -4.5595    2.0520 H   0  0  0  0  0  0  0  0  0  0  0  0
    6.1599   -5.8566   -0.1726 H   0  0  0  0  0  0  0  0  0  0  0  0
    4.5330   -5.4835    0.1751 H   0  0  0  0  0  0  0  0  0  0  0  0
    6.8490   -3.8115   -0.6712 H   0  0  0  0  0  0  0  0  0  0  0  0
    3.4190   -0.5509    2.1108 H   0  0  0  0  0  0  0  0  0  0  0  0
    4.7266   -0.1128    1.0543 H   0  0  0  0  0  0  0  0  0  0  0  0
    5.0622   -0.7509    2.6623 H   0  0  0  0  0  0  0  0  0  0  0  0
    2.4269   -2.0022    0.4785 H   0  0  0  0  0  0  0  0  0  0  0  0
    2.4253   -2.3154    2.8041 H   0  0  0  0  0  0  0  0  0  0  0  0
    2.7865   -3.8550   -1.4225 H   0  0  0  0  0  0  0  0  0  0  0  0
    2.1544   -1.6489   -1.6117 H   0  0  0  0  0  0  0  0  0  0  0  0
    4.7959   -4.4948   -2.0462 H   0  0  0  0  0  0  0  0  0  0  0  0
    5.7959   -1.6311   -2.2757 H   0  0  0  0  0  0  0  0  0  0  0  0
    5.0418   -2.5971   -3.5388 H   0  0  0  0  0  0  0  0  0  0  0  0
    6.5961   -3.0735   -2.8917 H   0  0  0  0  0  0  0  0  0  0  0  0
    8.1727   -6.1500    1.1970 H   0  0  0  0  0  0  0  0  0  0  0  0
    7.4491   -7.7280    0.8514 H   0  0  0  0  0  0  0  0  0  0  0  0
    8.3396   -7.4553    2.3503 H   0  0  0  0  0  0  0  0  0  0  0  0
    7.0044   -9.0907    2.8806 H   0  0  0  0  0  0  0  0  0  0  0  0
    7.3084   -8.3353    5.2174 H   0  0  0  0  0  0  0  0  0  0  0  0
    7.0078  -10.0546    5.0491 H   0  0  0  0  0  0  0  0  0  0  0  0
    5.7350   -9.0116    5.6386 H   0  0  0  0  0  0  0  0  0  0  0  0
    5.2181   -9.9651    1.8698 H   0  0  0  0  0  0  0  0  0  0  0  0
    4.5707  -11.6821    3.0156 H   0  0  0  0  0  0  0  0  0  0  0  0
    2.6299  -11.0394    2.0921 H   0  0  0  0  0  0  0  0  0  0  0  0
    0.8228  -10.6534    3.7379 H   0  0  0  0  0  0  0  0  0  0  0  0
    0.3147   -9.8890    2.2373 H   0  0  0  0  0  0  0  0  0  0  0  0
  1  2  1  0
  1 36  1  0
  1 37  1  0
  1 38  1  0
  2 35  1  0
  2  3  2  0
  3  4  1  0
  3 39  1  0
  4 32  1  0
  4  5  1  0
  4 40  1  1
  5 27  1  0
  5  6  1  1
  5  7  1  0
  6 41  1  0
  7  8  1  0
  7 42  1  0
  7 43  1  0
  8 19  1  0
  8  9  1  1
  8 10  1  0
  9 44  1  0
 10 11  1  0
 10 25  1  0
 10 45  1  6
 11 12  1  0
 11 46  1  0
 11 47  1  0
 12 23  1  0
 12 13  1  0
 12 48  1  6
 13 14  2  0
 13 15  1  0
 15 19  1  0
 15 16  1  1
 15 17  1  0
 16 49  1  0
 16 50  1  0
 16 51  1  0
 17 18  1  0
 17 21  1  0
 17 52  1  6
 18 19  1  0
 19 20  1  1
 20 53  1  0
 21 22  1  0
 21 23  1  0
 21 54  1  6
 22 55  1  0
 23 24  1  0
 23 56  1  6
 24 57  1  0
 24 58  1  0
 24 59  1  0
 25 26  1  0
 25 27  2  0
 26 60  1  0
 26 61  1  0
 26 62  1  0
 27 28  1  0
 28 29  1  0
 28 30  1  0
 28 63  1  6
 29 64  1  0
 29 65  1  0
 29 66  1  0
 30 31  1  0
 30 32  1  0
 30 67  1  6
 31 68  1  0
 32 34  1  0
 32 33  1  6
 33 34  1  0
 34 35  1  0
 34 69  1  6
 35 70  1  0
 35 71  1  0
M  END
>  <i_m_ct_stereo_status>  (420) 
1

>  <s_m_source_file>  (420) 
/var/tmp/pbs.5076255.sched01/tmpo_pg7vmn/129owyy42_r.sdf

>  <i_m_source_file_index>  (420) 
40

>  <i_lp_mmshare_version>  (420) 
48012

>  <i_f3d_flags>  (420) 
0

>  <s_epik_input>  (420) 
TzFbQ0BASF0yW0NIMl1DKFtDSDNdKT1bQ0hdW0NAQEhdKFtDQF0xMjMpW0NAQF00KFtPSF0pQyhbQ0BASF0oW0NIM10pW0NASF0zW09IXSk9QyhbQ0gzXSlbQ0BASF01W0NAQF0oW0NIMl00KShbT0hdKVtDQEBdNihbT0hdKVtDQF03KFtDSDNdKVtDQEhdKE82KVtDQEBIXShbT0hdKVtDQEBIXShbQ0gzXSlbQ0BIXShbQ0gyXTUpQzc9Tw==

>  <s_epik_cmdline>  (420) 
J2VwaWtfcHl0aG9uJywgJy1waHQnLCAnMi4wJywgJy1waCcsICc3LjAnLCAnLXRuJywgJzgnLCAnLW1hJywgJzIwMCcsICctaW1hZScsICc8aW5maWxlLm1hZT4nLCAnLW9tYWUnLCAnPG91dGZpbGUubWFlPic=

>  <r_lp_tautomer_probability>  (420) 
1

>  <r_epik_Ionization_Penalty>  (420) 
2.36939e-05

>  <r_epik_Ionization_Penalty_Charging>  (420) 
0

>  <r_epik_Ionization_Penalty_Neutral>  (420) 
2.36939e-05

>  <r_epik_State_Penalty>  (420) 
-0

>  <r_epik_Charging_Adjusted_Penalty>  (420) 
0

>  <i_epik_Tot_Q>  (420) 
0

>  <i_epik_Tot_abs_Q>  (420) 
0

>  <s_lp_Force_Field>  (420) 
OPLS3e

>  <r_lp_Energy>  (420) 
63.7913

>  <b_lp_Chiralities_Consistent>  (420) 
1

>  <s_lp_Variant>  (420) 
119:0-1

>  <s_i_glide_gridfile>  (420) 
pfpi4k_grid

>  <i_i_glide_lignum>  (420) 
40

>  <i_i_glide_rotatable_bonds>  (420) 
5

>  <r_i_docking_score>  (420) 
-3.26362

>  <r_i_glide_ligand_efficiency>  (420) 
-0.0932462

>  <r_i_glide_ligand_efficiency_sa>  (420) 
-0.305015

>  <r_i_glide_ligand_efficiency_ln>  (420) 
-0.716437

>  <r_i_glide_gscore>  (420) 
-3.26362

>  <r_i_glide_lipo>  (420) 
-0.534746

>  <r_i_glide_hbond>  (420) 
-0.16

>  <r_i_glide_metal>  (420) 
-0

>  <r_i_glide_rewards>  (420) 
-0.162989

>  <r_i_glide_evdw>  (420) 
-27.1145

>  <r_i_glide_ecoul>  (420) 
-7.00107

>  <r_i_glide_erotb>  (420) 
0

>  <r_i_glide_esite>  (420) 
0

>  <r_i_glide_emodel>  (420) 
-41.2423

>  <r_i_glide_energy>  (420) 
-34.1155

>  <r_i_glide_einternal>  (420) 
0.859299

>  <r_i_glide_intrahb_reward>  (420) 
-0

>  <i_i_glide_confnum>  (420) 
1

>  <i_i_glide_posenum>  (420) 
31

>  <r_i_glide_eff_state_penalty>  (420) 
0

>  <ligand_id>  (420) 
119

>  <original_smiles>  (420) 
CC1=CC2C3(O)CC4(O)C(CC5C(=O)C6(C)C(OC46O)C(O)C5C)C(C)=C3C(C)C(O)C23OC3C1

>  <smiles>  (420) 
[H]OC1([H])C2([H])OC3(O[H])C4(O[H])C([H])([H])C5(O[H])C(=C(C([H])([H])[H])C4([H])C([H])([H])C([H])(C(=O)C23C([H])([H])[H])C1([H])C([H])([H])[H])C([H])(C([H])([H])[H])C([H])(O[H])C12OC1([H])C([H])([H])C(C([H])([H])[H])=C([H])C52[H]

$$$$
119:0:2
     RDKit          3D

 71 77  0  0  1  0  0  0  0  0999 V2000
   -1.4197   -7.1692    3.9854 C   0  0  0  0  0  0  0  0  0  0  0  0
   -0.0675   -7.8174    3.7639 C   0  0  0  0  0  0  0  0  0  0  0  0
    1.0730   -7.2822    4.2422 C   0  0  0  0  0  0  0  0  0  0  0  0
    2.4671   -7.8864    4.0871 C   0  0  2  0  0  0  0  0  0  0  0  0
    3.6297   -6.8394    3.9194 C   0  0  2  0  0  0  0  0  0  0  0  0
    3.9340   -6.4619    5.2524 O   0  0  0  0  0  0  0  0  0  0  0  0
    3.2086   -5.5480    3.1726 C   0  0  0  0  0  0  0  0  0  0  0  0
    4.3503   -4.5740    2.7524 C   0  0  1  0  0  0  0  0  0  0  0  0
    5.0312   -4.1304    3.9206 O   0  0  0  0  0  0  0  0  0  0  0  0
    5.4313   -5.3491    1.9261 C   0  0  2  0  0  0  0  0  0  0  0  0
    5.1785   -5.2791    0.3924 C   0  0  0  0  0  0  0  0  0  0  0  0
    5.6871   -3.9901   -0.3121 C   0  0  2  0  0  0  0  0  0  0  0  0
    5.8111   -2.7620    0.5994 C   0  0  0  0  0  0  0  0  0  0  0  0
    6.9205   -2.2478    0.7409 O   0  0  0  0  0  0  0  0  0  0  0  0
    4.5102   -2.2720    1.1870 C   0  0  1  0  0  0  0  0  0  0  0  0
    4.7019   -0.8416    1.7218 C   0  0  0  0  0  0  0  0  0  0  0  0
    3.3291   -2.4898    0.2264 C   0  0  2  0  0  0  0  0  0  0  0  0
    2.8714   -3.6344    0.9862 O   0  0  0  0  0  0  0  0  0  0  0  0
    3.7306   -3.2735    2.0952 C   0  0  1  0  0  0  0  0  0  0  0  0
    2.9808   -2.6235    3.1090 O   0  0  0  0  0  0  0  0  0  0  0  0
    3.5116   -2.9211   -1.2443 C   0  0  1  0  0  0  0  0  0  0  0  0
    3.2822   -1.7807   -2.0396 O   0  0  0  0  0  0  0  0  0  0  0  0
    4.8667   -3.6304   -1.5783 C   0  0  1  0  0  0  0  0  0  0  0  0
    5.7416   -2.9028   -2.6268 C   0  0  0  0  0  0  0  0  0  0  0  0
    5.6704   -6.8001    2.3840 C   0  0  0  0  0  0  0  0  0  0  0  0
    6.9057   -7.4391    1.7556 C   0  0  0  0  0  0  0  0  0  0  0  0
    4.8734   -7.4688    3.2647 C   0  0  0  0  0  0  0  0  0  0  0  0
    5.0509   -8.9639    3.5721 C   0  0  1  0  0  0  0  0  0  0  0  0
    5.4092   -9.2294    5.0546 C   0  0  0  0  0  0  0  0  0  0  0  0
    3.8319   -9.7624    3.0309 C   0  0  1  0  0  0  0  0  0  0  0  0
    3.7044  -11.0205    3.6662 O   0  0  0  0  0  0  0  0  0  0  0  0
    2.5114   -8.9905    3.0466 C   0  0  2  0  0  0  0  0  0  0  0  0
    2.0033   -8.6144    1.7578 O   0  0  0  0  0  0  0  0  0  0  0  0
    1.2466   -9.5880    2.4983 C   0  0  2  0  0  0  0  0  0  0  0  0
   -0.1043   -9.1441    3.0153 C   0  0  0  0  0  0  0  0  0  0  0  0
   -2.0936   -7.8658    4.4819 H   0  0  0  0  0  0  0  0  0  0  0  0
   -1.8630   -6.8962    3.0304 H   0  0  0  0  0  0  0  0  0  0  0  0
   -1.3361   -6.2737    4.6039 H   0  0  0  0  0  0  0  0  0  0  0  0
    1.0330   -6.3624    4.8063 H   0  0  0  0  0  0  0  0  0  0  0  0
    2.6037   -8.4088    5.0338 H   0  0  0  0  0  0  0  0  0  0  0  0
    4.2256   -7.2320    5.7184 H   0  0  0  0  0  0  0  0  0  0  0  0
    2.6909   -5.8580    2.2623 H   0  0  0  0  0  0  0  0  0  0  0  0
    2.4745   -5.0132    3.7710 H   0  0  0  0  0  0  0  0  0  0  0  0
    5.6935   -3.5098    3.6619 H   0  0  0  0  0  0  0  0  0  0  0  0
    6.3977   -4.8729    2.1118 H   0  0  0  0  0  0  0  0  0  0  0  0
    5.6660   -6.1134   -0.1097 H   0  0  0  0  0  0  0  0  0  0  0  0
    4.1235   -5.4595    0.1814 H   0  0  0  0  0  0  0  0  0  0  0  0
    6.7077   -4.2115   -0.6203 H   0  0  0  0  0  0  0  0  0  0  0  0
    3.7546   -0.3864    2.0042 H   0  0  0  0  0  0  0  0  0  0  0  0
    5.1451   -0.1798    0.9789 H   0  0  0  0  0  0  0  0  0  0  0  0
    5.3314   -0.8278    2.6097 H   0  0  0  0  0  0  0  0  0  0  0  0
    2.6067   -1.6838    0.3374 H   0  0  0  0  0  0  0  0  0  0  0  0
    2.4597   -1.9590    2.6906 H   0  0  0  0  0  0  0  0  0  0  0  0
    2.7153   -3.6197   -1.5009 H   0  0  0  0  0  0  0  0  0  0  0  0
    2.4206   -1.4455   -1.8080 H   0  0  0  0  0  0  0  0  0  0  0  0
    4.6136   -4.5812   -2.0512 H   0  0  0  0  0  0  0  0  0  0  0  0
    6.0633   -1.9173   -2.2911 H   0  0  0  0  0  0  0  0  0  0  0  0
    5.1985   -2.7798   -3.5633 H   0  0  0  0  0  0  0  0  0  0  0  0
    6.6368   -3.4804   -2.8634 H   0  0  0  0  0  0  0  0  0  0  0  0
    7.5759   -6.6903    1.3291 H   0  0  0  0  0  0  0  0  0  0  0  0
    6.6162   -8.1283    0.9632 H   0  0  0  0  0  0  0  0  0  0  0  0
    7.4890   -7.9852    2.4967 H   0  0  0  0  0  0  0  0  0  0  0  0
    5.9032   -9.3661    3.0259 H   0  0  0  0  0  0  0  0  0  0  0  0
    6.2621   -8.6197    5.3562 H   0  0  0  0  0  0  0  0  0  0  0  0
    5.6975  -10.2709    5.2099 H   0  0  0  0  0  0  0  0  0  0  0  0
    4.5896   -9.0250    5.7411 H   0  0  0  0  0  0  0  0  0  0  0  0
    4.0352   -9.9846    1.9828 H   0  0  0  0  0  0  0  0  0  0  0  0
    3.3462  -10.9044    4.5349 H   0  0  0  0  0  0  0  0  0  0  0  0
    1.2866  -10.5931    2.0908 H   0  0  0  0  0  0  0  0  0  0  0  0
   -0.4655   -9.9024    3.7140 H   0  0  0  0  0  0  0  0  0  0  0  0
   -0.8100   -9.1064    2.1864 H   0  0  0  0  0  0  0  0  0  0  0  0
  1  2  1  0
  1 36  1  0
  1 37  1  0
  1 38  1  0
  2 35  1  0
  2  3  2  0
  3  4  1  0
  3 39  1  0
  4 32  1  0
  4  5  1  0
  4 40  1  1
  5 27  1  0
  5  6  1  1
  5  7  1  0
  6 41  1  0
  7  8  1  0
  7 42  1  0
  7 43  1  0
  8 19  1  0
  8  9  1  1
  8 10  1  0
  9 44  1  0
 10 11  1  0
 10 25  1  0
 10 45  1  6
 11 12  1  0
 11 46  1  0
 11 47  1  0
 12 23  1  0
 12 13  1  0
 12 48  1  6
 13 14  2  0
 13 15  1  0
 15 19  1  0
 15 16  1  1
 15 17  1  0
 16 49  1  0
 16 50  1  0
 16 51  1  0
 17 18  1  0
 17 21  1  0
 17 52  1  6
 18 19  1  0
 19 20  1  1
 20 53  1  0
 21 22  1  0
 21 23  1  0
 21 54  1  6
 22 55  1  0
 23 24  1  0
 23 56  1  6
 24 57  1  0
 24 58  1  0
 24 59  1  0
 25 26  1  0
 25 27  2  0
 26 60  1  0
 26 61  1  0
 26 62  1  0
 27 28  1  0
 28 29  1  0
 28 30  1  0
 28 63  1  6
 29 64  1  0
 29 65  1  0
 29 66  1  0
 30 31  1  0
 30 32  1  0
 30 67  1  6
 31 68  1  0
 32 34  1  0
 32 33  1  6
 33 34  1  0
 34 35  1  0
 34 69  1  6
 35 70  1  0
 35 71  1  0
M  END
>  <i_m_ct_stereo_status>  (421) 
1

>  <s_m_source_file>  (421) 
/var/tmp/pbs.5076255.sched01/tmpo_pg7vmn/129owyy42_r.sdf

>  <i_m_source_file_index>  (421) 
40

>  <i_lp_mmshare_version>  (421) 
48012

>  <i_f3d_flags>  (421) 
0

>  <s_epik_input>  (421) 
TzFbQ0BASF0yW0NIMl1DKFtDSDNdKT1bQ0hdW0NAQEhdKFtDQF0xMjMpW0NAQF00KFtPSF0pQyhbQ0BASF0oW0NIM10pW0NASF0zW09IXSk9QyhbQ0gzXSlbQ0BASF01W0NAQF0oW0NIMl00KShbT0hdKVtDQEBdNihbT0hdKVtDQF03KFtDSDNdKVtDQEhdKE82KVtDQEBIXShbT0hdKVtDQEBIXShbQ0gzXSlbQ0BIXShbQ0gyXTUpQzc9Tw==

>  <s_epik_cmdline>  (421) 
J2VwaWtfcHl0aG9uJywgJy1waHQnLCAnMi4wJywgJy1waCcsICc3LjAnLCAnLXRuJywgJzgnLCAnLW1hJywgJzIwMCcsICctaW1hZScsICc8aW5maWxlLm1hZT4nLCAnLW9tYWUnLCAnPG91dGZpbGUubWFlPic=

>  <r_lp_tautomer_probability>  (421) 
1

>  <r_epik_Ionization_Penalty>  (421) 
2.36939e-05

>  <r_epik_Ionization_Penalty_Charging>  (421) 
0

>  <r_epik_Ionization_Penalty_Neutral>  (421) 
2.36939e-05

>  <r_epik_State_Penalty>  (421) 
-0

>  <r_epik_Charging_Adjusted_Penalty>  (421) 
0

>  <i_epik_Tot_Q>  (421) 
0

>  <i_epik_Tot_abs_Q>  (421) 
0

>  <s_lp_Force_Field>  (421) 
OPLS3e

>  <r_lp_Energy>  (421) 
63.7913

>  <b_lp_Chiralities_Consistent>  (421) 
1

>  <s_lp_Variant>  (421) 
119:0-1

>  <s_i_glide_gridfile>  (421) 
pfpi4k_grid

>  <i_i_glide_lignum>  (421) 
40

>  <i_i_glide_rotatable_bonds>  (421) 
5

>  <r_i_docking_score>  (421) 
-3.02756

>  <r_i_glide_ligand_efficiency>  (421) 
-0.0865016

>  <r_i_glide_ligand_efficiency_sa>  (421) 
-0.282952

>  <r_i_glide_ligand_efficiency_ln>  (421) 
-0.664616

>  <r_i_glide_gscore>  (421) 
-3.02756

>  <r_i_glide_lipo>  (421) 
-0.647587

>  <r_i_glide_hbond>  (421) 
-0.16

>  <r_i_glide_metal>  (421) 
-0

>  <r_i_glide_rewards>  (421) 
-0.164557

>  <r_i_glide_evdw>  (421) 
-29.0338

>  <r_i_glide_ecoul>  (421) 
-4.02481

>  <r_i_glide_erotb>  (421) 
0

>  <r_i_glide_esite>  (421) 
0

>  <r_i_glide_emodel>  (421) 
-39.7929

>  <r_i_glide_energy>  (421) 
-33.0586

>  <r_i_glide_einternal>  (421) 
0.397304

>  <r_i_glide_intrahb_reward>  (421) 
-0

>  <i_i_glide_confnum>  (421) 
2

>  <i_i_glide_posenum>  (421) 
8

>  <r_i_glide_eff_state_penalty>  (421) 
0

>  <ligand_id>  (421) 
119

>  <original_smiles>  (421) 
CC1=CC2C3(O)CC4(O)C(CC5C(=O)C6(C)C(OC46O)C(O)C5C)C(C)=C3C(C)C(O)C23OC3C1

>  <smiles>  (421) 
[H]OC1([H])C2([H])OC3(O[H])C4(O[H])C([H])([H])C5(O[H])C(=C(C([H])([H])[H])C4([H])C([H])([H])C([H])(C(=O)C23C([H])([H])[H])C1([H])C([H])([H])[H])C([H])(C([H])([H])[H])C([H])(O[H])C12OC1([H])C([H])([H])C(C([H])([H])[H])=C([H])C52[H]

$$$$
