0:0:0
     RDKit          3D

 48 52  0  0  1  0  0  0  0  0999 V2000
    1.1581  -10.0304    2.4822 C   0  0  0  0  0  0  0  0  0  0  0  0
    1.3701   -8.8683    3.4560 C   0  0  0  0  0  0  0  0  0  0  0  0
    0.4791   -9.0873    4.6884 C   0  0  0  0  0  0  0  0  0  0  0  0
    2.8511   -8.8243    3.8954 C   0  0  0  0  0  0  0  0  0  0  0  0
    3.6538   -8.3564    2.8105 O   0  0  0  0  0  0  0  0  0  0  0  0
    3.2545   -7.1328    2.2444 C   0  0  0  0  0  0  0  0  0  0  0  0
    4.1683   -6.8601    1.0178 C   0  0  0  0  0  0  0  0  0  0  0  0
    5.6580   -6.7433    1.4045 C   0  0  0  0  0  0  0  0  0  0  0  0
    5.9225   -5.9086    2.6650 C   0  0  2  0  0  0  0  0  0  0  0  0
    4.8031   -5.7368    3.7111 C   0  0  1  0  0  0  0  0  0  0  0  0
    5.1987   -4.2732    3.8869 C   0  0  0  0  0  0  0  0  0  0  0  0
    5.8308   -4.4636    2.6093 N   0  0  0  0  0  0  0  0  0  0  0  0
    6.0138   -3.5406    1.5230 C   0  0  0  0  0  0  0  0  0  0  0  0
    6.8159   -3.9216    0.5095 N   0  0  0  0  0  0  0  0  0  0  0  0
    7.0338   -3.0887   -0.5190 C   0  0  0  0  0  0  0  0  0  0  0  0
    6.5750   -1.8504   -0.7226 N   0  0  0  0  0  0  0  0  0  0  0  0
    5.7584   -1.4855    0.3176 C   0  0  0  0  0  0  0  0  0  0  0  0
    5.1139   -0.2768    0.4329 N   0  0  0  0  0  0  0  0  0  0  0  0
    4.3807   -0.2602    1.6109 C   0  0  0  0  0  0  0  0  0  0  0  0
    4.5669   -1.4365    2.2764 C   0  0  0  0  0  0  0  0  0  0  0  0
    5.4406   -2.2592    1.4646 C   0  0  0  0  0  0  0  0  0  0  0  0
    3.3726   -5.9813    3.2710 C   0  0  0  0  0  0  0  0  0  0  0  0
    1.9368   -7.1877    1.7710 O   0  0  0  0  0  0  0  0  0  0  0  0
    0.9683   -7.5458    2.7453 C   0  0  0  0  0  0  0  0  0  0  0  0
    5.1292    0.4778   -0.2349 H   0  0  0  0  0  0  0  0  0  0  0  0
    1.4461  -10.9862    2.9219 H   0  0  0  0  0  0  0  0  0  0  0  0
    1.7510   -9.8827    1.5814 H   0  0  0  0  0  0  0  0  0  0  0  0
    0.1141  -10.0985    2.1752 H   0  0  0  0  0  0  0  0  0  0  0  0
    0.5756   -8.2750    5.4060 H   0  0  0  0  0  0  0  0  0  0  0  0
    0.7444  -10.0080    5.1997 H   0  0  0  0  0  0  0  0  0  0  0  0
   -0.5702   -9.1605    4.4122 H   0  0  0  0  0  0  0  0  0  0  0  0
    2.9984   -8.1900    4.7686 H   0  0  0  0  0  0  0  0  0  0  0  0
    3.2024   -9.8118    4.2114 H   0  0  0  0  0  0  0  0  0  0  0  0
    4.0491   -7.6460    0.2645 H   0  0  0  0  0  0  0  0  0  0  0  0
    3.8363   -5.9299    0.5581 H   0  0  0  0  0  0  0  0  0  0  0  0
    6.0269   -7.7468    1.5824 H   0  0  0  0  0  0  0  0  0  0  0  0
    6.2418   -6.3801    0.5571 H   0  0  0  0  0  0  0  0  0  0  0  0
    6.8608   -6.1857    3.1532 H   0  0  0  0  0  0  0  0  0  0  0  0
    5.0318   -6.3213    4.5947 H   0  0  0  0  0  0  0  0  0  0  0  0
    4.3327   -3.6109    3.9418 H   0  0  0  0  0  0  0  0  0  0  0  0
    5.9184   -4.1249    4.6934 H   0  0  0  0  0  0  0  0  0  0  0  0
    7.6670   -3.4753   -1.3125 H   0  0  0  0  0  0  0  0  0  0  0  0
    3.7842    0.6033    1.8795 H   0  0  0  0  0  0  0  0  0  0  0  0
    4.1362   -1.6961    3.2243 H   0  0  0  0  0  0  0  0  0  0  0  0
    2.9558   -5.0952    2.7789 H   0  0  0  0  0  0  0  0  0  0  0  0
    2.7675   -6.1501    4.1681 H   0  0  0  0  0  0  0  0  0  0  0  0
   -0.0139   -7.6419    2.2644 H   0  0  0  0  0  0  0  0  0  0  0  0
    0.8497   -6.7302    3.4581 H   0  0  0  0  0  0  0  0  0  0  0  0
  1  2  1  0
  1 26  1  0
  1 27  1  0
  1 28  1  0
  2 24  1  0
  2  3  1  0
  2  4  1  0
  3 29  1  0
  3 30  1  0
  3 31  1  0
  4  5  1  0
  4 32  1  0
  4 33  1  0
  5  6  1  0
  6 22  1  0
  6  7  1  0
  6 23  1  0
  7  8  1  0
  7 34  1  0
  7 35  1  0
  8  9  1  0
  8 36  1  0
  8 37  1  0
  9 12  1  0
  9 10  1  0
  9 38  1  1
 10 11  1  0
 10 22  1  0
 10 39  1  1
 11 12  1  0
 11 40  1  0
 11 41  1  0
 12 13  1  0
 13 21  1  0
 13 14  2  0
 14 15  1  0
 15 16  2  0
 15 42  1  0
 16 17  1  0
 17 21  2  0
 17 18  1  0
 18 25  1  0
 18 19  1  0
 19 20  2  0
 19 43  1  0
 20 21  1  0
 20 44  1  0
 22 45  1  0
 22 46  1  0
 23 24  1  0
 24 47  1  0
 24 48  1  0
M  END
>  <i_m_ct_stereo_status>  (1) 
1

>  <s_m_source_file>  (1) 
/var/tmp/pbs.5076255.sched01/tmp6mrmgolx/06cp14zw5.sdf

>  <i_m_source_file_index>  (1) 
1

>  <i_lp_mmshare_version>  (1) 
48012

>  <i_f3d_flags>  (1) 
0

>  <s_epik_input>  (1) 
TzFbQ0gyXUMoW0NIM10pKFtDSDNdKVtDSDJdT0MxMltDSDJdW0NIMl1bQ0BASF0zW0NASF0oW0NIMl0yKVtDSDJdTjNjKG5bY0hdbjQpYyhjNDUpW2NIXVtjSF1bbkhdNQ==

>  <s_epik_cmdline>  (1) 
J2VwaWtfcHl0aG9uJywgJy1waHQnLCAnMi4wJywgJy1waCcsICc3LjAnLCAnLXRuJywgJzgnLCAnLW1hJywgJzIwMCcsICctaW1hZScsICc8aW5maWxlLm1hZT4nLCAnLW9tYWUnLCAnPG91dGZpbGUubWFlPic=

>  <r_lp_tautomer_probability>  (1) 
0.999998

>  <r_epik_Ionization_Penalty>  (1) 
0.0271888

>  <r_epik_Ionization_Penalty_Charging>  (1) 
0

>  <r_epik_Ionization_Penalty_Neutral>  (1) 
0.0271888

>  <r_epik_State_Penalty>  (1) 
0.0207336

>  <r_epik_Charging_Adjusted_Penalty>  (1) 
0.0207336

>  <i_epik_Tot_Q>  (1) 
0

>  <i_epik_Tot_abs_Q>  (1) 
0

>  <s_lp_Force_Field>  (1) 
OPLS3e

>  <r_lp_Energy>  (1) 
41.6056

>  <b_lp_Chiralities_Consistent>  (1) 
1

>  <s_lp_Variant>  (1) 
0:0-1

>  <s_i_glide_gridfile>  (1) 
pfpi4k_grid

>  <i_i_glide_lignum>  (1) 
1

>  <i_i_glide_rotatable_bonds>  (1) 
1

>  <r_i_docking_score>  (1) 
-4.54962

>  <r_i_glide_ligand_efficiency>  (1) 
-0.189567

>  <r_i_glide_ligand_efficiency_sa>  (1) 
-0.546807

>  <r_i_glide_ligand_efficiency_ln>  (1) 
-1.08893

>  <r_i_glide_gscore>  (1) 
-4.54962

>  <r_i_glide_lipo>  (1) 
-0.679434

>  <r_i_glide_hbond>  (1) 
-0.478146

>  <r_i_glide_metal>  (1) 
-0

>  <r_i_glide_rewards>  (1) 
-1.41838

>  <r_i_glide_evdw>  (1) 
-23.1408

>  <r_i_glide_ecoul>  (1) 
-6.60502

>  <r_i_glide_erotb>  (1) 
0.174138

>  <r_i_glide_esite>  (1) 
0

>  <r_i_glide_emodel>  (1) 
-37.4509

>  <r_i_glide_energy>  (1) 
-29.7458

>  <r_i_glide_einternal>  (1) 
0.0514368

>  <r_i_glide_intrahb_reward>  (1) 
-0

>  <i_i_glide_confnum>  (1) 
1

>  <i_i_glide_posenum>  (1) 
37

>  <r_i_glide_eff_state_penalty>  (1) 
0

>  <ligand_id>  (1) 
0

>  <original_smiles>  (1) 
CC1(C)COC2(CCC3C(CN3c3ncnc4[nH]ccc34)C2)OC1

>  <smiles>  (1) 
[H]c1nc(N2C([H])([H])C3([H])C([H])([H])C4(OC([H])([H])C(C([H])([H])[H])(C([H])([H])[H])C([H])([H])O4)C([H])([H])C([H])([H])C23[H])c2c([H])c([H])n([H])c2n1

$$$$
0:0:1
     RDKit          3D

 48 52  0  0  1  0  0  0  0  0999 V2000
   -0.6156   -8.4592    2.6497 C   0  0  0  0  0  0  0  0  0  0  0  0
    0.3993   -7.8789    3.6491 C   0  0  0  0  0  0  0  0  0  0  0  0
    0.0084   -8.2981    5.0696 C   0  0  0  0  0  0  0  0  0  0  0  0
    1.8146   -8.4063    3.3327 C   0  0  0  0  0  0  0  0  0  0  0  0
    2.3022   -7.7584    2.1540 O   0  0  0  0  0  0  0  0  0  0  0  0
    2.2809   -6.3505    2.1529 C   0  0  0  0  0  0  0  0  0  0  0  0
    2.7238   -5.8762    0.7367 C   0  0  0  0  0  0  0  0  0  0  0  0
    4.1728   -6.3089    0.3657 C   0  0  0  0  0  0  0  0  0  0  0  0
    5.1992   -6.1597    1.4986 C   0  0  2  0  0  0  0  0  0  0  0  0
    4.6979   -6.0954    2.9500 C   0  0  1  0  0  0  0  0  0  0  0  0
    5.6872   -4.9795    3.2359 C   0  0  0  0  0  0  0  0  0  0  0  0
    5.8648   -4.8890    1.7955 N   0  0  0  0  0  0  0  0  0  0  0  0
    5.7930   -3.7220    1.0143 C   0  0  0  0  0  0  0  0  0  0  0  0
    6.4069   -3.8666   -0.1865 N   0  0  0  0  0  0  0  0  0  0  0  0
    6.5705   -2.8125   -0.9789 C   0  0  0  0  0  0  0  0  0  0  0  0
    6.2110   -1.5397   -0.7842 N   0  0  0  0  0  0  0  0  0  0  0  0
    5.5451   -1.4157    0.3935 C   0  0  0  0  0  0  0  0  0  0  0  0
    5.0238   -0.2473    0.8791 N   0  0  0  0  0  0  0  0  0  0  0  0
    4.4502   -0.4779    2.1216 C   0  0  0  0  0  0  0  0  0  0  0  0
    4.6038   -1.8071    2.4492 C   0  0  0  0  0  0  0  0  0  0  0  0
    5.2982   -2.4430    1.3494 C   0  0  0  0  0  0  0  0  0  0  0  0
    3.2348   -5.7590    3.2221 C   0  0  0  0  0  0  0  0  0  0  0  0
    0.9813   -5.8658    2.3635 O   0  0  0  0  0  0  0  0  0  0  0  0
    0.3673   -6.3236    3.5621 C   0  0  0  0  0  0  0  0  0  0  0  0
    5.0181    0.6293    0.3608 H   0  0  0  0  0  0  0  0  0  0  0  0
   -0.6224   -9.5459    2.6665 H   0  0  0  0  0  0  0  0  0  0  0  0
   -0.3835   -8.1544    1.6287 H   0  0  0  0  0  0  0  0  0  0  0  0
   -1.6327   -8.1256    2.8618 H   0  0  0  0  0  0  0  0  0  0  0  0
    0.6744   -7.8805    5.8136 H   0  0  0  0  0  0  0  0  0  0  0  0
    0.0269   -9.3681    5.1994 H   0  0  0  0  0  0  0  0  0  0  0  0
   -0.9874   -7.9670    5.3175 H   0  0  0  0  0  0  0  0  0  0  0  0
    2.5073   -8.2236    4.1598 H   0  0  0  0  0  0  0  0  0  0  0  0
    1.7955   -9.4911    3.1637 H   0  0  0  0  0  0  0  0  0  0  0  0
    2.0135   -6.2407   -0.0150 H   0  0  0  0  0  0  0  0  0  0  0  0
    2.6499   -4.7902    0.7048 H   0  0  0  0  0  0  0  0  0  0  0  0
    4.1252   -7.3637    0.1106 H   0  0  0  0  0  0  0  0  0  0  0  0
    4.5119   -5.8152   -0.5506 H   0  0  0  0  0  0  0  0  0  0  0  0
    6.0038   -6.8830    1.3902 H   0  0  0  0  0  0  0  0  0  0  0  0
    4.9613   -7.0158    3.4563 H   0  0  0  0  0  0  0  0  0  0  0  0
    5.2475   -4.1474    3.7832 H   0  0  0  0  0  0  0  0  0  0  0  0
    6.6096   -5.3464    3.6607 H   0  0  0  0  0  0  0  0  0  0  0  0
    7.1276   -3.0092   -1.8825 H   0  0  0  0  0  0  0  0  0  0  0  0
    3.9461    0.3141    2.6547 H   0  0  0  0  0  0  0  0  0  0  0  0
    4.2618   -2.3009    3.3389 H   0  0  0  0  0  0  0  0  0  0  0  0
    3.0997   -4.6644    3.1506 H   0  0  0  0  0  0  0  0  0  0  0  0
    2.9448   -6.1055    4.2342 H   0  0  0  0  0  0  0  0  0  0  0  0
   -0.6789   -5.9781    3.5778 H   0  0  0  0  0  0  0  0  0  0  0  0
    0.8708   -5.8497    4.4139 H   0  0  0  0  0  0  0  0  0  0  0  0
  1  2  1  0
  1 26  1  0
  1 27  1  0
  1 28  1  0
  2 24  1  0
  2  3  1  0
  2  4  1  0
  3 29  1  0
  3 30  1  0
  3 31  1  0
  4  5  1  0
  4 32  1  0
  4 33  1  0
  5  6  1  0
  6 22  1  0
  6  7  1  0
  6 23  1  0
  7  8  1  0
  7 34  1  0
  7 35  1  0
  8  9  1  0
  8 36  1  0
  8 37  1  0
  9 12  1  0
  9 10  1  0
  9 38  1  1
 10 11  1  0
 10 22  1  0
 10 39  1  1
 11 12  1  0
 11 40  1  0
 11 41  1  0
 12 13  1  0
 13 21  1  0
 13 14  2  0
 14 15  1  0
 15 16  2  0
 15 42  1  0
 16 17  1  0
 17 21  2  0
 17 18  1  0
 18 25  1  0
 18 19  1  0
 19 20  2  0
 19 43  1  0
 20 21  1  0
 20 44  1  0
 22 45  1  0
 22 46  1  0
 23 24  1  0
 24 47  1  0
 24 48  1  0
M  END
>  <i_m_ct_stereo_status>  (2) 
1

>  <s_m_source_file>  (2) 
/var/tmp/pbs.5076255.sched01/tmp6mrmgolx/06cp14zw5.sdf

>  <i_m_source_file_index>  (2) 
1

>  <i_lp_mmshare_version>  (2) 
48012

>  <i_f3d_flags>  (2) 
0

>  <s_epik_input>  (2) 
TzFbQ0gyXUMoW0NIM10pKFtDSDNdKVtDSDJdT0MxMltDSDJdW0NIMl1bQ0BASF0zW0NASF0oW0NIMl0yKVtDSDJdTjNjKG5bY0hdbjQpYyhjNDUpW2NIXVtjSF1bbkhdNQ==

>  <s_epik_cmdline>  (2) 
J2VwaWtfcHl0aG9uJywgJy1waHQnLCAnMi4wJywgJy1waCcsICc3LjAnLCAnLXRuJywgJzgnLCAnLW1hJywgJzIwMCcsICctaW1hZScsICc8aW5maWxlLm1hZT4nLCAnLW9tYWUnLCAnPG91dGZpbGUubWFlPic=

>  <r_lp_tautomer_probability>  (2) 
0.999998

>  <r_epik_Ionization_Penalty>  (2) 
0.0271888

>  <r_epik_Ionization_Penalty_Charging>  (2) 
0

>  <r_epik_Ionization_Penalty_Neutral>  (2) 
0.0271888

>  <r_epik_State_Penalty>  (2) 
0.0207336

>  <r_epik_Charging_Adjusted_Penalty>  (2) 
0.0207336

>  <i_epik_Tot_Q>  (2) 
0

>  <i_epik_Tot_abs_Q>  (2) 
0

>  <s_lp_Force_Field>  (2) 
OPLS3e

>  <r_lp_Energy>  (2) 
41.6056

>  <b_lp_Chiralities_Consistent>  (2) 
1

>  <s_lp_Variant>  (2) 
0:0-1

>  <s_i_glide_gridfile>  (2) 
pfpi4k_grid

>  <i_i_glide_lignum>  (2) 
1

>  <i_i_glide_rotatable_bonds>  (2) 
1

>  <r_i_docking_score>  (2) 
-4.14817

>  <r_i_glide_ligand_efficiency>  (2) 
-0.17284

>  <r_i_glide_ligand_efficiency_sa>  (2) 
-0.498558

>  <r_i_glide_ligand_efficiency_ln>  (2) 
-0.992847

>  <r_i_glide_gscore>  (2) 
-4.14817

>  <r_i_glide_lipo>  (2) 
-0.474191

>  <r_i_glide_hbond>  (2) 
-0.455219

>  <r_i_glide_metal>  (2) 
-0

>  <r_i_glide_rewards>  (2) 
-1.34999

>  <r_i_glide_evdw>  (2) 
-25.2331

>  <r_i_glide_ecoul>  (2) 
-5.08735

>  <r_i_glide_erotb>  (2) 
0.174138

>  <r_i_glide_esite>  (2) 
-0.0181466

>  <r_i_glide_emodel>  (2) 
-37.4739

>  <r_i_glide_energy>  (2) 
-30.3204

>  <r_i_glide_einternal>  (2) 
2.04814

>  <r_i_glide_intrahb_reward>  (2) 
-0

>  <i_i_glide_confnum>  (2) 
1

>  <i_i_glide_posenum>  (2) 
34

>  <r_i_glide_eff_state_penalty>  (2) 
0

>  <ligand_id>  (2) 
0

>  <original_smiles>  (2) 
CC1(C)COC2(CCC3C(CN3c3ncnc4[nH]ccc34)C2)OC1

>  <smiles>  (2) 
[H]c1nc(N2C([H])([H])C3([H])C([H])([H])C4(OC([H])([H])C(C([H])([H])[H])(C([H])([H])[H])C([H])([H])O4)C([H])([H])C([H])([H])C23[H])c2c([H])c([H])n([H])c2n1

$$$$
0:0:2
     RDKit          3D

 48 52  0  0  1  0  0  0  0  0999 V2000
    4.8019   -0.5102    0.5344 C   0  0  0  0  0  0  0  0  0  0  0  0
    4.9323   -1.9333   -0.0241 C   0  0  0  0  0  0  0  0  0  0  0  0
    5.6091   -1.8722   -1.4004 C   0  0  0  0  0  0  0  0  0  0  0  0
    5.8036   -2.7607    0.9497 C   0  0  0  0  0  0  0  0  0  0  0  0
    5.6937   -4.1412    0.6182 O   0  0  0  0  0  0  0  0  0  0  0  0
    4.3858   -4.6344    0.5572 C   0  0  0  0  0  0  0  0  0  0  0  0
    3.6689   -4.5423    1.9353 C   0  0  0  0  0  0  0  0  0  0  0  0
    4.4682   -5.2470    3.0254 C   0  0  0  0  0  0  0  0  0  0  0  0
    4.8837   -6.6669    2.6570 C   0  0  2  0  0  0  0  0  0  0  0  0
    5.0843   -7.0469    1.1683 C   0  0  1  0  0  0  0  0  0  0  0  0
    4.3953   -8.4023    1.4767 C   0  0  0  0  0  0  0  0  0  0  0  0
    3.9087   -7.7433    2.6683 N   0  0  0  0  0  0  0  0  0  0  0  0
    2.6324   -7.8667    3.3104 C   0  0  0  0  0  0  0  0  0  0  0  0
    2.0420   -6.7922    3.8923 N   0  0  0  0  0  0  0  0  0  0  0  0
    0.8879   -6.9104    4.5388 C   0  0  0  0  0  0  0  0  0  0  0  0
    0.1355   -7.9897    4.7196 N   0  0  0  0  0  0  0  0  0  0  0  0
    0.7041   -9.0738    4.1359 C   0  0  0  0  0  0  0  0  0  0  0  0
    0.2153  -10.3559    4.1221 N   0  0  0  0  0  0  0  0  0  0  0  0
    1.0822  -11.1859    3.4515 C   0  0  0  0  0  0  0  0  0  0  0  0
    2.1474  -10.4567    2.9973 C   0  0  0  0  0  0  0  0  0  0  0  0
    1.9305   -9.1084    3.4204 C   0  0  0  0  0  0  0  0  0  0  0  0
    4.4704   -6.1166    0.1040 C   0  0  0  0  0  0  0  0  0  0  0  0
    3.6409   -3.9559   -0.4025 O   0  0  0  0  0  0  0  0  0  0  0  0
    3.5247   -2.5530   -0.1904 C   0  0  0  0  0  0  0  0  0  0  0  0
   -0.6968  -10.6375    4.5527 H   0  0  0  0  0  0  0  0  0  0  0  0
    5.7741   -0.0373    0.6627 H   0  0  0  0  0  0  0  0  0  0  0  0
    4.3083   -0.4979    1.5041 H   0  0  0  0  0  0  0  0  0  0  0  0
    4.2156    0.1236   -0.1260 H   0  0  0  0  0  0  0  0  0  0  0  0
    5.6870   -2.8651   -1.8451 H   0  0  0  0  0  0  0  0  0  0  0  0
    6.6146   -1.4628   -1.3244 H   0  0  0  0  0  0  0  0  0  0  0  0
    5.0361   -1.2472   -2.0885 H   0  0  0  0  0  0  0  0  0  0  0  0
    6.8546   -2.4493    0.9292 H   0  0  0  0  0  0  0  0  0  0  0  0
    5.5041   -2.6044    1.9856 H   0  0  0  0  0  0  0  0  0  0  0  0
    3.5508   -3.5194    2.2792 H   0  0  0  0  0  0  0  0  0  0  0  0
    2.6713   -4.9648    1.8072 H   0  0  0  0  0  0  0  0  0  0  0  0
    5.3695   -4.6679    3.2157 H   0  0  0  0  0  0  0  0  0  0  0  0
    3.9249   -5.2000    3.9657 H   0  0  0  0  0  0  0  0  0  0  0  0
    5.7348   -6.9977    3.2594 H   0  0  0  0  0  0  0  0  0  0  0  0
    6.1518   -7.1935    0.9770 H   0  0  0  0  0  0  0  0  0  0  0  0
    3.6516   -8.7308    0.7496 H   0  0  0  0  0  0  0  0  0  0  0  0
    5.1003   -9.1845    1.7676 H   0  0  0  0  0  0  0  0  0  0  0  0
    0.4927   -6.0029    4.9660 H   0  0  0  0  0  0  0  0  0  0  0  0
    0.8800  -12.2389    3.3304 H   0  0  0  0  0  0  0  0  0  0  0  0
    2.9981  -10.8169    2.4304 H   0  0  0  0  0  0  0  0  0  0  0  0
    3.4454   -6.4331   -0.0934 H   0  0  0  0  0  0  0  0  0  0  0  0
    4.9994   -6.2042   -0.8555 H   0  0  0  0  0  0  0  0  0  0  0  0
    2.8898   -2.3580    0.6703 H   0  0  0  0  0  0  0  0  0  0  0  0
    2.9961   -2.0946   -1.0307 H   0  0  0  0  0  0  0  0  0  0  0  0
  1  2  1  0
  1 26  1  0
  1 27  1  0
  1 28  1  0
  2 24  1  0
  2  3  1  0
  2  4  1  0
  3 29  1  0
  3 30  1  0
  3 31  1  0
  4  5  1  0
  4 32  1  0
  4 33  1  0
  5  6  1  0
  6 22  1  0
  6  7  1  0
  6 23  1  0
  7  8  1  0
  7 34  1  0
  7 35  1  0
  8  9  1  0
  8 36  1  0
  8 37  1  0
  9 12  1  0
  9 10  1  0
  9 38  1  1
 10 11  1  0
 10 22  1  0
 10 39  1  6
 11 12  1  0
 11 40  1  0
 11 41  1  0
 12 13  1  0
 13 21  1  0
 13 14  2  0
 14 15  1  0
 15 16  2  0
 15 42  1  0
 16 17  1  0
 17 21  2  0
 17 18  1  0
 18 25  1  0
 18 19  1  0
 19 20  2  0
 19 43  1  0
 20 21  1  0
 20 44  1  0
 22 45  1  0
 22 46  1  0
 23 24  1  0
 24 47  1  0
 24 48  1  0
M  END
>  <i_m_ct_stereo_status>  (3) 
1

>  <s_m_source_file>  (3) 
/var/tmp/pbs.5076255.sched01/tmp6mrmgolx/06cp14zw5.sdf

>  <i_m_source_file_index>  (3) 
1

>  <i_lp_mmshare_version>  (3) 
48012

>  <i_f3d_flags>  (3) 
0

>  <s_epik_input>  (3) 
TzFbQ0gyXUMoW0NIM10pKFtDSDNdKVtDSDJdT0MxMltDSDJdW0NIMl1bQ0BASF0zW0NASF0oW0NIMl0yKVtDSDJdTjNjKG5bY0hdbjQpYyhjNDUpW2NIXVtjSF1bbkhdNQ==

>  <s_epik_cmdline>  (3) 
J2VwaWtfcHl0aG9uJywgJy1waHQnLCAnMi4wJywgJy1waCcsICc3LjAnLCAnLXRuJywgJzgnLCAnLW1hJywgJzIwMCcsICctaW1hZScsICc8aW5maWxlLm1hZT4nLCAnLW9tYWUnLCAnPG91dGZpbGUubWFlPic=

>  <r_lp_tautomer_probability>  (3) 
0.999998

>  <r_epik_Ionization_Penalty>  (3) 
0.0271888

>  <r_epik_Ionization_Penalty_Charging>  (3) 
0

>  <r_epik_Ionization_Penalty_Neutral>  (3) 
0.0271888

>  <r_epik_State_Penalty>  (3) 
0.0207336

>  <r_epik_Charging_Adjusted_Penalty>  (3) 
0.0207336

>  <i_epik_Tot_Q>  (3) 
0

>  <i_epik_Tot_abs_Q>  (3) 
0

>  <s_lp_Force_Field>  (3) 
OPLS3e

>  <r_lp_Energy>  (3) 
41.6056

>  <b_lp_Chiralities_Consistent>  (3) 
1

>  <s_lp_Variant>  (3) 
0:0-1

>  <s_i_glide_gridfile>  (3) 
pfpi4k_grid

>  <i_i_glide_lignum>  (3) 
1

>  <i_i_glide_rotatable_bonds>  (3) 
1

>  <r_i_docking_score>  (3) 
-3.90229

>  <r_i_glide_ligand_efficiency>  (3) 
-0.162596

>  <r_i_glide_ligand_efficiency_sa>  (3) 
-0.469007

>  <r_i_glide_ligand_efficiency_ln>  (3) 
-0.933998

>  <r_i_glide_gscore>  (3) 
-3.90229

>  <r_i_glide_lipo>  (3) 
-0.662594

>  <r_i_glide_hbond>  (3) 
-0.16

>  <r_i_glide_metal>  (3) 
-0

>  <r_i_glide_rewards>  (3) 
-1.22299

>  <r_i_glide_evdw>  (3) 
-25.4432

>  <r_i_glide_ecoul>  (3) 
-4.24319

>  <r_i_glide_erotb>  (3) 
0.174138

>  <r_i_glide_esite>  (3) 
-0.12221

>  <r_i_glide_emodel>  (3) 
-34.4462

>  <r_i_glide_energy>  (3) 
-29.6864

>  <r_i_glide_einternal>  (3) 
1.27068

>  <r_i_glide_intrahb_reward>  (3) 
-0

>  <i_i_glide_confnum>  (3) 
2

>  <i_i_glide_posenum>  (3) 
2

>  <r_i_glide_eff_state_penalty>  (3) 
0

>  <ligand_id>  (3) 
0

>  <original_smiles>  (3) 
CC1(C)COC2(CCC3C(CN3c3ncnc4[nH]ccc34)C2)OC1

>  <smiles>  (3) 
[H]c1nc(N2C([H])([H])C3([H])C([H])([H])C4(OC([H])([H])C(C([H])([H])[H])(C([H])([H])[H])C([H])([H])O4)C([H])([H])C([H])([H])C23[H])c2c([H])c([H])n([H])c2n1

$$$$
0:1:0
     RDKit          3D

 49 53  0  0  1  0  0  0  0  0999 V2000
    4.0041   -1.9369    0.6056 C   0  0  0  0  0  0  0  0  0  0  0  0
    4.0084   -3.2531   -0.1829 C   0  0  0  0  0  0  0  0  0  0  0  0
    4.0586   -2.9350   -1.6903 C   0  0  0  0  0  0  0  0  0  0  0  0
    5.2480   -4.0945    0.1935 C   0  0  0  0  0  0  0  0  0  0  0  0
    5.0662   -4.6309    1.5083 O   0  0  0  0  0  0  0  0  0  0  0  0
    3.8760   -5.3553    1.7188 C   0  0  0  0  0  0  0  0  0  0  0  0
    3.8146   -5.7290    3.2289 C   0  0  0  0  0  0  0  0  0  0  0  0
    4.9853   -6.6401    3.6729 C   0  0  0  0  0  0  0  0  0  0  0  0
    5.3372   -7.7576    2.6734 C   0  0  2  0  0  0  0  0  0  0  0  0
    4.9159   -7.6162    1.2052 C   0  0  1  0  0  0  0  0  0  0  0  0
    4.5113   -9.0841    1.1848 C   0  0  0  0  0  0  0  0  0  0  0  0
    4.5909   -9.0099    2.6274 N   0  0  0  0  0  0  0  0  0  0  0  0
    3.6429   -9.4986    3.5973 C   0  0  0  0  0  0  0  0  0  0  0  0
    4.2161   -9.8814    4.7392 N   0  0  0  0  0  0  0  0  0  0  0  0
    3.5318  -10.4788    5.7236 C   0  0  0  0  0  0  0  0  0  0  0  0
    2.2174  -10.6860    5.6601 N   0  0  0  0  0  0  0  0  0  0  0  0
    1.5926  -10.2803    4.5418 C   0  0  0  0  0  0  0  0  0  0  0  0
    0.2520  -10.3567    4.2373 N   0  0  0  0  0  0  0  0  0  0  0  0
    0.0451   -9.8414    2.9690 C   0  0  0  0  0  0  0  0  0  0  0  0
    1.2442   -9.4082    2.4574 C   0  0  0  0  0  0  0  0  0  0  0  0
    2.2524   -9.6641    3.4481 C   0  0  0  0  0  0  0  0  0  0  0  0
    3.8301   -6.6282    0.8519 C   0  0  0  0  0  0  0  0  0  0  0  0
    2.7446   -4.5823    1.4365 O   0  0  0  0  0  0  0  0  0  0  0  0
    2.6976   -4.0298    0.1345 C   0  0  0  0  0  0  0  0  0  0  0  0
   -0.5044  -10.7020    4.8223 H   0  0  0  0  0  0  0  0  0  0  0  0
    4.9086   -1.3567    0.4289 H   0  0  0  0  0  0  0  0  0  0  0  0
    3.9341   -2.1264    1.6794 H   0  0  0  0  0  0  0  0  0  0  0  0
    3.1457   -1.3182    0.3316 H   0  0  0  0  0  0  0  0  0  0  0  0
    4.0288   -3.8426   -2.2935 H   0  0  0  0  0  0  0  0  0  0  0  0
    4.9687   -2.4048   -1.9518 H   0  0  0  0  0  0  0  0  0  0  0  0
    3.2157   -2.3192   -1.9963 H   0  0  0  0  0  0  0  0  0  0  0  0
    5.4249   -4.9058   -0.5147 H   0  0  0  0  0  0  0  0  0  0  0  0
    6.1633   -3.4917    0.1701 H   0  0  0  0  0  0  0  0  0  0  0  0
    3.7866   -4.8210    3.8463 H   0  0  0  0  0  0  0  0  0  0  0  0
    2.8735   -6.2480    3.3947 H   0  0  0  0  0  0  0  0  0  0  0  0
    5.8531   -6.0038    3.7707 H   0  0  0  0  0  0  0  0  0  0  0  0
    4.8090   -7.0516    4.6730 H   0  0  0  0  0  0  0  0  0  0  0  0
    6.3883   -8.0542    2.7584 H   0  0  0  0  0  0  0  0  0  0  0  0
    5.7981   -7.4240    0.6151 H   0  0  0  0  0  0  0  0  0  0  0  0
    3.5484   -9.2893    0.6962 H   0  0  0  0  0  0  0  0  0  0  0  0
    5.3123   -9.7356    0.8407 H   0  0  0  0  0  0  0  0  0  0  0  0
    4.0431  -10.8167    6.6145 H   0  0  0  0  0  0  0  0  0  0  0  0
   -0.9616   -9.8176    2.5482 H   0  0  0  0  0  0  0  0  0  0  0  0
    1.4003   -8.9640    1.4791 H   0  0  0  0  0  0  0  0  0  0  0  0
    2.8409   -7.0694    1.0189 H   0  0  0  0  0  0  0  0  0  0  0  0
    3.9111   -6.4076   -0.2238 H   0  0  0  0  0  0  0  0  0  0  0  0
    1.8315   -3.3582    0.0402 H   0  0  0  0  0  0  0  0  0  0  0  0
    2.5178   -4.8266   -0.5874 H   0  0  0  0  0  0  0  0  0  0  0  0
    1.7392  -11.2051    6.4313 H   0  0  0  0  0  0  0  0  0  0  0  0
  1  2  1  0
  1 26  1  0
  1 27  1  0
  1 28  1  0
  2 24  1  0
  2  3  1  0
  2  4  1  0
  3 29  1  0
  3 30  1  0
  3 31  1  0
  4  5  1  0
  4 32  1  0
  4 33  1  0
  5  6  1  0
  6 22  1  0
  6  7  1  0
  6 23  1  0
  7  8  1  0
  7 34  1  0
  7 35  1  0
  8  9  1  0
  8 36  1  0
  8 37  1  0
  9 12  1  0
  9 10  1  0
  9 38  1  6
 10 11  1  0
 10 22  1  0
 10 39  1  6
 11 12  1  0
 11 40  1  0
 11 41  1  0
 12 13  1  0
 13 21  1  0
 13 14  2  0
 14 15  1  0
 15 16  2  0
 15 42  1  0
 16 17  1  0
 16 49  1  0
 17 21  2  0
 17 18  1  0
 18 25  1  0
 18 19  1  0
 19 20  2  0
 19 43  1  0
 20 21  1  0
 20 44  1  0
 22 45  1  0
 22 46  1  0
 23 24  1  0
 24 47  1  0
 24 48  1  0
M  CHG  1  16   1
M  END
>  <i_m_ct_stereo_status>  (4) 
1

>  <s_m_source_file>  (4) 
/var/tmp/pbs.5076255.sched01/tmp6mrmgolx/06cp14zw5.sdf

>  <i_m_source_file_index>  (4) 
2

>  <i_lp_mmshare_version>  (4) 
48012

>  <i_f3d_flags>  (4) 
0

>  <s_epik_input>  (4) 
TzFbQ0gyXUMoW0NIM10pKFtDSDNdKVtDSDJdT0MxMltDSDJdW0NIMl1bQ0BASF0zW0NASF0oW0NIMl0yKVtDSDJdTjNjKG5bY0hdbjQpYyhjNDUpW2NIXVtjSF1bbkhdNQ==

>  <s_epik_cmdline>  (4) 
J2VwaWtfcHl0aG9uJywgJy1waHQnLCAnMi4wJywgJy1waCcsICc3LjAnLCAnLXRuJywgJzgnLCAnLW1hJywgJzIwMCcsICctaW1hZScsICc8aW5maWxlLm1hZT4nLCAnLW9tYWUnLCAnPG91dGZpbGUubWFlPic=

>  <r_lp_tautomer_probability>  (4) 
1.75997e-05

>  <r_epik_Ionization_Penalty>  (4) 
1.87722

>  <r_epik_Ionization_Penalty_Charging>  (4) 
1.87721

>  <r_epik_Ionization_Penalty_Neutral>  (4) 
1.6676e-05

>  <r_epik_State_Penalty>  (4) 
1.99669

>  <r_epik_Charging_Adjusted_Penalty>  (4) 
3.87389

>  <i_epik_Tot_Q>  (4) 
1

>  <i_epik_Tot_abs_Q>  (4) 
1

>  <s_lp_Force_Field>  (4) 
OPLS3e

>  <r_lp_Energy>  (4) 
45.9563

>  <b_lp_Chiralities_Consistent>  (4) 
1

>  <s_lp_Variant>  (4) 
0:0-2

>  <s_i_glide_gridfile>  (4) 
pfpi4k_grid

>  <i_i_glide_lignum>  (4) 
2

>  <i_i_glide_rotatable_bonds>  (4) 
1

>  <r_i_docking_score>  (4) 
-4.36045

>  <r_i_glide_ligand_efficiency>  (4) 
-0.181685

>  <r_i_glide_ligand_efficiency_sa>  (4) 
-0.524071

>  <r_i_glide_ligand_efficiency_ln>  (4) 
-1.04366

>  <r_i_glide_gscore>  (4) 
-4.36045

>  <r_i_glide_lipo>  (4) 
-0.325068

>  <r_i_glide_hbond>  (4) 
-0.4

>  <r_i_glide_metal>  (4) 
-0

>  <r_i_glide_rewards>  (4) 
-1.1811

>  <r_i_glide_evdw>  (4) 
-21.6864

>  <r_i_glide_ecoul>  (4) 
-8.614

>  <r_i_glide_erotb>  (4) 
0.173197

>  <r_i_glide_esite>  (4) 
-0.25106

>  <r_i_glide_emodel>  (4) 
-39.8196

>  <r_i_glide_energy>  (4) 
-30.3004

>  <r_i_glide_einternal>  (4) 
2.98815

>  <r_i_glide_intrahb_reward>  (4) 
-0

>  <i_i_glide_confnum>  (4) 
2

>  <i_i_glide_posenum>  (4) 
17

>  <r_i_glide_eff_state_penalty>  (4) 
0

>  <ligand_id>  (4) 
0

>  <original_smiles>  (4) 
CC1(C)COC2(CCC3C(CN3c3ncnc4[nH]ccc34)C2)OC1

>  <smiles>  (4) 
[H]c1c([H])n([H])c2c1c(N1C([H])([H])C3([H])C([H])([H])C4(OC([H])([H])C(C([H])([H])[H])(C([H])([H])[H])C([H])([H])O4)C([H])([H])C([H])([H])C13[H])nc([H])[n+]2[H]

$$$$
0:1:1
     RDKit          3D

 49 53  0  0  1  0  0  0  0  0999 V2000
    5.4028   -1.7957    1.8084 C   0  0  0  0  0  0  0  0  0  0  0  0
    4.8911   -2.8715    0.8433 C   0  0  0  0  0  0  0  0  0  0  0  0
    4.7183   -2.2624   -0.5597 C   0  0  0  0  0  0  0  0  0  0  0  0
    5.9056   -4.0336    0.7641 C   0  0  0  0  0  0  0  0  0  0  0  0
    5.8392   -4.8034    1.9727 O   0  0  0  0  0  0  0  0  0  0  0  0
    4.5588   -5.2640    2.3520 C   0  0  0  0  0  0  0  0  0  0  0  0
    4.7104   -5.9207    3.7579 C   0  0  0  0  0  0  0  0  0  0  0  0
    5.6648   -7.1442    3.7652 C   0  0  0  0  0  0  0  0  0  0  0  0
    5.4916   -8.0930    2.5601 C   0  0  2  0  0  0  0  0  0  0  0  0
    4.8517   -7.5601    1.2701 C   0  0  1  0  0  0  0  0  0  0  0  0
    4.0833   -8.8589    1.1162 C   0  0  0  0  0  0  0  0  0  0  0  0
    4.4439   -9.1145    2.4994 N   0  0  0  0  0  0  0  0  0  0  0  0
    3.5928   -9.5534    3.5515 C   0  0  0  0  0  0  0  0  0  0  0  0
    4.2075   -9.9347    4.6795 N   0  0  0  0  0  0  0  0  0  0  0  0
    3.5974  -10.5036    5.7002 C   0  0  0  0  0  0  0  0  0  0  0  0
    2.2766  -10.7250    5.7033 N   0  0  0  0  0  0  0  0  0  0  0  0
    1.5858  -10.3198    4.6319 C   0  0  0  0  0  0  0  0  0  0  0  0
    0.2222  -10.4203    4.3961 N   0  0  0  0  0  0  0  0  0  0  0  0
   -0.0551   -9.9166    3.1306 C   0  0  0  0  0  0  0  0  0  0  0  0
    1.1053   -9.4842    2.5517 C   0  0  0  0  0  0  0  0  0  0  0  0
    2.1763   -9.7200    3.4876 C   0  0  0  0  0  0  0  0  0  0  0  0
    3.9985   -6.3013    1.3482 C   0  0  0  0  0  0  0  0  0  0  0  0
    3.6484   -4.2075    2.4909 O   0  0  0  0  0  0  0  0  0  0  0  0
    3.4978   -3.3756    1.3562 C   0  0  0  0  0  0  0  0  0  0  0  0
   -0.5188  -10.8065    4.9834 H   0  0  0  0  0  0  0  0  0  0  0  0
    6.3752   -1.4117    1.5145 H   0  0  0  0  0  0  0  0  0  0  0  0
    5.5006   -2.1921    2.8243 H   0  0  0  0  0  0  0  0  0  0  0  0
    4.7132   -0.9510    1.8650 H   0  0  0  0  0  0  0  0  0  0  0  0
    4.3277   -2.9891   -1.2624 H   0  0  0  0  0  0  0  0  0  0  0  0
    5.6569   -1.9162   -0.9539 H   0  0  0  0  0  0  0  0  0  0  0  0
    4.0315   -1.4284   -0.5578 H   0  0  0  0  0  0  0  0  0  0  0  0
    5.7390   -4.6844   -0.0954 H   0  0  0  0  0  0  0  0  0  0  0  0
    6.9284   -3.6588    0.6453 H   0  0  0  0  0  0  0  0  0  0  0  0
    5.0523   -5.1752    4.4973 H   0  0  0  0  0  0  0  0  0  0  0  0
    3.7183   -6.2317    4.0830 H   0  0  0  0  0  0  0  0  0  0  0  0
    6.6685   -6.7523    3.7358 H   0  0  0  0  0  0  0  0  0  0  0  0
    5.5971   -7.6875    4.7174 H   0  0  0  0  0  0  0  0  0  0  0  0
    6.4183   -8.6166    2.3390 H   0  0  0  0  0  0  0  0  0  0  0  0
    5.6089   -7.4322    0.5016 H   0  0  0  0  0  0  0  0  0  0  0  0
    3.0394   -8.6920    0.8665 H   0  0  0  0  0  0  0  0  0  0  0  0
    4.5791   -9.5798    0.4902 H   0  0  0  0  0  0  0  0  0  0  0  0
    4.1730  -10.8288    6.5442 H   0  0  0  0  0  0  0  0  0  0  0  0
   -1.0827   -9.9107    2.7637 H   0  0  0  0  0  0  0  0  0  0  0  0
    1.1786   -9.0511    1.5487 H   0  0  0  0  0  0  0  0  0  0  0  0
    2.9861   -6.5369    1.7061 H   0  0  0  0  0  0  0  0  0  0  0  0
    3.9079   -5.8906    0.3206 H   0  0  0  0  0  0  0  0  0  0  0  0
    2.8520   -2.5167    1.6245 H   0  0  0  0  0  0  0  0  0  0  0  0
    2.9468   -3.9167    0.5758 H   0  0  0  0  0  0  0  0  0  0  0  0
    1.8479  -11.2301    6.5003 H   0  0  0  0  0  0  0  0  0  0  0  0
  1  2  1  0
  1 26  1  0
  1 27  1  0
  1 28  1  0
  2 24  1  0
  2  3  1  0
  2  4  1  0
  3 29  1  0
  3 30  1  0
  3 31  1  0
  4  5  1  0
  4 32  1  0
  4 33  1  0
  5  6  1  0
  6 22  1  0
  6  7  1  0
  6 23  1  0
  7  8  1  0
  7 34  1  0
  7 35  1  0
  8  9  1  0
  8 36  1  0
  8 37  1  0
  9 12  1  0
  9 10  1  0
  9 38  1  6
 10 11  1  0
 10 22  1  0
 10 39  1  6
 11 12  1  0
 11 40  1  0
 11 41  1  0
 12 13  1  0
 13 21  1  0
 13 14  2  0
 14 15  1  0
 15 16  2  0
 15 42  1  0
 16 17  1  0
 16 49  1  0
 17 21  2  0
 17 18  1  0
 18 25  1  0
 18 19  1  0
 19 20  2  0
 19 43  1  0
 20 21  1  0
 20 44  1  0
 22 45  1  0
 22 46  1  0
 23 24  1  0
 24 47  1  0
 24 48  1  0
M  CHG  1  16   1
M  END
>  <i_m_ct_stereo_status>  (5) 
1

>  <s_m_source_file>  (5) 
/var/tmp/pbs.5076255.sched01/tmp6mrmgolx/06cp14zw5.sdf

>  <i_m_source_file_index>  (5) 
2

>  <i_lp_mmshare_version>  (5) 
48012

>  <i_f3d_flags>  (5) 
0

>  <s_epik_input>  (5) 
TzFbQ0gyXUMoW0NIM10pKFtDSDNdKVtDSDJdT0MxMltDSDJdW0NIMl1bQ0BASF0zW0NASF0oW0NIMl0yKVtDSDJdTjNjKG5bY0hdbjQpYyhjNDUpW2NIXVtjSF1bbkhdNQ==

>  <s_epik_cmdline>  (5) 
J2VwaWtfcHl0aG9uJywgJy1waHQnLCAnMi4wJywgJy1waCcsICc3LjAnLCAnLXRuJywgJzgnLCAnLW1hJywgJzIwMCcsICctaW1hZScsICc8aW5maWxlLm1hZT4nLCAnLW9tYWUnLCAnPG91dGZpbGUubWFlPic=

>  <r_lp_tautomer_probability>  (5) 
1.75997e-05

>  <r_epik_Ionization_Penalty>  (5) 
1.87722

>  <r_epik_Ionization_Penalty_Charging>  (5) 
1.87721

>  <r_epik_Ionization_Penalty_Neutral>  (5) 
1.6676e-05

>  <r_epik_State_Penalty>  (5) 
1.99669

>  <r_epik_Charging_Adjusted_Penalty>  (5) 
3.87389

>  <i_epik_Tot_Q>  (5) 
1

>  <i_epik_Tot_abs_Q>  (5) 
1

>  <s_lp_Force_Field>  (5) 
OPLS3e

>  <r_lp_Energy>  (5) 
45.9563

>  <b_lp_Chiralities_Consistent>  (5) 
1

>  <s_lp_Variant>  (5) 
0:0-2

>  <s_i_glide_gridfile>  (5) 
pfpi4k_grid

>  <i_i_glide_lignum>  (5) 
2

>  <i_i_glide_rotatable_bonds>  (5) 
1

>  <r_i_docking_score>  (5) 
-4.33444

>  <r_i_glide_ligand_efficiency>  (5) 
-0.180602

>  <r_i_glide_ligand_efficiency_sa>  (5) 
-0.520945

>  <r_i_glide_ligand_efficiency_ln>  (5) 
-1.03743

>  <r_i_glide_gscore>  (5) 
-4.33444

>  <r_i_glide_lipo>  (5) 
-0.432856

>  <r_i_glide_hbond>  (5) 
-0.38338

>  <r_i_glide_metal>  (5) 
-0

>  <r_i_glide_rewards>  (5) 
-1.16584

>  <r_i_glide_evdw>  (5) 
-19.6018

>  <r_i_glide_ecoul>  (5) 
-8.51933

>  <r_i_glide_erotb>  (5) 
0.173197

>  <r_i_glide_esite>  (5) 
-0.267572

>  <r_i_glide_emodel>  (5) 
-40.1169

>  <r_i_glide_energy>  (5) 
-28.1211

>  <r_i_glide_einternal>  (5) 
0.700825

>  <r_i_glide_intrahb_reward>  (5) 
-0

>  <i_i_glide_confnum>  (5) 
2

>  <i_i_glide_posenum>  (5) 
16

>  <r_i_glide_eff_state_penalty>  (5) 
0

>  <ligand_id>  (5) 
0

>  <original_smiles>  (5) 
CC1(C)COC2(CCC3C(CN3c3ncnc4[nH]ccc34)C2)OC1

>  <smiles>  (5) 
[H]c1c([H])n([H])c2c1c(N1C([H])([H])C3([H])C([H])([H])C4(OC([H])([H])C(C([H])([H])[H])(C([H])([H])[H])C([H])([H])O4)C([H])([H])C([H])([H])C13[H])nc([H])[n+]2[H]

$$$$
0:1:2
     RDKit          3D

 49 53  0  0  1  0  0  0  0  0999 V2000
    5.1360   -2.0121    0.7079 C   0  0  0  0  0  0  0  0  0  0  0  0
    4.3347   -3.1532    0.0655 C   0  0  0  0  0  0  0  0  0  0  0  0
    3.6602   -2.6292   -1.2110 C   0  0  0  0  0  0  0  0  0  0  0  0
    5.2793   -4.3175   -0.3096 C   0  0  0  0  0  0  0  0  0  0  0  0
    5.7096   -4.9731    0.8825 O   0  0  0  0  0  0  0  0  0  0  0  0
    4.6795   -5.4086    1.7291 C   0  0  0  0  0  0  0  0  0  0  0  0
    5.3333   -5.9883    3.0137 C   0  0  0  0  0  0  0  0  0  0  0  0
    6.2482   -7.1989    2.7174 C   0  0  0  0  0  0  0  0  0  0  0  0
    5.6602   -8.2124    1.7225 C   0  0  2  0  0  0  0  0  0  0  0  0
    4.5750   -7.7442    0.7303 C   0  0  1  0  0  0  0  0  0  0  0  0
    3.8325   -9.0619    0.9370 C   0  0  0  0  0  0  0  0  0  0  0  0
    4.6419   -9.1763    2.1417 N   0  0  0  0  0  0  0  0  0  0  0  0
    4.2818   -9.6625    3.4286 C   0  0  0  0  0  0  0  0  0  0  0  0
    5.2482   -9.7141    4.3830 N   0  0  0  0  0  0  0  0  0  0  0  0
    5.0438  -10.1933    5.6074 C   0  0  0  0  0  0  0  0  0  0  0  0
    3.8625  -10.6652    6.0173 N   0  0  0  0  0  0  0  0  0  0  0  0
    2.8665  -10.6326    5.1117 C   0  0  0  0  0  0  0  0  0  0  0  0
    1.5749  -11.0467    5.2836 N   0  0  0  0  0  0  0  0  0  0  0  0
    0.8640  -10.8430    4.1111 C   0  0  0  0  0  0  0  0  0  0  0  0
    1.7017  -10.2926    3.1637 C   0  0  0  0  0  0  0  0  0  0  0  0
    2.9932  -10.1417    3.7918 C   0  0  0  0  0  0  0  0  0  0  0  0
    3.8025   -6.4781    1.0396 C   0  0  0  0  0  0  0  0  0  0  0  0
    3.8700   -4.3429    2.1268 O   0  0  0  0  0  0  0  0  0  0  0  0
    3.2527   -3.6309    1.0664 C   0  0  0  0  0  0  0  0  0  0  0  0
    1.2150  -11.4675    6.1537 H   0  0  0  0  0  0  0  0  0  0  0  0
    5.9200   -1.6509    0.0429 H   0  0  0  0  0  0  0  0  0  0  0  0
    5.6087   -2.3374    1.6361 H   0  0  0  0  0  0  0  0  0  0  0  0
    4.4857   -1.1697    0.9513 H   0  0  0  0  0  0  0  0  0  0  0  0
    3.0495   -3.3932   -1.6909 H   0  0  0  0  0  0  0  0  0  0  0  0
    4.3951   -2.2977   -1.9396 H   0  0  0  0  0  0  0  0  0  0  0  0
    3.0112   -1.7836   -0.9970 H   0  0  0  0  0  0  0  0  0  0  0  0
    4.7955   -5.0368   -0.9726 H   0  0  0  0  0  0  0  0  0  0  0  0
    6.1519   -3.9577   -0.8658 H   0  0  0  0  0  0  0  0  0  0  0  0
    5.8986   -5.2116    3.5401 H   0  0  0  0  0  0  0  0  0  0  0  0
    4.5303   -6.2980    3.6818 H   0  0  0  0  0  0  0  0  0  0  0  0
    7.1730   -6.8092    2.2948 H   0  0  0  0  0  0  0  0  0  0  0  0
    6.5544   -7.6801    3.6466 H   0  0  0  0  0  0  0  0  0  0  0  0
    6.4400   -8.7742    1.2033 H   0  0  0  0  0  0  0  0  0  0  0  0
    4.9848   -7.6850   -0.2717 H   0  0  0  0  0  0  0  0  0  0  0  0
    2.7562   -8.9216    1.0316 H   0  0  0  0  0  0  0  0  0  0  0  0
    4.1121   -9.8356    0.2180 H   0  0  0  0  0  0  0  0  0  0  0  0
    5.8495  -10.1957    6.3228 H   0  0  0  0  0  0  0  0  0  0  0  0
   -0.1834  -11.0924    4.0353 H   0  0  0  0  0  0  0  0  0  0  0  0
    1.4223  -10.0373    2.1486 H   0  0  0  0  0  0  0  0  0  0  0  0
    2.9746   -6.6863    1.7257 H   0  0  0  0  0  0  0  0  0  0  0  0
    3.3580   -6.1083    0.1092 H   0  0  0  0  0  0  0  0  0  0  0  0
    2.6918   -2.7804    1.4732 H   0  0  0  0  0  0  0  0  0  0  0  0
    2.5102   -4.2649    0.5821 H   0  0  0  0  0  0  0  0  0  0  0  0
    3.6959  -11.0325    6.9535 H   0  0  0  0  0  0  0  0  0  0  0  0
  1  2  1  0
  1 26  1  0
  1 27  1  0
  1 28  1  0
  2 24  1  0
  2  3  1  0
  2  4  1  0
  3 29  1  0
  3 30  1  0
  3 31  1  0
  4  5  1  0
  4 32  1  0
  4 33  1  0
  5  6  1  0
  6 22  1  0
  6  7  1  0
  6 23  1  0
  7  8  1  0
  7 34  1  0
  7 35  1  0
  8  9  1  0
  8 36  1  0
  8 37  1  0
  9 12  1  0
  9 10  1  0
  9 38  1  6
 10 11  1  0
 10 22  1  0
 10 39  1  6
 11 12  1  0
 11 40  1  0
 11 41  1  0
 12 13  1  0
 13 21  1  0
 13 14  2  0
 14 15  1  0
 15 16  2  0
 15 42  1  0
 16 17  1  0
 16 49  1  0
 17 21  2  0
 17 18  1  0
 18 25  1  0
 18 19  1  0
 19 20  2  0
 19 43  1  0
 20 21  1  0
 20 44  1  0
 22 45  1  0
 22 46  1  0
 23 24  1  0
 24 47  1  0
 24 48  1  0
M  CHG  1  16   1
M  END
>  <i_m_ct_stereo_status>  (6) 
1

>  <s_m_source_file>  (6) 
/var/tmp/pbs.5076255.sched01/tmp6mrmgolx/06cp14zw5.sdf

>  <i_m_source_file_index>  (6) 
2

>  <i_lp_mmshare_version>  (6) 
48012

>  <i_f3d_flags>  (6) 
0

>  <s_epik_input>  (6) 
TzFbQ0gyXUMoW0NIM10pKFtDSDNdKVtDSDJdT0MxMltDSDJdW0NIMl1bQ0BASF0zW0NASF0oW0NIMl0yKVtDSDJdTjNjKG5bY0hdbjQpYyhjNDUpW2NIXVtjSF1bbkhdNQ==

>  <s_epik_cmdline>  (6) 
J2VwaWtfcHl0aG9uJywgJy1waHQnLCAnMi4wJywgJy1waCcsICc3LjAnLCAnLXRuJywgJzgnLCAnLW1hJywgJzIwMCcsICctaW1hZScsICc8aW5maWxlLm1hZT4nLCAnLW9tYWUnLCAnPG91dGZpbGUubWFlPic=

>  <r_lp_tautomer_probability>  (6) 
1.75997e-05

>  <r_epik_Ionization_Penalty>  (6) 
1.87722

>  <r_epik_Ionization_Penalty_Charging>  (6) 
1.87721

>  <r_epik_Ionization_Penalty_Neutral>  (6) 
1.6676e-05

>  <r_epik_State_Penalty>  (6) 
1.99669

>  <r_epik_Charging_Adjusted_Penalty>  (6) 
3.87389

>  <i_epik_Tot_Q>  (6) 
1

>  <i_epik_Tot_abs_Q>  (6) 
1

>  <s_lp_Force_Field>  (6) 
OPLS3e

>  <r_lp_Energy>  (6) 
45.9563

>  <b_lp_Chiralities_Consistent>  (6) 
1

>  <s_lp_Variant>  (6) 
0:0-2

>  <s_i_glide_gridfile>  (6) 
pfpi4k_grid

>  <i_i_glide_lignum>  (6) 
2

>  <i_i_glide_rotatable_bonds>  (6) 
1

>  <r_i_docking_score>  (6) 
-3.78805

>  <r_i_glide_ligand_efficiency>  (6) 
-0.157835

>  <r_i_glide_ligand_efficiency_sa>  (6) 
-0.455276

>  <r_i_glide_ligand_efficiency_ln>  (6) 
-0.906654

>  <r_i_glide_gscore>  (6) 
-3.78805

>  <r_i_glide_lipo>  (6) 
-0.429471

>  <r_i_glide_hbond>  (6) 
-0.2

>  <r_i_glide_metal>  (6) 
-0

>  <r_i_glide_rewards>  (6) 
-1.19826

>  <r_i_glide_evdw>  (6) 
-21.8253

>  <r_i_glide_ecoul>  (6) 
-5.50862

>  <r_i_glide_erotb>  (6) 
0.173197

>  <r_i_glide_esite>  (6) 
-0.215957

>  <r_i_glide_emodel>  (6) 
-37.1431

>  <r_i_glide_energy>  (6) 
-27.334

>  <r_i_glide_einternal>  (6) 
0.0345032

>  <r_i_glide_intrahb_reward>  (6) 
-0

>  <i_i_glide_confnum>  (6) 
2

>  <i_i_glide_posenum>  (6) 
20

>  <r_i_glide_eff_state_penalty>  (6) 
0

>  <ligand_id>  (6) 
0

>  <original_smiles>  (6) 
CC1(C)COC2(CCC3C(CN3c3ncnc4[nH]ccc34)C2)OC1

>  <smiles>  (6) 
[H]c1c([H])n([H])c2c1c(N1C([H])([H])C3([H])C([H])([H])C4(OC([H])([H])C(C([H])([H])[H])(C([H])([H])[H])C([H])([H])O4)C([H])([H])C([H])([H])C13[H])nc([H])[n+]2[H]

$$$$
1:0:0
     RDKit          3D

 48 52  0  0  1  0  0  0  0  0999 V2000
   -1.3268    0.4189    5.1332 C   0  0  0  0  0  0  0  0  0  0  0  0
   -0.2054    0.3177    4.1329 C   0  0  0  0  0  0  0  0  0  0  0  0
    0.3790   -0.8352    3.7659 C   0  0  0  0  0  0  0  0  0  0  0  0
    1.4885   -0.9596    2.8102 C   0  0  0  0  0  0  0  0  0  0  0  0
    2.1481    0.1653    2.2616 C   0  0  0  0  0  0  0  0  0  0  0  0
    3.2064    0.0071    1.3509 C   0  0  0  0  0  0  0  0  0  0  0  0
    3.6267   -1.2748    0.9622 C   0  0  0  0  0  0  0  0  0  0  0  0
    2.9599   -2.4115    1.4948 C   0  0  0  0  0  0  0  0  0  0  0  0
    1.9031   -2.2468    2.4130 C   0  0  0  0  0  0  0  0  0  0  0  0
    3.3152   -3.8214    1.0529 C   0  0  0  0  0  0  0  0  0  0  0  0
    4.6788   -3.9051    0.3226 C   0  0  1  0  0  0  0  0  0  0  0  0
    5.7571   -3.7974    1.3293 N   0  0  0  0  0  0  0  0  0  0  0  0
    6.5529   -4.8739    1.3608 C   0  0  0  0  0  0  0  0  0  0  0  0
    7.6562   -5.0576    2.0762 N   0  0  0  0  0  0  0  0  0  0  0  0
    6.0872   -5.8887    0.4353 C   0  0  1  0  0  0  0  0  0  0  0  0
    4.7705   -6.5896    0.5228 C   0  0  0  0  0  0  0  0  0  0  0  0
    4.8862   -5.3053   -0.2462 C   0  0  1  0  0  0  0  0  0  0  0  0
    4.8389   -2.7842   -0.7872 C   0  0  0  0  0  0  0  0  0  0  0  0
    4.7481   -1.3846   -0.0737 C   0  0  0  0  0  0  0  0  0  0  0  0
    6.1599   -2.9263   -1.6085 C   0  0  0  0  0  0  0  0  0  0  0  0
    7.1953   -2.5895   -1.0520 O   0  0  0  0  0  0  0  0  0  0  0  0
    6.1547   -3.4511   -2.8481 N   0  0  0  0  0  0  0  0  0  0  0  0
    5.0257   -3.7494   -3.5568 C   0  0  0  0  0  0  0  0  0  0  0  0
    5.0262   -4.2714   -4.6736 O   0  0  0  0  0  0  0  0  0  0  0  0
    3.8540   -3.3961   -3.0217 N   0  0  0  0  0  0  0  0  0  0  0  0
    3.7016   -2.8557   -1.8146 C   0  0  0  0  0  0  0  0  0  0  0  0
    2.6083   -2.4663   -1.4956 O   0  0  0  0  0  0  0  0  0  0  0  0
   -2.1926    0.8680    4.6487 H   0  0  0  0  0  0  0  0  0  0  0  0
   -1.0214    1.0554    5.9636 H   0  0  0  0  0  0  0  0  0  0  0  0
   -1.5983   -0.5653    5.5146 H   0  0  0  0  0  0  0  0  0  0  0  0
    0.1115    1.2595    3.7123 H   0  0  0  0  0  0  0  0  0  0  0  0
    0.0255   -1.7600    4.2050 H   0  0  0  0  0  0  0  0  0  0  0  0
    1.8742    1.1756    2.5211 H   0  0  0  0  0  0  0  0  0  0  0  0
    3.6846    0.8825    0.9296 H   0  0  0  0  0  0  0  0  0  0  0  0
    1.3948   -3.1244    2.7886 H   0  0  0  0  0  0  0  0  0  0  0  0
    3.3160   -4.4723    1.9267 H   0  0  0  0  0  0  0  0  0  0  0  0
    2.5289   -4.2183    0.4091 H   0  0  0  0  0  0  0  0  0  0  0  0
    7.9723   -4.2930    2.6743 H   0  0  0  0  0  0  0  0  0  0  0  0
    8.2200   -5.8989    2.0260 H   0  0  0  0  0  0  0  0  0  0  0  0
    6.8921   -6.2388   -0.2064 H   0  0  0  0  0  0  0  0  0  0  0  0
    4.6448   -7.4837   -0.0800 H   0  0  0  0  0  0  0  0  0  0  0  0
    4.2411   -6.5768    1.4709 H   0  0  0  0  0  0  0  0  0  0  0  0
    4.8270   -5.4367   -1.3176 H   0  0  0  0  0  0  0  0  0  0  0  0
    4.6262   -0.5889   -0.8118 H   0  0  0  0  0  0  0  0  0  0  0  0
    5.6647   -1.1514    0.4582 H   0  0  0  0  0  0  0  0  0  0  0  0
    7.0735   -3.6253   -3.2684 H   0  0  0  0  0  0  0  0  0  0  0  0
    3.0265   -3.5811   -3.5708 H   0  0  0  0  0  0  0  0  0  0  0  0
    5.8958   -2.9439    1.8456 H   0  0  0  0  0  0  0  0  0  0  0  0
  1  2  1  0
  1 28  1  0
  1 29  1  0
  1 30  1  0
  2  3  2  3
  2 31  1  0
  3  4  1  0
  3 32  1  0
  4  9  2  0
  4  5  1  0
  5  6  2  0
  5 33  1  0
  6  7  1  0
  6 34  1  0
  7 19  1  0
  7  8  2  0
  8  9  1  0
  8 10  1  0
  9 35  1  0
 11 10  1  1
 10 36  1  0
 10 37  1  0
 11 17  1  0
 11 12  1  0
 11 18  1  0
 12 13  2  0
 12 48  1  0
 13 14  1  0
 13 15  1  0
 14 38  1  0
 14 39  1  0
 15 17  1  0
 15 16  1  0
 15 40  1  6
 16 17  1  0
 16 41  1  0
 16 42  1  0
 17 43  1  6
 18 26  1  0
 18 19  1  0
 18 20  1  0
 19 44  1  0
 19 45  1  0
 20 21  2  0
 20 22  1  0
 22 23  1  0
 22 46  1  0
 23 24  2  0
 23 25  1  0
 25 26  1  0
 25 47  1  0
 26 27  2  0
M  CHG  1  12   1
M  END
>  <i_m_ct_stereo_status>  (7) 
1

>  <s_m_source_file>  (7) 
/var/tmp/pbs.5076255.sched01/tmp6mrmgolx/06cp14zw5.sdf

>  <i_m_source_file_index>  (7) 
3

>  <i_lp_mmshare_version>  (7) 
48012

>  <i_f3d_flags>  (7) 
0

>  <s_epik_input>  (7) 
W0NIM10vW0NIXT1bQ0hdL2MoW2NIXVtjSF0xKVtjSF1jKFtDSDJdMiljMVtDSDJdQzMoW0NAXTI0W0NASF01W0NIXShbQ0gyXTUpQyg9TjQpW05IMl0pQyg9TylbTkhdQyg9TylbTkhdQzM9Tw==

>  <s_epik_cmdline>  (7) 
J2VwaWtfcHl0aG9uJywgJy1waHQnLCAnMi4wJywgJy1waCcsICc3LjAnLCAnLXRuJywgJzgnLCAnLW1hJywgJzIwMCcsICctaW1hZScsICc8aW5maWxlLm1hZT4nLCAnLW9tYWUnLCAnPG91dGZpbGUubWFlPic=

>  <r_lp_tautomer_probability>  (7) 
1

>  <r_epik_Ionization_Penalty>  (7) 
0.478584

>  <r_epik_Ionization_Penalty_Charging>  (7) 
0.107945

>  <r_epik_Ionization_Penalty_Neutral>  (7) 
0.370639

>  <r_epik_State_Penalty>  (7) 
0.659842

>  <r_epik_Charging_Adjusted_Penalty>  (7) 
0.767788

>  <i_epik_Tot_Q>  (7) 
1

>  <i_epik_Tot_abs_Q>  (7) 
1

>  <s_epik_Chemistry_Notes>  (7) 
This compound has an imine and may undergo hydrolysis.

>  <s_lp_Force_Field>  (7) 
OPLS3e

>  <r_lp_Energy>  (7) 
35.9563

>  <b_lp_Chiralities_Consistent>  (7) 
1

>  <s_lp_Variant>  (7) 
1:0-1

>  <s_i_glide_gridfile>  (7) 
pfpi4k_grid

>  <i_i_glide_lignum>  (7) 
3

>  <i_i_glide_rotatable_bonds>  (7) 
1

>  <r_i_docking_score>  (7) 
-3.56567

>  <r_i_glide_ligand_efficiency>  (7) 
-0.132062

>  <r_i_glide_ligand_efficiency_sa>  (7) 
-0.396185

>  <r_i_glide_ligand_efficiency_ln>  (7) 
-0.830029

>  <r_i_glide_gscore>  (7) 
-3.56567

>  <r_i_glide_lipo>  (7) 
-0.234558

>  <r_i_glide_hbond>  (7) 
-0.432538

>  <r_i_glide_metal>  (7) 
-0

>  <r_i_glide_rewards>  (7) 
-1.24604

>  <r_i_glide_evdw>  (7) 
-21.9506

>  <r_i_glide_ecoul>  (7) 
-4.53308

>  <r_i_glide_erotb>  (7) 
0.144065

>  <r_i_glide_esite>  (7) 
-0.0191087

>  <r_i_glide_emodel>  (7) 
-32.1215

>  <r_i_glide_energy>  (7) 
-26.4837

>  <r_i_glide_einternal>  (7) 
0.0564602

>  <r_i_glide_intrahb_reward>  (7) 
-0

>  <i_i_glide_confnum>  (7) 
3

>  <i_i_glide_posenum>  (7) 
3

>  <r_i_glide_eff_state_penalty>  (7) 
0

>  <ligand_id>  (7) 
1

>  <original_smiles>  (7) 
CC=Cc1ccc2c(c1)CC1(N=C(N)C3CC31)C1(C2)C(=O)NC(=O)NC1=O

>  <smiles>  (7) 
[H]C(=C([H])C([H])([H])[H])c1c([H])c([H])c2c(c1[H])C([H])([H])C1([N+]([H])=C(N([H])[H])C3([H])C([H])([H])C31[H])C1(C(=O)N([H])C(=O)N([H])C1=O)C2([H])[H]

$$$$
1:0:1
     RDKit          3D

 48 52  0  0  1  0  0  0  0  0999 V2000
    2.0440    1.7151    2.4819 C   0  0  0  0  0  0  0  0  0  0  0  0
    2.2119    0.2873    2.0216 C   0  0  0  0  0  0  0  0  0  0  0  0
    2.3540   -0.7596    2.8517 C   0  0  0  0  0  0  0  0  0  0  0  0
    2.5307   -2.1616    2.4410 C   0  0  0  0  0  0  0  0  0  0  0  0
    2.6550   -2.5334    1.0820 C   0  0  0  0  0  0  0  0  0  0  0  0
    2.8291   -3.8789    0.7194 C   0  0  0  0  0  0  0  0  0  0  0  0
    2.8764   -4.8771    1.7063 C   0  0  0  0  0  0  0  0  0  0  0  0
    2.7453   -4.5205    3.0739 C   0  0  0  0  0  0  0  0  0  0  0  0
    2.5706   -3.1683    3.4296 C   0  0  0  0  0  0  0  0  0  0  0  0
    2.7340   -5.5622    4.1819 C   0  0  0  0  0  0  0  0  0  0  0  0
    3.2344   -6.9464    3.7224 C   0  0  1  0  0  0  0  0  0  0  0  0
    4.7120   -6.8985    3.5875 N   0  0  0  0  0  0  0  0  0  0  0  0
    5.3359   -7.7634    4.3795 C   0  0  0  0  0  0  0  0  0  0  0  0
    6.6687   -7.9531    4.4314 N   0  0  0  0  0  0  0  0  0  0  0  0
    4.3831   -8.5174    5.2192 C   0  0  1  0  0  0  0  0  0  0  0  0
    3.4873   -7.8750    6.2417 C   0  0  0  0  0  0  0  0  0  0  0  0
    3.0250   -8.0047    4.8176 C   0  0  1  0  0  0  0  0  0  0  0  0
    2.6140   -7.3582    2.3418 C   0  0  0  0  0  0  0  0  0  0  0  0
    3.0204   -6.3251    1.2581 C   0  0  0  0  0  0  0  0  0  0  0  0
    3.0537   -8.7919    1.9416 C   0  0  0  0  0  0  0  0  0  0  0  0
    4.1841   -8.9640    1.5287 O   0  0  0  0  0  0  0  0  0  0  0  0
    2.2090   -9.8121    2.0996 N   0  0  0  0  0  0  0  0  0  0  0  0
    0.9238   -9.7412    2.4836 C   0  0  0  0  0  0  0  0  0  0  0  0
    0.2625  -10.7400    2.6508 O   0  0  0  0  0  0  0  0  0  0  0  0
    0.3755   -8.5223    2.5786 N   0  0  0  0  0  0  0  0  0  0  0  0
    1.0573   -7.4033    2.3990 C   0  0  0  0  0  0  0  0  0  0  0  0
    0.3949   -6.3700    2.3425 O   0  0  0  0  0  0  0  0  0  0  0  0
    1.0990    2.1129    2.1084 H   0  0  0  0  0  0  0  0  0  0  0  0
    2.8575    2.3281    2.0935 H   0  0  0  0  0  0  0  0  0  0  0  0
    2.0568    1.7854    3.5682 H   0  0  0  0  0  0  0  0  0  0  0  0
    2.2059    0.1513    0.9512 H   0  0  0  0  0  0  0  0  0  0  0  0
    2.3484   -0.5742    3.9156 H   0  0  0  0  0  0  0  0  0  0  0  0
    2.6132   -1.7996    0.2860 H   0  0  0  0  0  0  0  0  0  0  0  0
    2.8961   -4.1445   -0.3295 H   0  0  0  0  0  0  0  0  0  0  0  0
    2.4580   -2.9031    4.4750 H   0  0  0  0  0  0  0  0  0  0  0  0
    3.3316   -5.1917    5.0117 H   0  0  0  0  0  0  0  0  0  0  0  0
    1.7217   -5.6561    4.5717 H   0  0  0  0  0  0  0  0  0  0  0  0
    7.2905   -7.4425    3.8257 H   0  0  0  0  0  0  0  0  0  0  0  0
    7.0535   -8.6460    5.0579 H   0  0  0  0  0  0  0  0  0  0  0  0
    4.5206   -9.5966    5.1669 H   0  0  0  0  0  0  0  0  0  0  0  0
    2.9940   -8.5323    6.9529 H   0  0  0  0  0  0  0  0  0  0  0  0
    3.7304   -6.8757    6.6048 H   0  0  0  0  0  0  0  0  0  0  0  0
    2.2382   -8.7353    4.6419 H   0  0  0  0  0  0  0  0  0  0  0  0
    2.4346   -6.4697    0.3511 H   0  0  0  0  0  0  0  0  0  0  0  0
    4.0515   -6.4623    0.9562 H   0  0  0  0  0  0  0  0  0  0  0  0
    2.5936  -10.7275    1.9358 H   0  0  0  0  0  0  0  0  0  0  0  0
   -0.6163   -8.4956    2.7795 H   0  0  0  0  0  0  0  0  0  0  0  0
    5.1770   -6.2935    2.9201 H   0  0  0  0  0  0  0  0  0  0  0  0
  1  2  1  0
  1 28  1  0
  1 29  1  0
  1 30  1  0
  2  3  2  3
  2 31  1  0
  3  4  1  0
  3 32  1  0
  4  9  2  0
  4  5  1  0
  5  6  2  0
  5 33  1  0
  6  7  1  0
  6 34  1  0
  7 19  1  0
  7  8  2  0
  8  9  1  0
  8 10  1  0
  9 35  1  0
 11 10  1  1
 10 36  1  0
 10 37  1  0
 11 17  1  0
 11 12  1  0
 11 18  1  0
 12 13  2  0
 12 48  1  0
 13 14  1  0
 13 15  1  0
 14 38  1  0
 14 39  1  0
 15 17  1  0
 15 16  1  0
 15 40  1  1
 16 17  1  0
 16 41  1  0
 16 42  1  0
 17 43  1  1
 18 26  1  0
 18 19  1  0
 18 20  1  0
 19 44  1  0
 19 45  1  0
 20 21  2  0
 20 22  1  0
 22 23  1  0
 22 46  1  0
 23 24  2  0
 23 25  1  0
 25 26  1  0
 25 47  1  0
 26 27  2  0
M  CHG  1  12   1
M  END
>  <i_m_ct_stereo_status>  (8) 
1

>  <s_m_source_file>  (8) 
/var/tmp/pbs.5076255.sched01/tmp6mrmgolx/06cp14zw5.sdf

>  <i_m_source_file_index>  (8) 
3

>  <i_lp_mmshare_version>  (8) 
48012

>  <i_f3d_flags>  (8) 
0

>  <s_epik_input>  (8) 
W0NIM10vW0NIXT1bQ0hdL2MoW2NIXVtjSF0xKVtjSF1jKFtDSDJdMiljMVtDSDJdQzMoW0NAXTI0W0NASF01W0NIXShbQ0gyXTUpQyg9TjQpW05IMl0pQyg9TylbTkhdQyg9TylbTkhdQzM9Tw==

>  <s_epik_cmdline>  (8) 
J2VwaWtfcHl0aG9uJywgJy1waHQnLCAnMi4wJywgJy1waCcsICc3LjAnLCAnLXRuJywgJzgnLCAnLW1hJywgJzIwMCcsICctaW1hZScsICc8aW5maWxlLm1hZT4nLCAnLW9tYWUnLCAnPG91dGZpbGUubWFlPic=

>  <r_lp_tautomer_probability>  (8) 
1

>  <r_epik_Ionization_Penalty>  (8) 
0.478584

>  <r_epik_Ionization_Penalty_Charging>  (8) 
0.107945

>  <r_epik_Ionization_Penalty_Neutral>  (8) 
0.370639

>  <r_epik_State_Penalty>  (8) 
0.659842

>  <r_epik_Charging_Adjusted_Penalty>  (8) 
0.767788

>  <i_epik_Tot_Q>  (8) 
1

>  <i_epik_Tot_abs_Q>  (8) 
1

>  <s_epik_Chemistry_Notes>  (8) 
This compound has an imine and may undergo hydrolysis.

>  <s_lp_Force_Field>  (8) 
OPLS3e

>  <r_lp_Energy>  (8) 
35.9563

>  <b_lp_Chiralities_Consistent>  (8) 
1

>  <s_lp_Variant>  (8) 
1:0-1

>  <s_i_glide_gridfile>  (8) 
pfpi4k_grid

>  <i_i_glide_lignum>  (8) 
3

>  <i_i_glide_rotatable_bonds>  (8) 
1

>  <r_i_docking_score>  (8) 
-2.95071

>  <r_i_glide_ligand_efficiency>  (8) 
-0.109286

>  <r_i_glide_ligand_efficiency_sa>  (8) 
-0.327857

>  <r_i_glide_ligand_efficiency_ln>  (8) 
-0.686877

>  <r_i_glide_gscore>  (8) 
-2.95071

>  <r_i_glide_lipo>  (8) 
-0.083619

>  <r_i_glide_hbond>  (8) 
-0.0938871

>  <r_i_glide_metal>  (8) 
-0

>  <r_i_glide_rewards>  (8) 
-1.05811

>  <r_i_glide_evdw>  (8) 
-23.4736

>  <r_i_glide_ecoul>  (8) 
-3.97256

>  <r_i_glide_erotb>  (8) 
0.144065

>  <r_i_glide_esite>  (8) 
-0.0895925

>  <r_i_glide_emodel>  (8) 
-32.9202

>  <r_i_glide_energy>  (8) 
-27.4461

>  <r_i_glide_einternal>  (8) 
0.0209372

>  <r_i_glide_intrahb_reward>  (8) 
-0

>  <i_i_glide_confnum>  (8) 
3

>  <i_i_glide_posenum>  (8) 
25

>  <r_i_glide_eff_state_penalty>  (8) 
0

>  <ligand_id>  (8) 
1

>  <original_smiles>  (8) 
CC=Cc1ccc2c(c1)CC1(N=C(N)C3CC31)C1(C2)C(=O)NC(=O)NC1=O

>  <smiles>  (8) 
[H]C(=C([H])C([H])([H])[H])c1c([H])c([H])c2c(c1[H])C([H])([H])C1([N+]([H])=C(N([H])[H])C3([H])C([H])([H])C31[H])C1(C(=O)N([H])C(=O)N([H])C1=O)C2([H])[H]

$$$$
1:0:2
     RDKit          3D

 48 52  0  0  1  0  0  0  0  0999 V2000
    0.5878    1.7499    2.4785 C   0  0  0  0  0  0  0  0  0  0  0  0
    1.0676    0.3439    2.2190 C   0  0  0  0  0  0  0  0  0  0  0  0
    1.0778   -0.6278    3.1445 C   0  0  0  0  0  0  0  0  0  0  0  0
    1.5635   -1.9976    2.9332 C   0  0  0  0  0  0  0  0  0  0  0  0
    2.3178   -2.3568    1.7913 C   0  0  0  0  0  0  0  0  0  0  0  0
    2.7566   -3.6800    1.6125 C   0  0  0  0  0  0  0  0  0  0  0  0
    2.4472   -4.6674    2.5643 C   0  0  0  0  0  0  0  0  0  0  0  0
    1.6830   -4.3199    3.7104 C   0  0  0  0  0  0  0  0  0  0  0  0
    1.2437   -2.9919    3.8819 C   0  0  0  0  0  0  0  0  0  0  0  0
    1.2619   -5.3545    4.7464 C   0  0  0  0  0  0  0  0  0  0  0  0
    2.0370   -6.6805    4.6366 C   0  0  1  0  0  0  0  0  0  0  0  0
    3.4019   -6.4790    5.1812 N   0  0  0  0  0  0  0  0  0  0  0  0
    3.6752   -7.2599    6.2109 C   0  0  0  0  0  0  0  0  0  0  0  0
    4.8585   -7.3154    6.8735 N   0  0  0  0  0  0  0  0  0  0  0  0
    2.5274   -8.1152    6.5737 C   0  0  1  0  0  0  0  0  0  0  0  0
    1.2081   -7.5655    7.0461 C   0  0  0  0  0  0  0  0  0  0  0  0
    1.4579   -7.7512    5.5764 C   0  0  1  0  0  0  0  0  0  0  0  0
    2.1580   -7.1621    3.1489 C   0  0  0  0  0  0  0  0  0  0  0  0
    2.9084   -6.0990    2.3038 C   0  0  0  0  0  0  0  0  0  0  0  0
    2.8496   -8.5496    3.0498 C   0  0  0  0  0  0  0  0  0  0  0  0
    4.0601   -8.5967    3.2257 O   0  0  0  0  0  0  0  0  0  0  0  0
    2.1262   -9.6658    2.8512 N   0  0  0  0  0  0  0  0  0  0  0  0
    0.8015   -9.7170    2.6037 C   0  0  0  0  0  0  0  0  0  0  0  0
    0.1944  -10.7765    2.5213 O   0  0  0  0  0  0  0  0  0  0  0  0
    0.1708   -8.5513    2.4208 N   0  0  0  0  0  0  0  0  0  0  0  0
    0.7588   -7.3693    2.4995 C   0  0  0  0  0  0  0  0  0  0  0  0
    0.0970   -6.4084    2.1194 O   0  0  0  0  0  0  0  0  0  0  0  0
   -0.2450    1.9866    1.8140 H   0  0  0  0  0  0  0  0  0  0  0  0
    1.3920    2.4593    2.2772 H   0  0  0  0  0  0  0  0  0  0  0  0
    0.2628    1.8746    3.5116 H   0  0  0  0  0  0  0  0  0  0  0  0
    1.4035    0.1557    1.2115 H   0  0  0  0  0  0  0  0  0  0  0  0
    0.7178   -0.3986    4.1365 H   0  0  0  0  0  0  0  0  0  0  0  0
    2.5677   -1.6342    1.0249 H   0  0  0  0  0  0  0  0  0  0  0  0
    3.3110   -3.9463    0.7207 H   0  0  0  0  0  0  0  0  0  0  0  0
    0.6385   -2.7390    4.7452 H   0  0  0  0  0  0  0  0  0  0  0  0
    1.3800   -4.9173    5.7348 H   0  0  0  0  0  0  0  0  0  0  0  0
    0.1945   -5.5505    4.6467 H   0  0  0  0  0  0  0  0  0  0  0  0
    5.6325   -6.7410    6.5825 H   0  0  0  0  0  0  0  0  0  0  0  0
    4.9809   -7.9640    7.6394 H   0  0  0  0  0  0  0  0  0  0  0  0
    2.7680   -9.1779    6.6428 H   0  0  0  0  0  0  0  0  0  0  0  0
    0.5096   -8.2696    7.4885 H   0  0  0  0  0  0  0  0  0  0  0  0
    1.1665   -6.5455    7.4266 H   0  0  0  0  0  0  0  0  0  0  0  0
    0.9062   -8.5617    5.1059 H   0  0  0  0  0  0  0  0  0  0  0  0
    2.8274   -6.3129    1.2339 H   0  0  0  0  0  0  0  0  0  0  0  0
    3.9726   -6.1234    2.5095 H   0  0  0  0  0  0  0  0  0  0  0  0
    2.6353  -10.5327    2.9441 H   0  0  0  0  0  0  0  0  0  0  0  0
   -0.8032   -8.6533    2.1473 H   0  0  0  0  0  0  0  0  0  0  0  0
    4.0631   -5.8308    4.7659 H   0  0  0  0  0  0  0  0  0  0  0  0
  1  2  1  0
  1 28  1  0
  1 29  1  0
  1 30  1  0
  2  3  2  3
  2 31  1  0
  3  4  1  0
  3 32  1  0
  4  9  2  0
  4  5  1  0
  5  6  2  0
  5 33  1  0
  6  7  1  0
  6 34  1  0
  7 19  1  0
  7  8  2  0
  8  9  1  0
  8 10  1  0
  9 35  1  0
 11 10  1  6
 10 36  1  0
 10 37  1  0
 11 17  1  0
 11 12  1  0
 11 18  1  0
 12 13  2  0
 12 48  1  0
 13 14  1  0
 13 15  1  0
 14 38  1  0
 14 39  1  0
 15 17  1  0
 15 16  1  0
 15 40  1  1
 16 17  1  0
 16 41  1  0
 16 42  1  0
 17 43  1  6
 18 26  1  0
 18 19  1  0
 18 20  1  0
 19 44  1  0
 19 45  1  0
 20 21  2  0
 20 22  1  0
 22 23  1  0
 22 46  1  0
 23 24  2  0
 23 25  1  0
 25 26  1  0
 25 47  1  0
 26 27  2  0
M  CHG  1  12   1
M  END
>  <i_m_ct_stereo_status>  (9) 
1

>  <s_m_source_file>  (9) 
/var/tmp/pbs.5076255.sched01/tmp6mrmgolx/06cp14zw5.sdf

>  <i_m_source_file_index>  (9) 
3

>  <i_lp_mmshare_version>  (9) 
48012

>  <i_f3d_flags>  (9) 
0

>  <s_epik_input>  (9) 
W0NIM10vW0NIXT1bQ0hdL2MoW2NIXVtjSF0xKVtjSF1jKFtDSDJdMiljMVtDSDJdQzMoW0NAXTI0W0NASF01W0NIXShbQ0gyXTUpQyg9TjQpW05IMl0pQyg9TylbTkhdQyg9TylbTkhdQzM9Tw==

>  <s_epik_cmdline>  (9) 
J2VwaWtfcHl0aG9uJywgJy1waHQnLCAnMi4wJywgJy1waCcsICc3LjAnLCAnLXRuJywgJzgnLCAnLW1hJywgJzIwMCcsICctaW1hZScsICc8aW5maWxlLm1hZT4nLCAnLW9tYWUnLCAnPG91dGZpbGUubWFlPic=

>  <r_lp_tautomer_probability>  (9) 
1

>  <r_epik_Ionization_Penalty>  (9) 
0.478584

>  <r_epik_Ionization_Penalty_Charging>  (9) 
0.107945

>  <r_epik_Ionization_Penalty_Neutral>  (9) 
0.370639

>  <r_epik_State_Penalty>  (9) 
0.659842

>  <r_epik_Charging_Adjusted_Penalty>  (9) 
0.767788

>  <i_epik_Tot_Q>  (9) 
1

>  <i_epik_Tot_abs_Q>  (9) 
1

>  <s_epik_Chemistry_Notes>  (9) 
This compound has an imine and may undergo hydrolysis.

>  <s_lp_Force_Field>  (9) 
OPLS3e

>  <r_lp_Energy>  (9) 
35.9563

>  <b_lp_Chiralities_Consistent>  (9) 
1

>  <s_lp_Variant>  (9) 
1:0-1

>  <s_i_glide_gridfile>  (9) 
pfpi4k_grid

>  <i_i_glide_lignum>  (9) 
3

>  <i_i_glide_rotatable_bonds>  (9) 
1

>  <r_i_docking_score>  (9) 
-2.91578

>  <r_i_glide_ligand_efficiency>  (9) 
-0.107992

>  <r_i_glide_ligand_efficiency_sa>  (9) 
-0.323976

>  <r_i_glide_ligand_efficiency_ln>  (9) 
-0.678746

>  <r_i_glide_gscore>  (9) 
-2.91578

>  <r_i_glide_lipo>  (9) 
-0.034601

>  <r_i_glide_hbond>  (9) 
-0.220656

>  <r_i_glide_metal>  (9) 
-0

>  <r_i_glide_rewards>  (9) 
-1.01403

>  <r_i_glide_evdw>  (9) 
-21.7402

>  <r_i_glide_ecoul>  (9) 
-4.12078

>  <r_i_glide_erotb>  (9) 
0.144065

>  <r_i_glide_esite>  (9) 
-0.0854363

>  <r_i_glide_emodel>  (9) 
-31.0345

>  <r_i_glide_energy>  (9) 
-25.861

>  <r_i_glide_einternal>  (9) 
0.226665

>  <r_i_glide_intrahb_reward>  (9) 
-0

>  <i_i_glide_confnum>  (9) 
3

>  <i_i_glide_posenum>  (9) 
2

>  <r_i_glide_eff_state_penalty>  (9) 
0

>  <ligand_id>  (9) 
1

>  <original_smiles>  (9) 
CC=Cc1ccc2c(c1)CC1(N=C(N)C3CC31)C1(C2)C(=O)NC(=O)NC1=O

>  <smiles>  (9) 
[H]C(=C([H])C([H])([H])[H])c1c([H])c([H])c2c(c1[H])C([H])([H])C1([N+]([H])=C(N([H])[H])C3([H])C([H])([H])C31[H])C1(C(=O)N([H])C(=O)N([H])C1=O)C2([H])[H]

$$$$
1:1:0
     RDKit          3D

 48 52  0  0  1  0  0  0  0  0999 V2000
    4.2313   -2.8956   -3.0029 C   0  0  0  0  0  0  0  0  0  0  0  0
    4.3850   -1.6796   -2.0958 C   0  0  0  0  0  0  0  0  0  0  0  0
    4.2706   -1.5661   -0.7558 C   0  0  0  0  0  0  0  0  0  0  0  0
    4.0358   -2.6263    0.2440 C   0  0  0  0  0  0  0  0  0  0  0  0
    3.3600   -2.3023    1.4484 C   0  0  0  0  0  0  0  0  0  0  0  0
    3.0641   -3.3084    2.4003 C   0  0  0  0  0  0  0  0  0  0  0  0
    3.3980   -4.6540    2.1301 C   0  0  0  0  0  0  0  0  0  0  0  0
    4.0736   -4.9729    0.9277 C   0  0  0  0  0  0  0  0  0  0  0  0
    4.4168   -3.9612    0.0373 C   0  0  0  0  0  0  0  0  0  0  0  0
    4.4392   -6.3935    0.5560 C   0  0  0  0  0  0  0  0  0  0  0  0
    4.4286   -7.3390    1.7602 C   0  0  1  0  0  0  0  0  0  0  0  0
    4.5255   -8.7484    1.2875 N   0  0  0  0  0  0  0  0  0  0  0  0
    5.5823   -9.3769    1.7998 C   0  0  0  0  0  0  0  0  0  0  0  0
    5.8249  -10.6881    1.6275 N   0  0  0  0  0  0  0  0  0  0  0  0
    6.4245   -8.4854    2.6066 C   0  0  1  0  0  0  0  0  0  0  0  0
    7.1157   -7.2722    2.0330 C   0  0  0  0  0  0  0  0  0  0  0  0
    5.7204   -7.1685    2.5768 C   0  0  1  0  0  0  0  0  0  0  0  0
    3.1380   -7.1554    2.6391 C   0  0  0  0  0  0  0  0  0  0  0  0
    3.0602   -5.7035    3.1736 C   0  0  0  0  0  0  0  0  0  0  0  0
    3.1617   -8.1108    3.8785 C   0  0  0  0  0  0  0  0  0  0  0  0
    3.8551   -7.8397    4.8533 O   0  0  0  0  0  0  0  0  0  0  0  0
    2.4525   -9.2772    3.8380 N   0  0  0  0  0  0  0  0  0  0  0  0
    1.5384   -9.5956    2.9164 C   0  0  0  0  0  0  0  0  0  0  0  0
    0.9512  -10.6679    2.9279 O   0  0  0  0  0  0  0  0  0  0  0  0
    1.2460   -8.6936    1.9789 N   0  0  0  0  0  0  0  0  0  0  0  0
    1.8468   -7.5103    1.8206 C   0  0  0  0  0  0  0  0  0  0  0  0
    1.4216   -6.7068    0.9933 O   0  0  0  0  0  0  0  0  0  0  0  0
    5.0703   -2.9336   -3.6821 H   0  0  0  0  0  0  0  0  0  0  0  0
    3.3131   -2.8119   -3.5716 H   0  0  0  0  0  0  0  0  0  0  0  0
    4.1665   -3.8643   -2.5265 H   0  0  0  0  0  0  0  0  0  0  0  0
    4.5779   -0.7498   -2.6231 H   0  0  0  0  0  0  0  0  0  0  0  0
    4.3939   -0.5779   -0.3204 H   0  0  0  0  0  0  0  0  0  0  0  0
    3.0713   -1.2763    1.6647 H   0  0  0  0  0  0  0  0  0  0  0  0
    2.5726   -3.0457    3.3330 H   0  0  0  0  0  0  0  0  0  0  0  0
    5.0138   -4.2637   -0.8099 H   0  0  0  0  0  0  0  0  0  0  0  0
    3.7720   -6.7254   -0.2336 H   0  0  0  0  0  0  0  0  0  0  0  0
    5.4007   -6.3897    0.0607 H   0  0  0  0  0  0  0  0  0  0  0  0
    5.1735  -11.2783    1.1048 H   0  0  0  0  0  0  0  0  0  0  0  0
    6.6454  -11.0756    2.0576 H   0  0  0  0  0  0  0  0  0  0  0  0
    6.6615   -8.8698    3.5986 H   0  0  0  0  0  0  0  0  0  0  0  0
    7.8945   -6.8102    2.6321 H   0  0  0  0  0  0  0  0  0  0  0  0
    7.2487   -7.2139    0.9561 H   0  0  0  0  0  0  0  0  0  0  0  0
    5.6324   -6.6172    3.5101 H   0  0  0  0  0  0  0  0  0  0  0  0
    3.7695   -5.5247    3.9923 H   0  0  0  0  0  0  0  0  0  0  0  0
    2.0727   -5.4950    3.5958 H   0  0  0  0  0  0  0  0  0  0  0  0
    2.6102   -9.9396    4.5954 H   0  0  0  0  0  0  0  0  0  0  0  0
    0.5349   -8.9216    1.2964 H   0  0  0  0  0  0  0  0  0  0  0  0
    3.7805   -9.2080    0.7705 H   0  0  0  0  0  0  0  0  0  0  0  0
  1  2  1  0
  1 28  1  0
  1 29  1  0
  1 30  1  0
  2  3  2  3
  2 31  1  0
  3  4  1  0
  3 32  1  0
  4  9  2  0
  4  5  1  0
  5  6  2  0
  5 33  1  0
  6  7  1  0
  6 34  1  0
  7 19  1  0
  7  8  2  0
  8  9  1  0
  8 10  1  0
  9 35  1  0
 11 10  1  6
 10 36  1  0
 10 37  1  0
 11 17  1  0
 11 12  1  0
 11 18  1  0
 12 13  2  0
 12 48  1  0
 13 14  1  0
 13 15  1  0
 14 38  1  0
 14 39  1  0
 15 17  1  0
 15 16  1  0
 15 40  1  1
 16 17  1  0
 16 41  1  0
 16 42  1  0
 17 43  1  1
 18 26  1  0
 18 19  1  0
 18 20  1  0
 19 44  1  0
 19 45  1  0
 20 21  2  0
 20 22  1  0
 22 23  1  0
 22 46  1  0
 23 24  2  0
 23 25  1  0
 25 26  1  0
 25 47  1  0
 26 27  2  0
M  CHG  1  12   1
M  END
>  <i_m_ct_stereo_status>  (10) 
1

>  <s_m_source_file>  (10) 
/var/tmp/pbs.5076255.sched01/tmp6mrmgolx/06cp14zw5.sdf

>  <i_m_source_file_index>  (10) 
4

>  <i_lp_mmshare_version>  (10) 
48012

>  <i_f3d_flags>  (10) 
0

>  <s_epik_input>  (10) 
W0NIM10vW0NIXT1bQ0hdL2MoW2NIXVtjSF0xKVtjSF1jKFtDSDJdMiljMVtDSDJdQzMoW0NAXTI0W0NASF01W0NIXShbQ0gyXTUpQyg9TjQpW05IMl0pQyg9TylbTkhdQyg9TylbTkhdQzM9Tw==

>  <s_epik_cmdline>  (10) 
J2VwaWtfcHl0aG9uJywgJy1waHQnLCAnMi4wJywgJy1waCcsICc3LjAnLCAnLXRuJywgJzgnLCAnLW1hJywgJzIwMCcsICctaW1hZScsICc8aW5maWxlLm1hZT4nLCAnLW9tYWUnLCAnPG91dGZpbGUubWFlPic=

>  <r_lp_tautomer_probability>  (10) 
1

>  <r_epik_Ionization_Penalty>  (10) 
0.478584

>  <r_epik_Ionization_Penalty_Charging>  (10) 
0.107945

>  <r_epik_Ionization_Penalty_Neutral>  (10) 
0.370639

>  <r_epik_State_Penalty>  (10) 
0.659842

>  <r_epik_Charging_Adjusted_Penalty>  (10) 
0.767788

>  <i_epik_Tot_Q>  (10) 
1

>  <i_epik_Tot_abs_Q>  (10) 
1

>  <s_epik_Chemistry_Notes>  (10) 
This compound has an imine and may undergo hydrolysis.

>  <s_lp_Force_Field>  (10) 
OPLS3e

>  <r_lp_Energy>  (10) 
38.4891

>  <b_lp_Chiralities_Consistent>  (10) 
1

>  <s_lp_Variant>  (10) 
1:0-2

>  <s_i_glide_gridfile>  (10) 
pfpi4k_grid

>  <i_i_glide_lignum>  (10) 
4

>  <i_i_glide_rotatable_bonds>  (10) 
1

>  <r_i_docking_score>  (10) 
-4.65802

>  <r_i_glide_ligand_efficiency>  (10) 
-0.172519

>  <r_i_glide_ligand_efficiency_sa>  (10) 
-0.517558

>  <r_i_glide_ligand_efficiency_ln>  (10) 
-1.08431

>  <r_i_glide_gscore>  (10) 
-4.65802

>  <r_i_glide_lipo>  (10) 
-0.416607

>  <r_i_glide_hbond>  (10) 
-0.52

>  <r_i_glide_metal>  (10) 
-0

>  <r_i_glide_rewards>  (10) 
-0.975748

>  <r_i_glide_evdw>  (10) 
-26.44

>  <r_i_glide_ecoul>  (10) 
-9.14962

>  <r_i_glide_erotb>  (10) 
0.144065

>  <r_i_glide_esite>  (10) 
-0.195287

>  <r_i_glide_emodel>  (10) 
-47.9034

>  <r_i_glide_energy>  (10) 
-35.5897

>  <r_i_glide_einternal>  (10) 
0.399759

>  <r_i_glide_intrahb_reward>  (10) 
-0

>  <i_i_glide_confnum>  (10) 
4

>  <i_i_glide_posenum>  (10) 
37

>  <r_i_glide_eff_state_penalty>  (10) 
0

>  <ligand_id>  (10) 
1

>  <original_smiles>  (10) 
CC=Cc1ccc2c(c1)CC1(N=C(N)C3CC31)C1(C2)C(=O)NC(=O)NC1=O

>  <smiles>  (10) 
[H]C(=C([H])C([H])([H])[H])c1c([H])c([H])c2c(c1[H])C([H])([H])C1([N+]([H])=C(N([H])[H])C3([H])C([H])([H])C31[H])C1(C(=O)N([H])C(=O)N([H])C1=O)C2([H])[H]

$$$$
1:1:1
     RDKit          3D

 48 52  0  0  1  0  0  0  0  0999 V2000
    4.6188   -0.5511    0.8964 C   0  0  0  0  0  0  0  0  0  0  0  0
    5.7392   -1.5756    0.8048 C   0  0  0  0  0  0  0  0  0  0  0  0
    5.7180   -2.8723    1.1782 C   0  0  0  0  0  0  0  0  0  0  0  0
    4.6319   -3.6077    1.8534 C   0  0  0  0  0  0  0  0  0  0  0  0
    3.7087   -2.9562    2.7003 C   0  0  0  0  0  0  0  0  0  0  0  0
    2.6530   -3.6595    3.2890 C   0  0  0  0  0  0  0  0  0  0  0  0
    2.5177   -5.0370    3.0788 C   0  0  0  0  0  0  0  0  0  0  0  0
    3.4519   -5.7184    2.2571 C   0  0  0  0  0  0  0  0  0  0  0  0
    4.4966   -4.9976    1.6407 C   0  0  0  0  0  0  0  0  0  0  0  0
    3.3499   -7.2112    2.0003 C   0  0  0  0  0  0  0  0  0  0  0  0
    2.4267   -7.9297    3.0119 C   0  0  1  0  0  0  0  0  0  0  0  0
    2.1437   -9.3075    2.5369 N   0  0  0  0  0  0  0  0  0  0  0  0
    2.5125  -10.2313    3.4209 C   0  0  0  0  0  0  0  0  0  0  0  0
    2.2794  -11.5434    3.2910 N   0  0  0  0  0  0  0  0  0  0  0  0
    3.2007   -9.6411    4.5868 C   0  0  1  0  0  0  0  0  0  0  0  0
    4.4877   -8.8712    4.4834 C   0  0  0  0  0  0  0  0  0  0  0  0
    3.1736   -8.1639    4.3395 C   0  0  1  0  0  0  0  0  0  0  0  0
    1.0831   -7.1561    3.2394 C   0  0  0  0  0  0  0  0  0  0  0  0
    1.3693   -5.7390    3.7727 C   0  0  0  0  0  0  0  0  0  0  0  0
    0.1575   -7.8904    4.2682 C   0  0  0  0  0  0  0  0  0  0  0  0
    0.3775   -7.7910    5.4708 O   0  0  0  0  0  0  0  0  0  0  0  0
   -0.8509   -8.6640    3.8473 N   0  0  0  0  0  0  0  0  0  0  0  0
   -1.2972   -8.6977    2.5867 C   0  0  0  0  0  0  0  0  0  0  0  0
   -2.1917   -9.4458    2.2311 O   0  0  0  0  0  0  0  0  0  0  0  0
   -0.7495   -7.8698    1.6963 N   0  0  0  0  0  0  0  0  0  0  0  0
    0.2823   -7.0556    1.9058 C   0  0  0  0  0  0  0  0  0  0  0  0
    0.5934   -6.2663    1.0216 O   0  0  0  0  0  0  0  0  0  0  0  0
    4.5490    0.0082   -0.0357 H   0  0  0  0  0  0  0  0  0  0  0  0
    4.8260    0.1478    1.7064 H   0  0  0  0  0  0  0  0  0  0  0  0
    3.6311   -0.9856    1.0524 H   0  0  0  0  0  0  0  0  0  0  0  0
    6.6585   -1.1972    0.3849 H   0  0  0  0  0  0  0  0  0  0  0  0
    6.6107   -3.4550    0.9961 H   0  0  0  0  0  0  0  0  0  0  0  0
    3.7946   -1.9027    2.9296 H   0  0  0  0  0  0  0  0  0  0  0  0
    1.9486   -3.1287    3.9123 H   0  0  0  0  0  0  0  0  0  0  0  0
    5.2007   -5.5151    0.9982 H   0  0  0  0  0  0  0  0  0  0  0  0
    2.9961   -7.3527    0.9784 H   0  0  0  0  0  0  0  0  0  0  0  0
    4.3458   -7.6419    2.0003 H   0  0  0  0  0  0  0  0  0  0  0  0
    1.8059  -11.9245    2.4845 H   0  0  0  0  0  0  0  0  0  0  0  0
    2.6051  -12.1758    4.0057 H   0  0  0  0  0  0  0  0  0  0  0  0
    2.7962   -9.9745    5.5439 H   0  0  0  0  0  0  0  0  0  0  0  0
    5.0360   -8.6766    5.4013 H   0  0  0  0  0  0  0  0  0  0  0  0
    5.0966   -8.9957    3.5866 H   0  0  0  0  0  0  0  0  0  0  0  0
    2.9021   -7.5167    5.1745 H   0  0  0  0  0  0  0  0  0  0  0  0
    1.6350   -5.7491    4.8346 H   0  0  0  0  0  0  0  0  0  0  0  0
    0.4760   -5.1153    3.7199 H   0  0  0  0  0  0  0  0  0  0  0  0
   -1.3150   -9.2802    4.5104 H   0  0  0  0  0  0  0  0  0  0  0  0
   -1.1121   -7.9127    0.7625 H   0  0  0  0  0  0  0  0  0  0  0  0
    1.6107   -9.4887    1.6963 H   0  0  0  0  0  0  0  0  0  0  0  0
  1  2  1  0
  1 28  1  0
  1 29  1  0
  1 30  1  0
  2  3  2  3
  2 31  1  0
  3  4  1  0
  3 32  1  0
  4  9  2  0
  4  5  1  0
  5  6  2  0
  5 33  1  0
  6  7  1  0
  6 34  1  0
  7 19  1  0
  7  8  2  0
  8  9  1  0
  8 10  1  0
  9 35  1  0
 11 10  1  6
 10 36  1  0
 10 37  1  0
 11 17  1  0
 11 12  1  0
 11 18  1  0
 12 13  2  0
 12 48  1  0
 13 14  1  0
 13 15  1  0
 14 38  1  0
 14 39  1  0
 15 17  1  0
 15 16  1  0
 15 40  1  1
 16 17  1  0
 16 41  1  0
 16 42  1  0
 17 43  1  1
 18 26  1  0
 18 19  1  0
 18 20  1  0
 19 44  1  0
 19 45  1  0
 20 21  2  0
 20 22  1  0
 22 23  1  0
 22 46  1  0
 23 24  2  0
 23 25  1  0
 25 26  1  0
 25 47  1  0
 26 27  2  0
M  CHG  1  12   1
M  END
>  <i_m_ct_stereo_status>  (11) 
1

>  <s_m_source_file>  (11) 
/var/tmp/pbs.5076255.sched01/tmp6mrmgolx/06cp14zw5.sdf

>  <i_m_source_file_index>  (11) 
4

>  <i_lp_mmshare_version>  (11) 
48012

>  <i_f3d_flags>  (11) 
0

>  <s_epik_input>  (11) 
W0NIM10vW0NIXT1bQ0hdL2MoW2NIXVtjSF0xKVtjSF1jKFtDSDJdMiljMVtDSDJdQzMoW0NAXTI0W0NASF01W0NIXShbQ0gyXTUpQyg9TjQpW05IMl0pQyg9TylbTkhdQyg9TylbTkhdQzM9Tw==

>  <s_epik_cmdline>  (11) 
J2VwaWtfcHl0aG9uJywgJy1waHQnLCAnMi4wJywgJy1waCcsICc3LjAnLCAnLXRuJywgJzgnLCAnLW1hJywgJzIwMCcsICctaW1hZScsICc8aW5maWxlLm1hZT4nLCAnLW9tYWUnLCAnPG91dGZpbGUubWFlPic=

>  <r_lp_tautomer_probability>  (11) 
1

>  <r_epik_Ionization_Penalty>  (11) 
0.478584

>  <r_epik_Ionization_Penalty_Charging>  (11) 
0.107945

>  <r_epik_Ionization_Penalty_Neutral>  (11) 
0.370639

>  <r_epik_State_Penalty>  (11) 
0.659842

>  <r_epik_Charging_Adjusted_Penalty>  (11) 
0.767788

>  <i_epik_Tot_Q>  (11) 
1

>  <i_epik_Tot_abs_Q>  (11) 
1

>  <s_epik_Chemistry_Notes>  (11) 
This compound has an imine and may undergo hydrolysis.

>  <s_lp_Force_Field>  (11) 
OPLS3e

>  <r_lp_Energy>  (11) 
38.4891

>  <b_lp_Chiralities_Consistent>  (11) 
1

>  <s_lp_Variant>  (11) 
1:0-2

>  <s_i_glide_gridfile>  (11) 
pfpi4k_grid

>  <i_i_glide_lignum>  (11) 
4

>  <i_i_glide_rotatable_bonds>  (11) 
1

>  <r_i_docking_score>  (11) 
-4.34609

>  <r_i_glide_ligand_efficiency>  (11) 
-0.160966

>  <r_i_glide_ligand_efficiency_sa>  (11) 
-0.482899

>  <r_i_glide_ligand_efficiency_ln>  (11) 
-1.0117

>  <r_i_glide_gscore>  (11) 
-4.34609

>  <r_i_glide_lipo>  (11) 
-0.393783

>  <r_i_glide_hbond>  (11) 
-0.30782

>  <r_i_glide_metal>  (11) 
-0

>  <r_i_glide_rewards>  (11) 
-0.953665

>  <r_i_glide_evdw>  (11) 
-26.5291

>  <r_i_glide_ecoul>  (11) 
-8.16334

>  <r_i_glide_erotb>  (11) 
0.144065

>  <r_i_glide_esite>  (11) 
-0.28393

>  <r_i_glide_emodel>  (11) 
-46.7554

>  <r_i_glide_energy>  (11) 
-34.6925

>  <r_i_glide_einternal>  (11) 
0.000980769

>  <r_i_glide_intrahb_reward>  (11) 
-0

>  <i_i_glide_confnum>  (11) 
4

>  <i_i_glide_posenum>  (11) 
11

>  <r_i_glide_eff_state_penalty>  (11) 
0

>  <ligand_id>  (11) 
1

>  <original_smiles>  (11) 
CC=Cc1ccc2c(c1)CC1(N=C(N)C3CC31)C1(C2)C(=O)NC(=O)NC1=O

>  <smiles>  (11) 
[H]C(=C([H])C([H])([H])[H])c1c([H])c([H])c2c(c1[H])C([H])([H])C1([N+]([H])=C(N([H])[H])C3([H])C([H])([H])C31[H])C1(C(=O)N([H])C(=O)N([H])C1=O)C2([H])[H]

$$$$
1:1:2
     RDKit          3D

 48 52  0  0  1  0  0  0  0  0999 V2000
    4.3329   -2.9329   -2.5713 C   0  0  0  0  0  0  0  0  0  0  0  0
    4.4090   -1.6855   -1.6918 C   0  0  0  0  0  0  0  0  0  0  0  0
    4.1087   -1.5259   -0.3833 C   0  0  0  0  0  0  0  0  0  0  0  0
    3.6587   -2.5261    0.5998 C   0  0  0  0  0  0  0  0  0  0  0  0
    2.8363   -2.1261    1.6765 C   0  0  0  0  0  0  0  0  0  0  0  0
    2.3494   -3.0806    2.6012 C   0  0  0  0  0  0  0  0  0  0  0  0
    2.6418   -4.4504    2.4259 C   0  0  0  0  0  0  0  0  0  0  0  0
    3.4642   -4.8522    1.3513 C   0  0  0  0  0  0  0  0  0  0  0  0
    3.9988   -3.8908    0.4805 C   0  0  0  0  0  0  0  0  0  0  0  0
    3.8012   -6.3019    1.0729 C   0  0  0  0  0  0  0  0  0  0  0  0
    3.5685   -7.2088    2.2911 C   0  0  1  0  0  0  0  0  0  0  0  0
    3.6461   -8.6295    1.8831 N   0  0  0  0  0  0  0  0  0  0  0  0
    4.5726   -9.3026    2.5632 C   0  0  0  0  0  0  0  0  0  0  0  0
    4.7661  -10.6301    2.4815 N   0  0  0  0  0  0  0  0  0  0  0  0
    5.3435   -8.4152    3.4654 C   0  0  1  0  0  0  0  0  0  0  0  0
    6.1754   -7.2592    2.9693 C   0  0  0  0  0  0  0  0  0  0  0  0
    4.7183   -7.0577    3.2908 C   0  0  1  0  0  0  0  0  0  0  0  0
    2.1692   -6.9228    2.9661 C   0  0  0  0  0  0  0  0  0  0  0  0
    2.0956   -5.4402    3.4367 C   0  0  0  0  0  0  0  0  0  0  0  0
    1.9558   -7.8211    4.2232 C   0  0  0  0  0  0  0  0  0  0  0  0
    2.5034   -7.5548    5.2845 O   0  0  0  0  0  0  0  0  0  0  0  0
    1.2153   -8.9334    4.1224 N   0  0  0  0  0  0  0  0  0  0  0  0
    0.4306   -9.2417    3.0864 C   0  0  0  0  0  0  0  0  0  0  0  0
   -0.1865  -10.2954    3.0078 O   0  0  0  0  0  0  0  0  0  0  0  0
    0.3035   -8.3525    2.0803 N   0  0  0  0  0  0  0  0  0  0  0  0
    1.0050   -7.2204    1.9800 C   0  0  0  0  0  0  0  0  0  0  0  0
    0.7519   -6.4511    1.0524 O   0  0  0  0  0  0  0  0  0  0  0  0
    5.2631   -3.0384   -3.1190 H   0  0  0  0  0  0  0  0  0  0  0  0
    3.5089   -2.8295   -3.2747 H   0  0  0  0  0  0  0  0  0  0  0  0
    4.1447   -3.8779   -2.0832 H   0  0  0  0  0  0  0  0  0  0  0  0
    4.7329   -0.7943   -2.2096 H   0  0  0  0  0  0  0  0  0  0  0  0
    4.2169   -0.5254    0.0332 H   0  0  0  0  0  0  0  0  0  0  0  0
    2.5757   -1.0820    1.8144 H   0  0  0  0  0  0  0  0  0  0  0  0
    1.7364   -2.7595    3.4392 H   0  0  0  0  0  0  0  0  0  0  0  0
    4.6933   -4.2537   -0.2445 H   0  0  0  0  0  0  0  0  0  0  0  0
    3.2271   -6.6357    0.2090 H   0  0  0  0  0  0  0  0  0  0  0  0
    4.8266   -6.3702    0.7236 H   0  0  0  0  0  0  0  0  0  0  0  0
    4.2639  -11.2113    1.8111 H   0  0  0  0  0  0  0  0  0  0  0  0
    5.5155  -11.0387    3.0225 H   0  0  0  0  0  0  0  0  0  0  0  0
    5.4062   -8.7700    4.4945 H   0  0  0  0  0  0  0  0  0  0  0  0
    6.8801   -6.8093    3.6649 H   0  0  0  0  0  0  0  0  0  0  0  0
    6.4707   -7.2417    1.9230 H   0  0  0  0  0  0  0  0  0  0  0  0
    4.5287   -6.4710    4.1821 H   0  0  0  0  0  0  0  0  0  0  0  0
    2.6818   -5.2708    4.3449 H   0  0  0  0  0  0  0  0  0  0  0  0
    1.0692   -5.1697    3.6955 H   0  0  0  0  0  0  0  0  0  0  0  0
    1.2091   -9.5911    4.8993 H   0  0  0  0  0  0  0  0  0  0  0  0
   -0.2903   -8.5951    1.3084 H   0  0  0  0  0  0  0  0  0  0  0  0
    2.9673   -9.0628    1.2706 H   0  0  0  0  0  0  0  0  0  0  0  0
  1  2  1  0
  1 28  1  0
  1 29  1  0
  1 30  1  0
  2  3  2  3
  2 31  1  0
  3  4  1  0
  3 32  1  0
  4  9  2  0
  4  5  1  0
  5  6  2  0
  5 33  1  0
  6  7  1  0
  6 34  1  0
  7 19  1  0
  7  8  2  0
  8  9  1  0
  8 10  1  0
  9 35  1  0
 11 10  1  6
 10 36  1  0
 10 37  1  0
 11 17  1  0
 11 12  1  0
 11 18  1  0
 12 13  2  0
 12 48  1  0
 13 14  1  0
 13 15  1  0
 14 38  1  0
 14 39  1  0
 15 17  1  0
 15 16  1  0
 15 40  1  1
 16 17  1  0
 16 41  1  0
 16 42  1  0
 17 43  1  1
 18 26  1  0
 18 19  1  0
 18 20  1  0
 19 44  1  0
 19 45  1  0
 20 21  2  0
 20 22  1  0
 22 23  1  0
 22 46  1  0
 23 24  2  0
 23 25  1  0
 25 26  1  0
 25 47  1  0
 26 27  2  0
M  CHG  1  12   1
M  END
>  <i_m_ct_stereo_status>  (12) 
1

>  <s_m_source_file>  (12) 
/var/tmp/pbs.5076255.sched01/tmp6mrmgolx/06cp14zw5.sdf

>  <i_m_source_file_index>  (12) 
4

>  <i_lp_mmshare_version>  (12) 
48012

>  <i_f3d_flags>  (12) 
0

>  <s_epik_input>  (12) 
W0NIM10vW0NIXT1bQ0hdL2MoW2NIXVtjSF0xKVtjSF1jKFtDSDJdMiljMVtDSDJdQzMoW0NAXTI0W0NASF01W0NIXShbQ0gyXTUpQyg9TjQpW05IMl0pQyg9TylbTkhdQyg9TylbTkhdQzM9Tw==

>  <s_epik_cmdline>  (12) 
J2VwaWtfcHl0aG9uJywgJy1waHQnLCAnMi4wJywgJy1waCcsICc3LjAnLCAnLXRuJywgJzgnLCAnLW1hJywgJzIwMCcsICctaW1hZScsICc8aW5maWxlLm1hZT4nLCAnLW9tYWUnLCAnPG91dGZpbGUubWFlPic=

>  <r_lp_tautomer_probability>  (12) 
1

>  <r_epik_Ionization_Penalty>  (12) 
0.478584

>  <r_epik_Ionization_Penalty_Charging>  (12) 
0.107945

>  <r_epik_Ionization_Penalty_Neutral>  (12) 
0.370639

>  <r_epik_State_Penalty>  (12) 
0.659842

>  <r_epik_Charging_Adjusted_Penalty>  (12) 
0.767788

>  <i_epik_Tot_Q>  (12) 
1

>  <i_epik_Tot_abs_Q>  (12) 
1

>  <s_epik_Chemistry_Notes>  (12) 
This compound has an imine and may undergo hydrolysis.

>  <s_lp_Force_Field>  (12) 
OPLS3e

>  <r_lp_Energy>  (12) 
38.4891

>  <b_lp_Chiralities_Consistent>  (12) 
1

>  <s_lp_Variant>  (12) 
1:0-2

>  <s_i_glide_gridfile>  (12) 
pfpi4k_grid

>  <i_i_glide_lignum>  (12) 
4

>  <i_i_glide_rotatable_bonds>  (12) 
1

>  <r_i_docking_score>  (12) 
-4.32889

>  <r_i_glide_ligand_efficiency>  (12) 
-0.160329

>  <r_i_glide_ligand_efficiency_sa>  (12) 
-0.480988

>  <r_i_glide_ligand_efficiency_ln>  (12) 
-1.0077

>  <r_i_glide_gscore>  (12) 
-4.32889

>  <r_i_glide_lipo>  (12) 
-0.124796

>  <r_i_glide_hbond>  (12) 
-0.570243

>  <r_i_glide_metal>  (12) 
-0

>  <r_i_glide_rewards>  (12) 
-0.917688

>  <r_i_glide_evdw>  (12) 
-25.3803

>  <r_i_glide_ecoul>  (12) 
-8.74257

>  <r_i_glide_erotb>  (12) 
0.144065

>  <r_i_glide_esite>  (12) 
-0.279833

>  <r_i_glide_emodel>  (12) 
-45.4386

>  <r_i_glide_energy>  (12) 
-34.1229

>  <r_i_glide_einternal>  (12) 
0.399839

>  <r_i_glide_intrahb_reward>  (12) 
-0

>  <i_i_glide_confnum>  (12) 
4

>  <i_i_glide_posenum>  (12) 
35

>  <r_i_glide_eff_state_penalty>  (12) 
0

>  <ligand_id>  (12) 
1

>  <original_smiles>  (12) 
CC=Cc1ccc2c(c1)CC1(N=C(N)C3CC31)C1(C2)C(=O)NC(=O)NC1=O

>  <smiles>  (12) 
[H]C(=C([H])C([H])([H])[H])c1c([H])c([H])c2c(c1[H])C([H])([H])C1([N+]([H])=C(N([H])[H])C3([H])C([H])([H])C31[H])C1(C(=O)N([H])C(=O)N([H])C1=O)C2([H])[H]

$$$$
1:2:0
     RDKit          3D

 47 51  0  0  1  0  0  0  0  0999 V2000
   -2.1872    4.5480   10.8954 C   0  0  0  0  0  0  0  0  0  0  0  0
   -1.6551    3.5969    9.8593 C   0  0  0  0  0  0  0  0  0  0  0  0
   -2.1135    3.5180    8.5968 C   0  0  0  0  0  0  0  0  0  0  0  0
   -1.5855    2.6307    7.5503 C   0  0  0  0  0  0  0  0  0  0  0  0
   -2.2279    2.5809    6.2945 C   0  0  0  0  0  0  0  0  0  0  0  0
   -1.7300    1.7495    5.2732 C   0  0  0  0  0  0  0  0  0  0  0  0
   -0.5856    0.9574    5.4937 C   0  0  0  0  0  0  0  0  0  0  0  0
    0.0570    0.9990    6.7597 C   0  0  0  0  0  0  0  0  0  0  0  0
   -0.4459    1.8278    7.7732 C   0  0  0  0  0  0  0  0  0  0  0  0
    1.2470    0.1167    7.1010 C   0  0  0  0  0  0  0  0  0  0  0  0
    1.8721   -0.5496    5.8624 C   0  0  1  0  0  0  0  0  0  0  0  0
    2.6670    0.4855    5.1578 N   0  0  0  0  0  0  0  0  0  0  0  0
    3.9653    0.1832    5.0641 C   0  0  0  0  0  0  0  0  0  0  0  0
    4.8830    0.9322    4.4495 N   0  0  0  0  0  0  0  0  0  0  0  0
    4.2649   -1.0957    5.7356 C   0  0  1  0  0  0  0  0  0  0  0  0
    4.0852   -1.3170    7.2102 C   0  0  0  0  0  0  0  0  0  0  0  0
    2.9365   -1.5827    6.2655 C   0  0  1  0  0  0  0  0  0  0  0  0
    0.7680   -1.1556    4.9102 C   0  0  1  0  0  0  0  0  0  0  0  0
   -0.1224    0.0148    4.3878 C   0  0  0  0  0  0  0  0  0  0  0  0
    1.4376   -1.8658    3.7006 C   0  0  0  0  0  0  0  0  0  0  0  0
    2.0615   -1.1968    2.8735 O   0  0  0  0  0  0  0  0  0  0  0  0
    1.3945   -3.2049    3.6064 N   0  0  0  0  0  0  0  0  0  0  0  0
    0.7257   -4.0352    4.4331 C   0  0  0  0  0  0  0  0  0  0  0  0
    0.8171   -5.2341    4.2037 O   0  0  0  0  0  0  0  0  0  0  0  0
   -0.0185   -3.5113    5.4319 N   0  0  0  0  0  0  0  0  0  0  0  0
   -0.1748   -2.1847    5.6702 C   0  0  0  0  0  0  0  0  0  0  0  0
   -1.0035   -1.7484    6.4657 O   0  0  0  0  0  0  0  0  0  0  0  0
   -1.3925    5.1987   11.2523 H   0  0  0  0  0  0  0  0  0  0  0  0
   -2.5881    3.9812   11.7368 H   0  0  0  0  0  0  0  0  0  0  0  0
   -2.9863    5.1646   10.4767 H   0  0  0  0  0  0  0  0  0  0  0  0
   -0.8522    2.9679   10.2097 H   0  0  0  0  0  0  0  0  0  0  0  0
   -2.9262    4.1659    8.2990 H   0  0  0  0  0  0  0  0  0  0  0  0
   -3.1196    3.1670    6.1068 H   0  0  0  0  0  0  0  0  0  0  0  0
   -2.2552    1.6799    4.3291 H   0  0  0  0  0  0  0  0  0  0  0  0
    0.0579    1.8045    8.7305 H   0  0  0  0  0  0  0  0  0  0  0  0
    1.9826    0.7056    7.6525 H   0  0  0  0  0  0  0  0  0  0  0  0
    0.9277   -0.6507    7.8025 H   0  0  0  0  0  0  0  0  0  0  0  0
    4.6206    1.7592    3.9244 H   0  0  0  0  0  0  0  0  0  0  0  0
    5.8396    0.6107    4.4012 H   0  0  0  0  0  0  0  0  0  0  0  0
    4.8260   -1.7878    5.1103 H   0  0  0  0  0  0  0  0  0  0  0  0
    4.5645   -2.1924    7.6406 H   0  0  0  0  0  0  0  0  0  0  0  0
    4.0142   -0.4472    7.8599 H   0  0  0  0  0  0  0  0  0  0  0  0
    2.6885   -2.6248    6.1048 H   0  0  0  0  0  0  0  0  0  0  0  0
   -1.0046   -0.3754    3.8796 H   0  0  0  0  0  0  0  0  0  0  0  0
    0.3825    0.6227    3.6266 H   0  0  0  0  0  0  0  0  0  0  0  0
    1.9356   -3.6314    2.8818 H   0  0  0  0  0  0  0  0  0  0  0  0
    2.2320    1.2946    4.7360 H   0  0  0  0  0  0  0  0  0  0  0  0
  1  2  1  0
  1 28  1  0
  1 29  1  0
  1 30  1  0
  2  3  2  3
  2 31  1  0
  3  4  1  0
  3 32  1  0
  4  9  2  0
  4  5  1  0
  5  6  2  0
  5 33  1  0
  6  7  1  0
  6 34  1  0
  7 19  1  0
  7  8  2  0
  8  9  1  0
  8 10  1  0
  9 35  1  0
 11 10  1  1
 10 36  1  0
 10 37  1  0
 11 17  1  0
 11 12  1  0
 11 18  1  0
 12 13  2  0
 12 47  1  0
 13 14  1  0
 13 15  1  0
 14 38  1  0
 14 39  1  0
 15 17  1  0
 15 16  1  0
 15 40  1  6
 16 17  1  0
 16 41  1  0
 16 42  1  0
 17 43  1  6
 18 26  1  0
 18 19  1  6
 18 20  1  0
 19 44  1  0
 19 45  1  0
 20 21  2  0
 20 22  1  0
 22 23  1  0
 22 46  1  0
 23 24  2  0
 23 25  1  0
 25 26  1  0
 26 27  2  0
M  CHG  2  12   1  25  -1
M  END
>  <i_m_ct_stereo_status>  (13) 
1

>  <s_m_source_file>  (13) 
/var/tmp/pbs.5076255.sched01/tmp6mrmgolx/06cp14zw5.sdf

>  <i_m_source_file_index>  (13) 
5

>  <i_lp_mmshare_version>  (13) 
48012

>  <i_f3d_flags>  (13) 
0

>  <s_epik_input>  (13) 
W0NIM10vW0NIXT1bQ0hdL2MoW2NIXVtjSF0xKVtjSF1jKFtDSDJdMiljMVtDSDJdQzMoW0NAXTI0W0NASF01W0NIXShbQ0gyXTUpQyg9TjQpW05IMl0pQyg9TylbTkhdQyg9TylbTkhdQzM9Tw==

>  <s_epik_cmdline>  (13) 
J2VwaWtfcHl0aG9uJywgJy1waHQnLCAnMi4wJywgJy1waCcsICc3LjAnLCAnLXRuJywgJzgnLCAnLW1hJywgJzIwMCcsICctaW1hZScsICc8aW5maWxlLm1hZT4nLCAnLW9tYWUnLCAnPG91dGZpbGUubWFlPic=

>  <r_epik_Ionization_Penalty>  (13) 
0.507264

>  <r_epik_Ionization_Penalty_Charging>  (13) 
0.507254

>  <r_epik_Ionization_Penalty_Neutral>  (13) 
9.29906e-06

>  <r_epik_State_Penalty>  (13) 
0.746726

>  <r_epik_Charging_Adjusted_Penalty>  (13) 
1.25398

>  <i_epik_Tot_Q>  (13) 
0

>  <i_epik_Tot_abs_Q>  (13) 
2

>  <s_epik_Chemistry_Notes>  (13) 
This compound has an imine and may undergo hydrolysis.

>  <s_lp_Force_Field>  (13) 
OPLS3e

>  <r_lp_Energy>  (13) 
39.1663

>  <b_lp_Chiralities_Consistent>  (13) 
1

>  <s_lp_Variant>  (13) 
1:0-3

>  <s_i_glide_gridfile>  (13) 
pfpi4k_grid

>  <i_i_glide_lignum>  (13) 
5

>  <i_i_glide_rotatable_bonds>  (13) 
1

>  <r_i_docking_score>  (13) 
-2.86564

>  <r_i_glide_ligand_efficiency>  (13) 
-0.106135

>  <r_i_glide_ligand_efficiency_sa>  (13) 
-0.318404

>  <r_i_glide_ligand_efficiency_ln>  (13) 
-0.667073

>  <r_i_glide_gscore>  (13) 
-2.86564

>  <r_i_glide_lipo>  (13) 
-0.116677

>  <r_i_glide_hbond>  (13) 
-0.000881258

>  <r_i_glide_metal>  (13) 
-0

>  <r_i_glide_rewards>  (13) 
-0.948735

>  <r_i_glide_evdw>  (13) 
-17.3331

>  <r_i_glide_ecoul>  (13) 
-7.04063

>  <r_i_glide_erotb>  (13) 
0.144777

>  <r_i_glide_esite>  (13) 
-0.0213686

>  <r_i_glide_emodel>  (13) 
-29.6136

>  <r_i_glide_energy>  (13) 
-24.3738

>  <r_i_glide_einternal>  (13) 
0.0464583

>  <r_i_glide_intrahb_reward>  (13) 
-0

>  <i_i_glide_confnum>  (13) 
3

>  <i_i_glide_posenum>  (13) 
38

>  <r_i_glide_eff_state_penalty>  (13) 
0

>  <ligand_id>  (13) 
1

>  <original_smiles>  (13) 
CC=Cc1ccc2c(c1)CC1(N=C(N)C3CC31)C1(C2)C(=O)NC(=O)NC1=O

>  <smiles>  (13) 
[H]C(=C([H])C([H])([H])[H])c1c([H])c([H])c2c(c1[H])C([H])([H])C1([N+]([H])=C(N([H])[H])C3([H])C([H])([H])C31[H])C1(C(=O)[N-]C(=O)N([H])C1=O)C2([H])[H]

$$$$
1:2:1
     RDKit          3D

 47 51  0  0  1  0  0  0  0  0999 V2000
   -1.3243   -4.6322    7.1899 C   0  0  0  0  0  0  0  0  0  0  0  0
   -0.0196   -5.0293    6.5482 C   0  0  0  0  0  0  0  0  0  0  0  0
    1.1541   -5.0961    7.2022 C   0  0  0  0  0  0  0  0  0  0  0  0
    2.4346   -5.5280    6.6247 C   0  0  0  0  0  0  0  0  0  0  0  0
    3.6289   -5.3063    7.3453 C   0  0  0  0  0  0  0  0  0  0  0  0
    4.8661   -5.7164    6.8112 C   0  0  0  0  0  0  0  0  0  0  0  0
    4.9325   -6.3364    5.5442 C   0  0  0  0  0  0  0  0  0  0  0  0
    3.7311   -6.5518    4.8153 C   0  0  0  0  0  0  0  0  0  0  0  0
    2.4975   -6.1485    5.3562 C   0  0  0  0  0  0  0  0  0  0  0  0
    3.7234   -7.1480    3.4179 C   0  0  0  0  0  0  0  0  0  0  0  0
    5.0642   -7.7864    3.0278 C   0  0  1  0  0  0  0  0  0  0  0  0
    5.1582   -9.0871    3.7350 N   0  0  0  0  0  0  0  0  0  0  0  0
    5.2768  -10.1379    2.9084 C   0  0  0  0  0  0  0  0  0  0  0  0
    5.4133  -11.4121    3.2791 N   0  0  0  0  0  0  0  0  0  0  0  0
    5.2352   -9.6965    1.5054 C   0  0  1  0  0  0  0  0  0  0  0  0
    4.0323   -9.0447    0.8813 C   0  0  0  0  0  0  0  0  0  0  0  0
    5.0854   -8.1966    1.5482 C   0  0  1  0  0  0  0  0  0  0  0  0
    6.2834   -6.8579    3.4056 C   0  0  1  0  0  0  0  0  0  0  0  0
    6.2970   -6.6927    4.9623 C   0  0  0  0  0  0  0  0  0  0  0  0
    7.6189   -7.5158    2.9573 C   0  0  0  0  0  0  0  0  0  0  0  0
    7.9926   -8.5470    3.5222 O   0  0  0  0  0  0  0  0  0  0  0  0
    8.3230   -6.9766    1.9429 N   0  0  0  0  0  0  0  0  0  0  0  0
    8.0443   -5.8291    1.2932 C   0  0  0  0  0  0  0  0  0  0  0  0
    8.8122   -5.5076    0.3727 O   0  0  0  0  0  0  0  0  0  0  0  0
    6.9775   -5.1041    1.6927 N   0  0  0  0  0  0  0  0  0  0  0  0
    6.1743   -5.3995    2.7464 C   0  0  0  0  0  0  0  0  0  0  0  0
    5.3657   -4.6103    3.2173 O   0  0  0  0  0  0  0  0  0  0  0  0
   -2.0464   -5.4414    7.0752 H   0  0  0  0  0  0  0  0  0  0  0  0
   -1.7162   -3.7406    6.7015 H   0  0  0  0  0  0  0  0  0  0  0  0
   -1.1878   -4.4323    8.2532 H   0  0  0  0  0  0  0  0  0  0  0  0
   -0.0831   -5.2678    5.4974 H   0  0  0  0  0  0  0  0  0  0  0  0
    1.1792   -4.8419    8.2526 H   0  0  0  0  0  0  0  0  0  0  0  0
    3.6100   -4.7983    8.3037 H   0  0  0  0  0  0  0  0  0  0  0  0
    5.7776   -5.4917    7.3449 H   0  0  0  0  0  0  0  0  0  0  0  0
    1.6176   -6.2948    4.7454 H   0  0  0  0  0  0  0  0  0  0  0  0
    2.8994   -7.8608    3.3413 H   0  0  0  0  0  0  0  0  0  0  0  0
    3.4719   -6.3593    2.7099 H   0  0  0  0  0  0  0  0  0  0  0  0
    5.4405  -11.6795    4.2544 H   0  0  0  0  0  0  0  0  0  0  0  0
    5.4214  -12.1449    2.5790 H   0  0  0  0  0  0  0  0  0  0  0  0
    6.0367  -10.1068    0.8974 H   0  0  0  0  0  0  0  0  0  0  0  0
    4.0247   -9.0191   -0.2054 H   0  0  0  0  0  0  0  0  0  0  0  0
    3.0710   -9.1384    1.3742 H   0  0  0  0  0  0  0  0  0  0  0  0
    5.7187   -7.6127    0.8952 H   0  0  0  0  0  0  0  0  0  0  0  0
    6.9986   -5.9151    5.2785 H   0  0  0  0  0  0  0  0  0  0  0  0
    6.6523   -7.5897    5.4883 H   0  0  0  0  0  0  0  0  0  0  0  0
    9.1519   -7.4712    1.6456 H   0  0  0  0  0  0  0  0  0  0  0  0
    5.1784   -9.1551    4.7430 H   0  0  0  0  0  0  0  0  0  0  0  0
  1  2  1  0
  1 28  1  0
  1 29  1  0
  1 30  1  0
  2  3  2  3
  2 31  1  0
  3  4  1  0
  3 32  1  0
  4  9  2  0
  4  5  1  0
  5  6  2  0
  5 33  1  0
  6  7  1  0
  6 34  1  0
  7 19  1  0
  7  8  2  0
  8  9  1  0
  8 10  1  0
  9 35  1  0
 11 10  1  1
 10 36  1  0
 10 37  1  0
 11 17  1  0
 11 12  1  0
 11 18  1  0
 12 13  2  0
 12 47  1  0
 13 14  1  0
 13 15  1  0
 14 38  1  0
 14 39  1  0
 15 17  1  0
 15 16  1  0
 15 40  1  6
 16 17  1  0
 16 41  1  0
 16 42  1  0
 17 43  1  6
 18 26  1  0
 18 19  1  1
 18 20  1  0
 19 44  1  0
 19 45  1  0
 20 21  2  0
 20 22  1  0
 22 23  1  0
 22 46  1  0
 23 24  2  0
 23 25  1  0
 25 26  1  0
 26 27  2  0
M  CHG  2  12   1  25  -1
M  END
>  <i_m_ct_stereo_status>  (14) 
1

>  <s_m_source_file>  (14) 
/var/tmp/pbs.5076255.sched01/tmp6mrmgolx/06cp14zw5.sdf

>  <i_m_source_file_index>  (14) 
5

>  <i_lp_mmshare_version>  (14) 
48012

>  <i_f3d_flags>  (14) 
0

>  <s_epik_input>  (14) 
W0NIM10vW0NIXT1bQ0hdL2MoW2NIXVtjSF0xKVtjSF1jKFtDSDJdMiljMVtDSDJdQzMoW0NAXTI0W0NASF01W0NIXShbQ0gyXTUpQyg9TjQpW05IMl0pQyg9TylbTkhdQyg9TylbTkhdQzM9Tw==

>  <s_epik_cmdline>  (14) 
J2VwaWtfcHl0aG9uJywgJy1waHQnLCAnMi4wJywgJy1waCcsICc3LjAnLCAnLXRuJywgJzgnLCAnLW1hJywgJzIwMCcsICctaW1hZScsICc8aW5maWxlLm1hZT4nLCAnLW9tYWUnLCAnPG91dGZpbGUubWFlPic=

>  <r_epik_Ionization_Penalty>  (14) 
0.507264

>  <r_epik_Ionization_Penalty_Charging>  (14) 
0.507254

>  <r_epik_Ionization_Penalty_Neutral>  (14) 
9.29906e-06

>  <r_epik_State_Penalty>  (14) 
0.746726

>  <r_epik_Charging_Adjusted_Penalty>  (14) 
1.25398

>  <i_epik_Tot_Q>  (14) 
0

>  <i_epik_Tot_abs_Q>  (14) 
2

>  <s_epik_Chemistry_Notes>  (14) 
This compound has an imine and may undergo hydrolysis.

>  <s_lp_Force_Field>  (14) 
OPLS3e

>  <r_lp_Energy>  (14) 
39.1663

>  <b_lp_Chiralities_Consistent>  (14) 
1

>  <s_lp_Variant>  (14) 
1:0-3

>  <s_i_glide_gridfile>  (14) 
pfpi4k_grid

>  <i_i_glide_lignum>  (14) 
5

>  <i_i_glide_rotatable_bonds>  (14) 
1

>  <r_i_docking_score>  (14) 
-2.84888

>  <r_i_glide_ligand_efficiency>  (14) 
-0.105514

>  <r_i_glide_ligand_efficiency_sa>  (14) 
-0.316543

>  <r_i_glide_ligand_efficiency_ln>  (14) 
-0.663173

>  <r_i_glide_gscore>  (14) 
-2.84888

>  <r_i_glide_lipo>  (14) 
-0.0935342

>  <r_i_glide_hbond>  (14) 
-0.16

>  <r_i_glide_metal>  (14) 
-0

>  <r_i_glide_rewards>  (14) 
-0.970301

>  <r_i_glide_evdw>  (14) 
-17.2844

>  <r_i_glide_ecoul>  (14) 
-5.07387

>  <r_i_glide_erotb>  (14) 
0.144777

>  <r_i_glide_esite>  (14) 
-0.144527

>  <r_i_glide_emodel>  (14) 
-27.4499

>  <r_i_glide_energy>  (14) 
-22.3583

>  <r_i_glide_einternal>  (14) 
0.154724

>  <r_i_glide_intrahb_reward>  (14) 
-0

>  <i_i_glide_confnum>  (14) 
3

>  <i_i_glide_posenum>  (14) 
36

>  <r_i_glide_eff_state_penalty>  (14) 
0

>  <ligand_id>  (14) 
1

>  <original_smiles>  (14) 
CC=Cc1ccc2c(c1)CC1(N=C(N)C3CC31)C1(C2)C(=O)NC(=O)NC1=O

>  <smiles>  (14) 
[H]C(=C([H])C([H])([H])[H])c1c([H])c([H])c2c(c1[H])C([H])([H])C1([N+]([H])=C(N([H])[H])C3([H])C([H])([H])C31[H])C1(C(=O)[N-]C(=O)N([H])C1=O)C2([H])[H]

$$$$
1:2:2
     RDKit          3D

 47 51  0  0  1  0  0  0  0  0999 V2000
   -3.4002    3.3694    9.9386 C   0  0  0  0  0  0  0  0  0  0  0  0
   -2.8886    2.6790    8.7067 C   0  0  0  0  0  0  0  0  0  0  0  0
   -1.7129    2.0348    8.6494 C   0  0  0  0  0  0  0  0  0  0  0  0
   -1.1650    1.3745    7.4595 C   0  0  0  0  0  0  0  0  0  0  0  0
   -1.7854    1.4842    6.1951 C   0  0  0  0  0  0  0  0  0  0  0  0
   -1.2434    0.8335    5.0762 C   0  0  0  0  0  0  0  0  0  0  0  0
   -0.0669    0.0753    5.2023 C   0  0  0  0  0  0  0  0  0  0  0  0
    0.5595   -0.0468    6.4733 C   0  0  0  0  0  0  0  0  0  0  0  0
    0.0036    0.6010    7.5904 C   0  0  0  0  0  0  0  0  0  0  0  0
    1.7832   -0.9242    6.6897 C   0  0  0  0  0  0  0  0  0  0  0  0
    2.4500   -1.3616    5.3700 C   0  0  1  0  0  0  0  0  0  0  0  0
    3.2028   -0.1974    4.8421 N   0  0  0  0  0  0  0  0  0  0  0  0
    4.5130   -0.4309    4.7089 C   0  0  0  0  0  0  0  0  0  0  0  0
    5.3971    0.4395    4.2178 N   0  0  0  0  0  0  0  0  0  0  0  0
    4.8626   -1.7843    5.1861 C   0  0  1  0  0  0  0  0  0  0  0  0
    4.6834   -2.2387    6.6055 C   0  0  0  0  0  0  0  0  0  0  0  0
    3.5525   -2.4008    5.6196 C   0  0  1  0  0  0  0  0  0  0  0  0
    1.3775   -1.8605    4.3247 C   0  0  1  0  0  0  0  0  0  0  0  0
    0.4510   -0.6600    3.9746 C   0  0  0  0  0  0  0  0  0  0  0  0
    2.0908   -2.3435    3.0296 C   0  0  0  0  0  0  0  0  0  0  0  0
    2.6940   -1.5287    2.3231 O   0  0  0  0  0  0  0  0  0  0  0  0
    2.1067   -3.6469    2.7281 N   0  0  0  0  0  0  0  0  0  0  0  0
    1.4593   -4.6202    3.3973 C   0  0  0  0  0  0  0  0  0  0  0  0
    1.5943   -5.7626    2.9728 O   0  0  0  0  0  0  0  0  0  0  0  0
    0.6866   -4.2949    4.4614 N   0  0  0  0  0  0  0  0  0  0  0  0
    0.4616   -3.0331    4.9000 C   0  0  0  0  0  0  0  0  0  0  0  0
   -0.4157   -2.7558    5.7232 O   0  0  0  0  0  0  0  0  0  0  0  0
   -4.3650    2.9459   10.2182 H   0  0  0  0  0  0  0  0  0  0  0  0
   -3.5357    4.4272    9.7155 H   0  0  0  0  0  0  0  0  0  0  0  0
   -2.7137    3.2652   10.7792 H   0  0  0  0  0  0  0  0  0  0  0  0
   -3.5367    2.7417    7.8477 H   0  0  0  0  0  0  0  0  0  0  0  0
   -1.1002    2.0017    9.5414 H   0  0  0  0  0  0  0  0  0  0  0  0
   -2.6902    2.0571    6.0509 H   0  0  0  0  0  0  0  0  0  0  0  0
   -1.7560    0.8911    4.1238 H   0  0  0  0  0  0  0  0  0  0  0  0
    0.4687    0.4764    8.5623 H   0  0  0  0  0  0  0  0  0  0  0  0
    2.4906   -0.4006    7.3359 H   0  0  0  0  0  0  0  0  0  0  0  0
    1.4890   -1.8080    7.2520 H   0  0  0  0  0  0  0  0  0  0  0  0
    5.0971    1.3395    3.8640 H   0  0  0  0  0  0  0  0  0  0  0  0
    6.3742    0.1849    4.1433 H   0  0  0  0  0  0  0  0  0  0  0  0
    5.4544   -2.3490    4.4670 H   0  0  0  0  0  0  0  0  0  0  0  0
    5.1955   -3.1507    6.9024 H   0  0  0  0  0  0  0  0  0  0  0  0
    4.5681   -1.4859    7.3836 H   0  0  0  0  0  0  0  0  0  0  0  0
    3.3513   -3.4137    5.2923 H   0  0  0  0  0  0  0  0  0  0  0  0
   -0.4054   -1.0019    3.3990 H   0  0  0  0  0  0  0  0  0  0  0  0
    0.9347    0.0792    3.3225 H   0  0  0  0  0  0  0  0  0  0  0  0
    2.6694   -3.9370    1.9467 H   0  0  0  0  0  0  0  0  0  0  0  0
    2.7363    0.6444    4.5413 H   0  0  0  0  0  0  0  0  0  0  0  0
  1  2  1  0
  1 28  1  0
  1 29  1  0
  1 30  1  0
  2  3  2  3
  2 31  1  0
  3  4  1  0
  3 32  1  0
  4  9  2  0
  4  5  1  0
  5  6  2  0
  5 33  1  0
  6  7  1  0
  6 34  1  0
  7 19  1  0
  7  8  2  0
  8  9  1  0
  8 10  1  0
  9 35  1  0
 11 10  1  1
 10 36  1  0
 10 37  1  0
 11 17  1  0
 11 12  1  0
 11 18  1  0
 12 13  2  0
 12 47  1  0
 13 14  1  0
 13 15  1  0
 14 38  1  0
 14 39  1  0
 15 17  1  0
 15 16  1  0
 15 40  1  6
 16 17  1  0
 16 41  1  0
 16 42  1  0
 17 43  1  6
 18 26  1  0
 18 19  1  6
 18 20  1  0
 19 44  1  0
 19 45  1  0
 20 21  2  0
 20 22  1  0
 22 23  1  0
 22 46  1  0
 23 24  2  0
 23 25  1  0
 25 26  1  0
 26 27  2  0
M  CHG  2  12   1  25  -1
M  END
>  <i_m_ct_stereo_status>  (15) 
1

>  <s_m_source_file>  (15) 
/var/tmp/pbs.5076255.sched01/tmp6mrmgolx/06cp14zw5.sdf

>  <i_m_source_file_index>  (15) 
5

>  <i_lp_mmshare_version>  (15) 
48012

>  <i_f3d_flags>  (15) 
0

>  <s_epik_input>  (15) 
W0NIM10vW0NIXT1bQ0hdL2MoW2NIXVtjSF0xKVtjSF1jKFtDSDJdMiljMVtDSDJdQzMoW0NAXTI0W0NASF01W0NIXShbQ0gyXTUpQyg9TjQpW05IMl0pQyg9TylbTkhdQyg9TylbTkhdQzM9Tw==

>  <s_epik_cmdline>  (15) 
J2VwaWtfcHl0aG9uJywgJy1waHQnLCAnMi4wJywgJy1waCcsICc3LjAnLCAnLXRuJywgJzgnLCAnLW1hJywgJzIwMCcsICctaW1hZScsICc8aW5maWxlLm1hZT4nLCAnLW9tYWUnLCAnPG91dGZpbGUubWFlPic=

>  <r_epik_Ionization_Penalty>  (15) 
0.507264

>  <r_epik_Ionization_Penalty_Charging>  (15) 
0.507254

>  <r_epik_Ionization_Penalty_Neutral>  (15) 
9.29906e-06

>  <r_epik_State_Penalty>  (15) 
0.746726

>  <r_epik_Charging_Adjusted_Penalty>  (15) 
1.25398

>  <i_epik_Tot_Q>  (15) 
0

>  <i_epik_Tot_abs_Q>  (15) 
2

>  <s_epik_Chemistry_Notes>  (15) 
This compound has an imine and may undergo hydrolysis.

>  <s_lp_Force_Field>  (15) 
OPLS3e

>  <r_lp_Energy>  (15) 
39.1663

>  <b_lp_Chiralities_Consistent>  (15) 
1

>  <s_lp_Variant>  (15) 
1:0-3

>  <s_i_glide_gridfile>  (15) 
pfpi4k_grid

>  <i_i_glide_lignum>  (15) 
5

>  <i_i_glide_rotatable_bonds>  (15) 
1

>  <r_i_docking_score>  (15) 
-2.68559

>  <r_i_glide_ligand_efficiency>  (15) 
-0.0994663

>  <r_i_glide_ligand_efficiency_sa>  (15) 
-0.298399

>  <r_i_glide_ligand_efficiency_ln>  (15) 
-0.625161

>  <r_i_glide_gscore>  (15) 
-2.68559

>  <r_i_glide_lipo>  (15) 
-0.0432508

>  <r_i_glide_hbond>  (15) 
0

>  <r_i_glide_metal>  (15) 
-0

>  <r_i_glide_rewards>  (15) 
-0.97194

>  <r_i_glide_evdw>  (15) 
-19.3008

>  <r_i_glide_ecoul>  (15) 
-5.5425

>  <r_i_glide_erotb>  (15) 
0.144777

>  <r_i_glide_esite>  (15) 
-0.0187598

>  <r_i_glide_emodel>  (15) 
-29.7631

>  <r_i_glide_energy>  (15) 
-24.8433

>  <r_i_glide_einternal>  (15) 
0.066766

>  <r_i_glide_intrahb_reward>  (15) 
-0

>  <i_i_glide_confnum>  (15) 
3

>  <i_i_glide_posenum>  (15) 
10

>  <r_i_glide_eff_state_penalty>  (15) 
0

>  <ligand_id>  (15) 
1

>  <original_smiles>  (15) 
CC=Cc1ccc2c(c1)CC1(N=C(N)C3CC31)C1(C2)C(=O)NC(=O)NC1=O

>  <smiles>  (15) 
[H]C(=C([H])C([H])([H])[H])c1c([H])c([H])c2c(c1[H])C([H])([H])C1([N+]([H])=C(N([H])[H])C3([H])C([H])([H])C31[H])C1(C(=O)[N-]C(=O)N([H])C1=O)C2([H])[H]

$$$$
1:3:0
     RDKit          3D

 47 51  0  0  1  0  0  0  0  0999 V2000
    1.6471   -6.8930    5.3360 C   0  0  0  0  0  0  0  0  0  0  0  0
    1.7706   -8.1794    4.5312 C   0  0  0  0  0  0  0  0  0  0  0  0
    2.3738   -8.3680    3.3384 C   0  0  0  0  0  0  0  0  0  0  0  0
    2.9944   -7.3660    2.4616 C   0  0  0  0  0  0  0  0  0  0  0  0
    4.0400   -7.7637    1.5961 C   0  0  0  0  0  0  0  0  0  0  0  0
    4.6547   -6.8113    0.7639 C   0  0  0  0  0  0  0  0  0  0  0  0
    4.2777   -5.4569    0.7981 C   0  0  0  0  0  0  0  0  0  0  0  0
    3.2461   -5.0569    1.6830 C   0  0  0  0  0  0  0  0  0  0  0  0
    2.5885   -6.0120    2.4757 C   0  0  0  0  0  0  0  0  0  0  0  0
    2.7912   -3.6139    1.7812 C   0  0  0  0  0  0  0  0  0  0  0  0
    3.7664   -2.6070    1.1216 C   0  0  1  0  0  0  0  0  0  0  0  0
    3.0931   -1.2993    0.9586 N   0  0  0  0  0  0  0  0  0  0  0  0
    3.7293   -0.3366    1.6265 C   0  0  0  0  0  0  0  0  0  0  0  0
    3.3732    0.9418    1.6281 N   0  0  0  0  0  0  0  0  0  0  0  0
    4.8972   -0.8448    2.3837 C   0  0  1  0  0  0  0  0  0  0  0  0
    4.7608   -1.8176    3.5185 C   0  0  0  0  0  0  0  0  0  0  0  0
    4.9186   -2.3244    2.0953 C   0  0  1  0  0  0  0  0  0  0  0  0
    4.2865   -3.0976   -0.2827 C   0  0  1  0  0  0  0  0  0  0  0  0
    4.9933   -4.4828   -0.1273 C   0  0  0  0  0  0  0  0  0  0  0  0
    3.0737   -3.2343   -1.2616 C   0  0  0  0  0  0  0  0  0  0  0  0
    2.1735   -4.0506   -1.0470 O   0  0  0  0  0  0  0  0  0  0  0  0
    2.9737   -2.4013   -2.3077 N   0  0  0  0  0  0  0  0  0  0  0  0
    3.8464   -1.4421   -2.6393 C   0  0  0  0  0  0  0  0  0  0  0  0
    3.5293   -0.7089   -3.5808 O   0  0  0  0  0  0  0  0  0  0  0  0
    5.0025   -1.3168   -1.9446 N   0  0  0  0  0  0  0  0  0  0  0  0
    5.3632   -2.1068   -0.8968 C   0  0  0  0  0  0  0  0  0  0  0  0
    6.4917   -2.0776   -0.4018 O   0  0  0  0  0  0  0  0  0  0  0  0
    1.8538   -7.1046    6.3883 H   0  0  0  0  0  0  0  0  0  0  0  0
    0.6276   -6.5132    5.2655 H   0  0  0  0  0  0  0  0  0  0  0  0
    2.3351   -6.1085    5.0132 H   0  0  0  0  0  0  0  0  0  0  0  0
    1.3195   -9.0474    4.9897 H   0  0  0  0  0  0  0  0  0  0  0  0
    2.3933   -9.3783    2.9465 H   0  0  0  0  0  0  0  0  0  0  0  0
    4.3682   -8.7979    1.5457 H   0  0  0  0  0  0  0  0  0  0  0  0
    5.4302   -7.1128    0.0825 H   0  0  0  0  0  0  0  0  0  0  0  0
    1.7614   -5.6871    3.0954 H   0  0  0  0  0  0  0  0  0  0  0  0
    1.8131   -3.5547    1.3112 H   0  0  0  0  0  0  0  0  0  0  0  0
    2.5910   -3.3692    2.8223 H   0  0  0  0  0  0  0  0  0  0  0  0
    2.6111    1.2587    1.0507 H   0  0  0  0  0  0  0  0  0  0  0  0
    3.9819    1.6474    2.0628 H   0  0  0  0  0  0  0  0  0  0  0  0
    5.8248   -0.3191    2.1561 H   0  0  0  0  0  0  0  0  0  0  0  0
    5.6225   -1.9839    4.1542 H   0  0  0  0  0  0  0  0  0  0  0  0
    3.7845   -1.9381    3.9969 H   0  0  0  0  0  0  0  0  0  0  0  0
    5.8670   -2.8172    1.8926 H   0  0  0  0  0  0  0  0  0  0  0  0
    5.9979   -4.3995    0.3094 H   0  0  0  0  0  0  0  0  0  0  0  0
    5.1265   -4.9681   -1.0989 H   0  0  0  0  0  0  0  0  0  0  0  0
    2.1035   -2.4522   -2.8161 H   0  0  0  0  0  0  0  0  0  0  0  0
    2.3042   -1.1573    0.3428 H   0  0  0  0  0  0  0  0  0  0  0  0
  1  2  1  0
  1 28  1  0
  1 29  1  0
  1 30  1  0
  2  3  2  3
  2 31  1  0
  3  4  1  0
  3 32  1  0
  4  9  2  0
  4  5  1  0
  5  6  2  0
  5 33  1  0
  6  7  1  0
  6 34  1  0
  7 19  1  0
  7  8  2  0
  8  9  1  0
  8 10  1  0
  9 35  1  0
 11 10  1  1
 10 36  1  0
 10 37  1  0
 11 17  1  0
 11 12  1  0
 11 18  1  0
 12 13  2  0
 12 47  1  0
 13 14  1  0
 13 15  1  0
 14 38  1  0
 14 39  1  0
 15 17  1  0
 15 16  1  0
 15 40  1  1
 16 17  1  0
 16 41  1  0
 16 42  1  0
 17 43  1  1
 18 26  1  0
 18 19  1  1
 18 20  1  0
 19 44  1  0
 19 45  1  0
 20 21  2  0
 20 22  1  0
 22 23  1  0
 22 46  1  0
 23 24  2  0
 23 25  1  0
 25 26  1  0
 26 27  2  0
M  CHG  2  12   1  25  -1
M  END
>  <i_m_ct_stereo_status>  (16) 
1

>  <s_m_source_file>  (16) 
/var/tmp/pbs.5076255.sched01/tmp6mrmgolx/06cp14zw5.sdf

>  <i_m_source_file_index>  (16) 
6

>  <i_lp_mmshare_version>  (16) 
48012

>  <i_f3d_flags>  (16) 
0

>  <s_epik_input>  (16) 
W0NIM10vW0NIXT1bQ0hdL2MoW2NIXVtjSF0xKVtjSF1jKFtDSDJdMiljMVtDSDJdQzMoW0NAXTI0W0NASF01W0NIXShbQ0gyXTUpQyg9TjQpW05IMl0pQyg9TylbTkhdQyg9TylbTkhdQzM9Tw==

>  <s_epik_cmdline>  (16) 
J2VwaWtfcHl0aG9uJywgJy1waHQnLCAnMi4wJywgJy1waCcsICc3LjAnLCAnLXRuJywgJzgnLCAnLW1hJywgJzIwMCcsICctaW1hZScsICc8aW5maWxlLm1hZT4nLCAnLW9tYWUnLCAnPG91dGZpbGUubWFlPic=

>  <r_epik_Ionization_Penalty>  (16) 
0.507264

>  <r_epik_Ionization_Penalty_Charging>  (16) 
0.507254

>  <r_epik_Ionization_Penalty_Neutral>  (16) 
9.29906e-06

>  <r_epik_State_Penalty>  (16) 
0.746726

>  <r_epik_Charging_Adjusted_Penalty>  (16) 
1.25398

>  <i_epik_Tot_Q>  (16) 
0

>  <i_epik_Tot_abs_Q>  (16) 
2

>  <s_epik_Chemistry_Notes>  (16) 
This compound has an imine and may undergo hydrolysis.

>  <s_lp_Force_Field>  (16) 
OPLS3e

>  <r_lp_Energy>  (16) 
40.6692

>  <b_lp_Chiralities_Consistent>  (16) 
1

>  <s_lp_Variant>  (16) 
1:0-4

>  <s_i_glide_gridfile>  (16) 
pfpi4k_grid

>  <i_i_glide_lignum>  (16) 
6

>  <i_i_glide_rotatable_bonds>  (16) 
1

>  <r_i_docking_score>  (16) 
-4.5814

>  <r_i_glide_ligand_efficiency>  (16) 
-0.169681

>  <r_i_glide_ligand_efficiency_sa>  (16) 
-0.509044

>  <r_i_glide_ligand_efficiency_ln>  (16) 
-1.06647

>  <r_i_glide_gscore>  (16) 
-4.5814

>  <r_i_glide_lipo>  (16) 
-0.446087

>  <r_i_glide_hbond>  (16) 
-0.242935

>  <r_i_glide_metal>  (16) 
-0

>  <r_i_glide_rewards>  (16) 
-1.3446

>  <r_i_glide_evdw>  (16) 
-26.7141

>  <r_i_glide_ecoul>  (16) 
-7.83451

>  <r_i_glide_erotb>  (16) 
0.144777

>  <r_i_glide_esite>  (16) 
-0.18168

>  <r_i_glide_emodel>  (16) 
-46.3233

>  <r_i_glide_energy>  (16) 
-34.5486

>  <r_i_glide_einternal>  (16) 
0.034044

>  <r_i_glide_intrahb_reward>  (16) 
-0

>  <i_i_glide_confnum>  (16) 
3

>  <i_i_glide_posenum>  (16) 
35

>  <r_i_glide_eff_state_penalty>  (16) 
0

>  <ligand_id>  (16) 
1

>  <original_smiles>  (16) 
CC=Cc1ccc2c(c1)CC1(N=C(N)C3CC31)C1(C2)C(=O)NC(=O)NC1=O

>  <smiles>  (16) 
[H]C(=C([H])C([H])([H])[H])c1c([H])c([H])c2c(c1[H])C([H])([H])C1([N+]([H])=C(N([H])[H])C3([H])C([H])([H])C31[H])C1(C(=O)[N-]C(=O)N([H])C1=O)C2([H])[H]

$$$$
1:3:1
     RDKit          3D

 47 51  0  0  1  0  0  0  0  0999 V2000
   -0.1705   -7.3548    3.4469 C   0  0  0  0  0  0  0  0  0  0  0  0
    0.9480   -8.3943    3.6691 C   0  0  0  0  0  0  0  0  0  0  0  0
    2.2263   -8.3893    3.2253 C   0  0  0  0  0  0  0  0  0  0  0  0
    2.9389   -7.3599    2.4410 C   0  0  0  0  0  0  0  0  0  0  0  0
    3.9630   -7.7742    1.5452 C   0  0  0  0  0  0  0  0  0  0  0  0
    4.6150   -6.8180    0.7427 C   0  0  0  0  0  0  0  0  0  0  0  0
    4.2394   -5.4637    0.7795 C   0  0  0  0  0  0  0  0  0  0  0  0
    3.2373   -5.0553    1.6967 C   0  0  0  0  0  0  0  0  0  0  0  0
    2.6215   -5.9849    2.5532 C   0  0  0  0  0  0  0  0  0  0  0  0
    2.7804   -3.6127    1.7995 C   0  0  0  0  0  0  0  0  0  0  0  0
    3.7503   -2.6007    1.1700 C   0  0  1  0  0  0  0  0  0  0  0  0
    3.0768   -1.2926    1.0360 N   0  0  0  0  0  0  0  0  0  0  0  0
    3.7085   -0.3400    1.7263 C   0  0  0  0  0  0  0  0  0  0  0  0
    3.3720    0.9641    1.7200 N   0  0  0  0  0  0  0  0  0  0  0  0
    4.8554   -0.8689    2.4984 C   0  0  1  0  0  0  0  0  0  0  0  0
    4.6830   -1.8587    3.6036 C   0  0  0  0  0  0  0  0  0  0  0  0
    4.8679   -2.3271    2.1884 C   0  0  1  0  0  0  0  0  0  0  0  0
    4.3064   -3.0721   -0.2391 C   0  0  1  0  0  0  0  0  0  0  0  0
    4.9845   -4.4821   -0.1010 C   0  0  0  0  0  0  0  0  0  0  0  0
    3.1177   -3.1752   -1.2596 C   0  0  0  0  0  0  0  0  0  0  0  0
    2.1986   -3.9693   -1.0688 O   0  0  0  0  0  0  0  0  0  0  0  0
    3.0247   -2.3259   -2.2940 N   0  0  0  0  0  0  0  0  0  0  0  0
    3.9136   -1.3658   -2.5708 C   0  0  0  0  0  0  0  0  0  0  0  0
    3.6366   -0.6053   -3.5045 O   0  0  0  0  0  0  0  0  0  0  0  0
    5.0485   -1.2563   -1.8431 N   0  0  0  0  0  0  0  0  0  0  0  0
    5.3932   -2.0880   -0.8026 C   0  0  0  0  0  0  0  0  0  0  0  0
    6.5087   -2.0586   -0.2843 O   0  0  0  0  0  0  0  0  0  0  0  0
   -0.6404   -7.1653    4.4290 H   0  0  0  0  0  0  0  0  0  0  0  0
   -0.9332   -7.8199    2.7962 H   0  0  0  0  0  0  0  0  0  0  0  0
    0.0963   -6.4241    3.0067 H   0  0  0  0  0  0  0  0  0  0  0  0
    0.6666   -9.2572    4.2531 H   0  0  0  0  0  0  0  0  0  0  0  0
    2.8382   -9.2458    3.4708 H   0  0  0  0  0  0  0  0  0  0  0  0
    4.2622   -8.8078    1.4712 H   0  0  0  0  0  0  0  0  0  0  0  0
    5.4114   -7.1031    0.0818 H   0  0  0  0  0  0  0  0  0  0  0  0
    1.9419   -5.6002    3.2819 H   0  0  0  0  0  0  0  0  0  0  0  0
    1.8148   -3.5357    1.3020 H   0  0  0  0  0  0  0  0  0  0  0  0
    2.5166   -3.3850    2.8317 H   0  0  0  0  0  0  0  0  0  0  0  0
    2.6201    1.2753    1.1382 H   0  0  0  0  0  0  0  0  0  0  0  0
    3.9781    1.6392    2.1697 H   0  0  0  0  0  0  0  0  0  0  0  0
    5.8062   -0.3594    2.2989 H   0  0  0  0  0  0  0  0  0  0  0  0
    5.5311   -2.0575    4.2556 H   0  0  0  0  0  0  0  0  0  0  0  0
    3.6971   -1.9879    4.0622 H   0  0  0  0  0  0  0  0  0  0  0  0
    5.8135   -2.8391    2.0257 H   0  0  0  0  0  0  0  0  0  0  0  0
    5.9739   -4.4428    0.3763 H   0  0  0  0  0  0  0  0  0  0  0  0
    5.1361   -4.9392   -1.0817 H   0  0  0  0  0  0  0  0  0  0  0  0
    2.1544   -2.3534   -2.8011 H   0  0  0  0  0  0  0  0  0  0  0  0
    2.3102   -1.1278    0.3882 H   0  0  0  0  0  0  0  0  0  0  0  0
  1  2  1  0
  1 28  1  0
  1 29  1  0
  1 30  1  0
  2  3  2  3
  2 31  1  0
  3  4  1  0
  3 32  1  0
  4  9  2  0
  4  5  1  0
  5  6  2  0
  5 33  1  0
  6  7  1  0
  6 34  1  0
  7 19  1  0
  7  8  2  0
  8  9  1  0
  8 10  1  0
  9 35  1  0
 11 10  1  1
 10 36  1  0
 10 37  1  0
 11 17  1  0
 11 12  1  0
 11 18  1  0
 12 13  2  0
 12 47  1  0
 13 14  1  0
 13 15  1  0
 14 38  1  0
 14 39  1  0
 15 17  1  0
 15 16  1  0
 15 40  1  1
 16 17  1  0
 16 41  1  0
 16 42  1  0
 17 43  1  1
 18 26  1  0
 18 19  1  1
 18 20  1  0
 19 44  1  0
 19 45  1  0
 20 21  2  0
 20 22  1  0
 22 23  1  0
 22 46  1  0
 23 24  2  0
 23 25  1  0
 25 26  1  0
 26 27  2  0
M  CHG  2  12   1  25  -1
M  END
>  <i_m_ct_stereo_status>  (17) 
1

>  <s_m_source_file>  (17) 
/var/tmp/pbs.5076255.sched01/tmp6mrmgolx/06cp14zw5.sdf

>  <i_m_source_file_index>  (17) 
6

>  <i_lp_mmshare_version>  (17) 
48012

>  <i_f3d_flags>  (17) 
0

>  <s_epik_input>  (17) 
W0NIM10vW0NIXT1bQ0hdL2MoW2NIXVtjSF0xKVtjSF1jKFtDSDJdMiljMVtDSDJdQzMoW0NAXTI0W0NASF01W0NIXShbQ0gyXTUpQyg9TjQpW05IMl0pQyg9TylbTkhdQyg9TylbTkhdQzM9Tw==

>  <s_epik_cmdline>  (17) 
J2VwaWtfcHl0aG9uJywgJy1waHQnLCAnMi4wJywgJy1waCcsICc3LjAnLCAnLXRuJywgJzgnLCAnLW1hJywgJzIwMCcsICctaW1hZScsICc8aW5maWxlLm1hZT4nLCAnLW9tYWUnLCAnPG91dGZpbGUubWFlPic=

>  <r_epik_Ionization_Penalty>  (17) 
0.507264

>  <r_epik_Ionization_Penalty_Charging>  (17) 
0.507254

>  <r_epik_Ionization_Penalty_Neutral>  (17) 
9.29906e-06

>  <r_epik_State_Penalty>  (17) 
0.746726

>  <r_epik_Charging_Adjusted_Penalty>  (17) 
1.25398

>  <i_epik_Tot_Q>  (17) 
0

>  <i_epik_Tot_abs_Q>  (17) 
2

>  <s_epik_Chemistry_Notes>  (17) 
This compound has an imine and may undergo hydrolysis.

>  <s_lp_Force_Field>  (17) 
OPLS3e

>  <r_lp_Energy>  (17) 
40.6692

>  <b_lp_Chiralities_Consistent>  (17) 
1

>  <s_lp_Variant>  (17) 
1:0-4

>  <s_i_glide_gridfile>  (17) 
pfpi4k_grid

>  <i_i_glide_lignum>  (17) 
6

>  <i_i_glide_rotatable_bonds>  (17) 
1

>  <r_i_docking_score>  (17) 
-4.52175

>  <r_i_glide_ligand_efficiency>  (17) 
-0.167472

>  <r_i_glide_ligand_efficiency_sa>  (17) 
-0.502416

>  <r_i_glide_ligand_efficiency_ln>  (17) 
-1.05259

>  <r_i_glide_gscore>  (17) 
-4.52175

>  <r_i_glide_lipo>  (17) 
-0.430364

>  <r_i_glide_hbond>  (17) 
-0.224179

>  <r_i_glide_metal>  (17) 
-0

>  <r_i_glide_rewards>  (17) 
-1.31645

>  <r_i_glide_evdw>  (17) 
-28.6228

>  <r_i_glide_ecoul>  (17) 
-7.19625

>  <r_i_glide_erotb>  (17) 
0.144777

>  <r_i_glide_esite>  (17) 
-0.184951

>  <r_i_glide_emodel>  (17) 
-47.3336

>  <r_i_glide_energy>  (17) 
-35.819

>  <r_i_glide_einternal>  (17) 
0.403623

>  <r_i_glide_intrahb_reward>  (17) 
-0

>  <i_i_glide_confnum>  (17) 
4

>  <i_i_glide_posenum>  (17) 
15

>  <r_i_glide_eff_state_penalty>  (17) 
0

>  <ligand_id>  (17) 
1

>  <original_smiles>  (17) 
CC=Cc1ccc2c(c1)CC1(N=C(N)C3CC31)C1(C2)C(=O)NC(=O)NC1=O

>  <smiles>  (17) 
[H]C(=C([H])C([H])([H])[H])c1c([H])c([H])c2c(c1[H])C([H])([H])C1([N+]([H])=C(N([H])[H])C3([H])C([H])([H])C31[H])C1(C(=O)[N-]C(=O)N([H])C1=O)C2([H])[H]

$$$$
1:3:2
     RDKit          3D

 47 51  0  0  1  0  0  0  0  0999 V2000
    4.0206   -2.4281   -3.0973 C   0  0  0  0  0  0  0  0  0  0  0  0
    4.2316   -1.2251   -2.1808 C   0  0  0  0  0  0  0  0  0  0  0  0
    4.0997   -1.1270   -0.8393 C   0  0  0  0  0  0  0  0  0  0  0  0
    3.7659   -2.1712    0.1401 C   0  0  0  0  0  0  0  0  0  0  0  0
    3.0231   -1.8170    1.2943 C   0  0  0  0  0  0  0  0  0  0  0  0
    2.6329   -2.8060    2.2193 C   0  0  0  0  0  0  0  0  0  0  0  0
    2.9401   -4.1587    1.9822 C   0  0  0  0  0  0  0  0  0  0  0  0
    3.6912   -4.5138    0.8345 C   0  0  0  0  0  0  0  0  0  0  0  0
    4.1272   -3.5204   -0.0488 C   0  0  0  0  0  0  0  0  0  0  0  0
    4.0456   -5.9507    0.5073 C   0  0  0  0  0  0  0  0  0  0  0  0
    3.9230   -6.8896    1.7221 C   0  0  1  0  0  0  0  0  0  0  0  0
    3.9951   -8.3008    1.2711 N   0  0  0  0  0  0  0  0  0  0  0  0
    5.0061   -8.9579    1.8390 C   0  0  0  0  0  0  0  0  0  0  0  0
    5.2489  -10.2548    1.6764 N   0  0  0  0  0  0  0  0  0  0  0  0
    5.8407   -8.0863    2.6832 C   0  0  1  0  0  0  0  0  0  0  0  0
    6.6066   -6.9139    2.1429 C   0  0  0  0  0  0  0  0  0  0  0  0
    5.1815   -6.7448    2.5990 C   0  0  1  0  0  0  0  0  0  0  0  0
    2.5894   -6.6631    2.5349 C   0  0  1  0  0  0  0  0  0  0  0  0
    2.5074   -5.1809    3.0129 C   0  0  0  0  0  0  0  0  0  0  0  0
    1.3385   -6.9642    1.6303 C   0  0  0  0  0  0  0  0  0  0  0  0
    1.0399   -6.2223    0.6851 O   0  0  0  0  0  0  0  0  0  0  0  0
    0.6048   -8.0527    1.8594 N   0  0  0  0  0  0  0  0  0  0  0  0
    0.7573   -8.8997    2.8835 C   0  0  0  0  0  0  0  0  0  0  0  0
    0.0213   -9.8794    2.8835 O   0  0  0  0  0  0  0  0  0  0  0  0
    1.6886   -8.6363    3.8406 N   0  0  0  0  0  0  0  0  0  0  0  0
    2.5269   -7.5583    3.8274 C   0  0  0  0  0  0  0  0  0  0  0  0
    3.2552   -7.2607    4.7789 O   0  0  0  0  0  0  0  0  0  0  0  0
    4.8728   -2.5121   -3.7693 H   0  0  0  0  0  0  0  0  0  0  0  0
    3.1245   -2.2733   -3.6947 H   0  0  0  0  0  0  0  0  0  0  0  0
    3.8882   -3.3995   -2.6135 H   0  0  0  0  0  0  0  0  0  0  0  0
    4.5000   -0.3158   -2.6900 H   0  0  0  0  0  0  0  0  0  0  0  0
    4.2648   -0.1553   -0.3912 H   0  0  0  0  0  0  0  0  0  0  0  0
    2.7452   -0.7894    1.4843 H   0  0  0  0  0  0  0  0  0  0  0  0
    2.0869   -2.5332    3.1185 H   0  0  0  0  0  0  0  0  0  0  0  0
    4.7579   -3.8361   -0.8733 H   0  0  0  0  0  0  0  0  0  0  0  0
    3.4003   -6.2801   -0.3042 H   0  0  0  0  0  0  0  0  0  0  0  0
    5.0365   -5.9817    0.0617 H   0  0  0  0  0  0  0  0  0  0  0  0
    4.6630  -10.8904    1.1194 H   0  0  0  0  0  0  0  0  0  0  0  0
    6.0209  -10.6813    2.1695 H   0  0  0  0  0  0  0  0  0  0  0  0
    5.9793   -8.4684    3.6967 H   0  0  0  0  0  0  0  0  0  0  0  0
    7.3445   -6.4503    2.7904 H   0  0  0  0  0  0  0  0  0  0  0  0
    6.8061   -6.8519    1.0708 H   0  0  0  0  0  0  0  0  0  0  0  0
    5.0748   -6.1464    3.5001 H   0  0  0  0  0  0  0  0  0  0  0  0
    3.1671   -4.9674    3.8669 H   0  0  0  0  0  0  0  0  0  0  0  0
    1.4961   -4.9393    3.3581 H   0  0  0  0  0  0  0  0  0  0  0  0
   -0.0726   -8.3138    1.1579 H   0  0  0  0  0  0  0  0  0  0  0  0
    3.2787   -8.7376    0.7101 H   0  0  0  0  0  0  0  0  0  0  0  0
  1  2  1  0
  1 28  1  0
  1 29  1  0
  1 30  1  0
  2  3  2  3
  2 31  1  0
  3  4  1  0
  3 32  1  0
  4  9  2  0
  4  5  1  0
  5  6  2  0
  5 33  1  0
  6  7  1  0
  6 34  1  0
  7 19  1  0
  7  8  2  0
  8  9  1  0
  8 10  1  0
  9 35  1  0
 11 10  1  6
 10 36  1  0
 10 37  1  0
 11 17  1  0
 11 12  1  0
 11 18  1  0
 12 13  2  0
 12 47  1  0
 13 14  1  0
 13 15  1  0
 14 38  1  0
 14 39  1  0
 15 17  1  0
 15 16  1  0
 15 40  1  1
 16 17  1  0
 16 41  1  0
 16 42  1  0
 17 43  1  1
 18 26  1  0
 18 19  1  1
 18 20  1  0
 19 44  1  0
 19 45  1  0
 20 21  2  0
 20 22  1  0
 22 23  1  0
 22 46  1  0
 23 24  2  0
 23 25  1  0
 25 26  1  0
 26 27  2  0
M  CHG  2  12   1  25  -1
M  END
>  <i_m_ct_stereo_status>  (18) 
1

>  <s_m_source_file>  (18) 
/var/tmp/pbs.5076255.sched01/tmp6mrmgolx/06cp14zw5.sdf

>  <i_m_source_file_index>  (18) 
6

>  <i_lp_mmshare_version>  (18) 
48012

>  <i_f3d_flags>  (18) 
0

>  <s_epik_input>  (18) 
W0NIM10vW0NIXT1bQ0hdL2MoW2NIXVtjSF0xKVtjSF1jKFtDSDJdMiljMVtDSDJdQzMoW0NAXTI0W0NASF01W0NIXShbQ0gyXTUpQyg9TjQpW05IMl0pQyg9TylbTkhdQyg9TylbTkhdQzM9Tw==

>  <s_epik_cmdline>  (18) 
J2VwaWtfcHl0aG9uJywgJy1waHQnLCAnMi4wJywgJy1waCcsICc3LjAnLCAnLXRuJywgJzgnLCAnLW1hJywgJzIwMCcsICctaW1hZScsICc8aW5maWxlLm1hZT4nLCAnLW9tYWUnLCAnPG91dGZpbGUubWFlPic=

>  <r_epik_Ionization_Penalty>  (18) 
0.507264

>  <r_epik_Ionization_Penalty_Charging>  (18) 
0.507254

>  <r_epik_Ionization_Penalty_Neutral>  (18) 
9.29906e-06

>  <r_epik_State_Penalty>  (18) 
0.746726

>  <r_epik_Charging_Adjusted_Penalty>  (18) 
1.25398

>  <i_epik_Tot_Q>  (18) 
0

>  <i_epik_Tot_abs_Q>  (18) 
2

>  <s_epik_Chemistry_Notes>  (18) 
This compound has an imine and may undergo hydrolysis.

>  <s_lp_Force_Field>  (18) 
OPLS3e

>  <r_lp_Energy>  (18) 
40.6692

>  <b_lp_Chiralities_Consistent>  (18) 
1

>  <s_lp_Variant>  (18) 
1:0-4

>  <s_i_glide_gridfile>  (18) 
pfpi4k_grid

>  <i_i_glide_lignum>  (18) 
6

>  <i_i_glide_rotatable_bonds>  (18) 
1

>  <r_i_docking_score>  (18) 
-4.40979

>  <r_i_glide_ligand_efficiency>  (18) 
-0.163326

>  <r_i_glide_ligand_efficiency_sa>  (18) 
-0.489977

>  <r_i_glide_ligand_efficiency_ln>  (18) 
-1.02653

>  <r_i_glide_gscore>  (18) 
-4.40979

>  <r_i_glide_lipo>  (18) 
-0.363479

>  <r_i_glide_hbond>  (18) 
-0.533696

>  <r_i_glide_metal>  (18) 
-0

>  <r_i_glide_rewards>  (18) 
-0.92456

>  <r_i_glide_evdw>  (18) 
-26.7096

>  <r_i_glide_ecoul>  (18) 
-7.57188

>  <r_i_glide_erotb>  (18) 
0.144777

>  <r_i_glide_esite>  (18) 
-0.261574

>  <r_i_glide_emodel>  (18) 
-45.5431

>  <r_i_glide_energy>  (18) 
-34.2815

>  <r_i_glide_einternal>  (18) 
0.437443

>  <r_i_glide_intrahb_reward>  (18) 
-0

>  <i_i_glide_confnum>  (18) 
4

>  <i_i_glide_posenum>  (18) 
37

>  <r_i_glide_eff_state_penalty>  (18) 
0

>  <ligand_id>  (18) 
1

>  <original_smiles>  (18) 
CC=Cc1ccc2c(c1)CC1(N=C(N)C3CC31)C1(C2)C(=O)NC(=O)NC1=O

>  <smiles>  (18) 
[H]C(=C([H])C([H])([H])[H])c1c([H])c([H])c2c(c1[H])C([H])([H])C1([N+]([H])=C(N([H])[H])C3([H])C([H])([H])C31[H])C1(C(=O)[N-]C(=O)N([H])C1=O)C2([H])[H]

$$$$
1:4:0
     RDKit          3D

 47 51  0  0  1  0  0  0  0  0999 V2000
   -3.7363    3.3551    9.2960 C   0  0  0  0  0  0  0  0  0  0  0  0
   -3.0852    2.6923    8.1153 C   0  0  0  0  0  0  0  0  0  0  0  0
   -1.9304    2.0102    8.1813 C   0  0  0  0  0  0  0  0  0  0  0  0
   -1.2635    1.3772    7.0373 C   0  0  0  0  0  0  0  0  0  0  0  0
   -1.7301    1.5193    5.7079 C   0  0  0  0  0  0  0  0  0  0  0  0
   -1.0594    0.9094    4.6397 C   0  0  0  0  0  0  0  0  0  0  0  0
    0.0988    0.1587    4.8790 C   0  0  0  0  0  0  0  0  0  0  0  0
    0.5703   -0.0123    6.2096 C   0  0  0  0  0  0  0  0  0  0  0  0
   -0.1144    0.5938    7.2763 C   0  0  0  0  0  0  0  0  0  0  0  0
    1.7637   -0.8964    6.5436 C   0  0  0  0  0  0  0  0  0  0  0  0
    2.5943   -1.2751    5.2972 C   0  0  1  0  0  0  0  0  0  0  0  0
    3.4155   -0.0882    4.9490 N   0  0  0  0  0  0  0  0  0  0  0  0
    4.7468   -0.3374    4.9192 C   0  0  0  0  0  0  0  0  0  0  0  0
    5.6616    0.5441    4.5395 N   0  0  0  0  0  0  0  0  0  0  0  0
    5.0212   -1.7112    5.3660 C   0  0  1  0  0  0  0  0  0  0  0  0
    4.6774   -2.2092    6.7355 C   0  0  0  0  0  0  0  0  0  0  0  0
    3.6666   -2.3229    5.6248 C   0  0  1  0  0  0  0  0  0  0  0  0
    1.6703   -1.7316    4.0698 C   0  0  1  0  0  0  0  0  0  0  0  0
    0.7507   -0.5220    3.6855 C   0  0  0  0  0  0  0  0  0  0  0  0
    2.5494   -2.1326    2.8246 C   0  0  0  0  0  0  0  0  0  0  0  0
    3.1901   -1.2238    2.2899 O   0  0  0  0  0  0  0  0  0  0  0  0
    2.6151   -3.4571    2.4802 N   0  0  0  0  0  0  0  0  0  0  0  0
    1.8742   -4.4622    3.0377 C   0  0  0  0  0  0  0  0  0  0  0  0
    1.9393   -5.6409    2.6996 O   0  0  0  0  0  0  0  0  0  0  0  0
    0.9915   -4.1715    3.9796 N   0  0  0  0  0  0  0  0  0  0  0  0
    0.7646   -2.9527    4.4580 C   0  0  0  0  0  0  0  0  0  0  0  0
   -0.1869   -2.8033    5.2223 O   0  0  0  0  0  0  0  0  0  0  0  0
   -3.8226    4.4238    9.1066 H   0  0  0  0  0  0  0  0  0  0  0  0
   -3.1512    3.2037   10.2032 H   0  0  0  0  0  0  0  0  0  0  0  0
   -4.7349    2.9503    9.4467 H   0  0  0  0  0  0  0  0  0  0  0  0
   -3.6158    2.8055    7.1843 H   0  0  0  0  0  0  0  0  0  0  0  0
   -1.4283    1.9207    9.1389 H   0  0  0  0  0  0  0  0  0  0  0  0
   -2.5946    2.1090    5.4513 H   0  0  0  0  0  0  0  0  0  0  0  0
   -1.4466    1.0045    3.6327 H   0  0  0  0  0  0  0  0  0  0  0  0
    0.2542    0.4413    8.2855 H   0  0  0  0  0  0  0  0  0  0  0  0
    2.3899   -0.3904    7.2782 H   0  0  0  0  0  0  0  0  0  0  0  0
    1.4350   -1.8015    7.0448 H   0  0  0  0  0  0  0  0  0  0  0  0
    5.3811    1.4405    4.1771 H   0  0  0  0  0  0  0  0  0  0  0  0
    6.6426    0.2839    4.5622 H   0  0  0  0  0  0  0  0  0  0  0  0
    5.6862   -2.2601    4.6980 H   0  0  0  0  0  0  0  0  0  0  0  0
    5.1504   -3.1332    7.0601 H   0  0  0  0  0  0  0  0  0  0  0  0
    4.4743   -1.4837    7.5225 H   0  0  0  0  0  0  0  0  0  0  0  0
    3.5211   -3.3262    5.2515 H   0  0  0  0  0  0  0  0  0  0  0  0
   -0.0189   -0.8611    2.9961 H   0  0  0  0  0  0  0  0  0  0  0  0
    1.2937    0.2503    3.1242 H   0  0  0  0  0  0  0  0  0  0  0  0
    0.3908   -4.9022    4.3495 H   0  0  0  0  0  0  0  0  0  0  0  0
    2.9769    0.7236    4.5518 H   0  0  0  0  0  0  0  0  0  0  0  0
  1  2  1  0
  1 28  1  0
  1 29  1  0
  1 30  1  0
  2  3  2  3
  2 31  1  0
  3  4  1  0
  3 32  1  0
  4  9  2  0
  4  5  1  0
  5  6  2  0
  5 33  1  0
  6  7  1  0
  6 34  1  0
  7 19  1  0
  7  8  2  0
  8  9  1  0
  8 10  1  0
  9 35  1  0
 11 10  1  1
 10 36  1  0
 10 37  1  0
 11 17  1  0
 11 12  1  0
 11 18  1  0
 12 13  2  0
 12 47  1  0
 13 14  1  0
 13 15  1  0
 14 38  1  0
 14 39  1  0
 15 17  1  0
 15 16  1  0
 15 40  1  6
 16 17  1  0
 16 41  1  0
 16 42  1  0
 17 43  1  6
 18 26  1  0
 18 19  1  6
 18 20  1  0
 19 44  1  0
 19 45  1  0
 20 21  2  0
 20 22  1  0
 22 23  1  0
 23 24  2  0
 23 25  1  0
 25 26  1  0
 25 46  1  0
 26 27  2  0
M  CHG  2  12   1  22  -1
M  END
>  <i_m_ct_stereo_status>  (19) 
1

>  <s_m_source_file>  (19) 
/var/tmp/pbs.5076255.sched01/tmp6mrmgolx/06cp14zw5.sdf

>  <i_m_source_file_index>  (19) 
7

>  <i_lp_mmshare_version>  (19) 
48012

>  <i_f3d_flags>  (19) 
0

>  <s_epik_input>  (19) 
W0NIM10vW0NIXT1bQ0hdL2MoW2NIXVtjSF0xKVtjSF1jKFtDSDJdMiljMVtDSDJdQzMoW0NAXTI0W0NASF01W0NIXShbQ0gyXTUpQyg9TjQpW05IMl0pQyg9TylbTkhdQyg9TylbTkhdQzM9Tw==

>  <s_epik_cmdline>  (19) 
J2VwaWtfcHl0aG9uJywgJy1waHQnLCAnMi4wJywgJy1waCcsICc3LjAnLCAnLXRuJywgJzgnLCAnLW1hJywgJzIwMCcsICctaW1hZScsICc8aW5maWxlLm1hZT4nLCAnLW9tYWUnLCAnPG91dGZpbGUubWFlPic=

>  <r_epik_Ionization_Penalty>  (19) 
0.507264

>  <r_epik_Ionization_Penalty_Charging>  (19) 
0.507254

>  <r_epik_Ionization_Penalty_Neutral>  (19) 
9.29906e-06

>  <r_epik_State_Penalty>  (19) 
0.746726

>  <r_epik_Charging_Adjusted_Penalty>  (19) 
1.25398

>  <i_epik_Tot_Q>  (19) 
0

>  <i_epik_Tot_abs_Q>  (19) 
2

>  <s_epik_Chemistry_Notes>  (19) 
This compound has an imine and may undergo hydrolysis.

>  <s_lp_Force_Field>  (19) 
OPLS3e

>  <r_lp_Energy>  (19) 
39.3168

>  <b_lp_Chiralities_Consistent>  (19) 
1

>  <s_lp_Variant>  (19) 
1:0-5

>  <s_i_glide_gridfile>  (19) 
pfpi4k_grid

>  <i_i_glide_lignum>  (19) 
7

>  <i_i_glide_rotatable_bonds>  (19) 
1

>  <r_i_docking_score>  (19) 
-2.56768

>  <r_i_glide_ligand_efficiency>  (19) 
-0.0950994

>  <r_i_glide_ligand_efficiency_sa>  (19) 
-0.285298

>  <r_i_glide_ligand_efficiency_ln>  (19) 
-0.597714

>  <r_i_glide_gscore>  (19) 
-2.56768

>  <r_i_glide_lipo>  (19) 
-0.233696

>  <r_i_glide_hbond>  (19) 
0

>  <r_i_glide_metal>  (19) 
-0

>  <r_i_glide_rewards>  (19) 
-1.00863

>  <r_i_glide_evdw>  (19) 
-20.3211

>  <r_i_glide_ecoul>  (19) 
-2.94021

>  <r_i_glide_erotb>  (19) 
0.144777

>  <r_i_glide_esite>  (19) 
-0.0130475

>  <r_i_glide_emodel>  (19) 
-26.9772

>  <r_i_glide_energy>  (19) 
-23.2613

>  <r_i_glide_einternal>  (19) 
0.0270012

>  <r_i_glide_intrahb_reward>  (19) 
-0

>  <i_i_glide_confnum>  (19) 
3

>  <i_i_glide_posenum>  (19) 
15

>  <r_i_glide_eff_state_penalty>  (19) 
0

>  <ligand_id>  (19) 
1

>  <original_smiles>  (19) 
CC=Cc1ccc2c(c1)CC1(N=C(N)C3CC31)C1(C2)C(=O)NC(=O)NC1=O

>  <smiles>  (19) 
[H]C(=C([H])C([H])([H])[H])c1c([H])c([H])c2c(c1[H])C([H])([H])C1([N+]([H])=C(N([H])[H])C3([H])C([H])([H])C31[H])C1(C(=O)[N-]C(=O)N([H])C1=O)C2([H])[H]

$$$$
1:4:1
     RDKit          3D

 47 51  0  0  1  0  0  0  0  0999 V2000
   -2.9148    3.7417   10.4803 C   0  0  0  0  0  0  0  0  0  0  0  0
   -2.6091    2.8912    9.2811 C   0  0  0  0  0  0  0  0  0  0  0  0
   -1.4470    2.2436    9.1021 C   0  0  0  0  0  0  0  0  0  0  0  0
   -1.1068    1.4367    7.9246 C   0  0  0  0  0  0  0  0  0  0  0  0
   -1.9432    1.3668    6.7836 C   0  0  0  0  0  0  0  0  0  0  0  0
   -1.5822    0.5875    5.6755 C   0  0  0  0  0  0  0  0  0  0  0  0
   -0.3806   -0.1317    5.6861 C   0  0  0  0  0  0  0  0  0  0  0  0
    0.4592   -0.0924    6.8328 C   0  0  0  0  0  0  0  0  0  0  0  0
    0.0883    0.6868    7.9418 C   0  0  0  0  0  0  0  0  0  0  0  0
    1.7303   -0.9234    6.9422 C   0  0  0  0  0  0  0  0  0  0  0  0
    2.1816   -1.5018    5.5864 C   0  0  1  0  0  0  0  0  0  0  0  0
    2.8269   -0.3919    4.8325 N   0  0  0  0  0  0  0  0  0  0  0  0
    4.0999   -0.6480    4.4576 C   0  0  0  0  0  0  0  0  0  0  0  0
    4.8378    0.1498    3.6992 N   0  0  0  0  0  0  0  0  0  0  0  0
    4.5468   -1.9385    5.0143 C   0  0  1  0  0  0  0  0  0  0  0  0
    4.6253   -2.2125    6.4855 C   0  0  0  0  0  0  0  0  0  0  0  0
    3.3458   -2.4917    5.7446 C   0  0  1  0  0  0  0  0  0  0  0  0
    0.9600   -2.1406    4.7709 C   0  0  1  0  0  0  0  0  0  0  0  0
   -0.0745   -1.0018    4.4780 C   0  0  0  0  0  0  0  0  0  0  0  0
    1.4686   -2.7408    3.4065 C   0  0  0  0  0  0  0  0  0  0  0  0
    1.8734   -1.9349    2.5626 O   0  0  0  0  0  0  0  0  0  0  0  0
    1.4999   -4.1033    3.2754 N   0  0  0  0  0  0  0  0  0  0  0  0
    0.9697   -5.0002    4.1615 C   0  0  0  0  0  0  0  0  0  0  0  0
    0.9899   -6.2153    3.9898 O   0  0  0  0  0  0  0  0  0  0  0  0
    0.3550   -4.5573    5.2433 N   0  0  0  0  0  0  0  0  0  0  0  0
    0.2380   -3.2738    5.5804 C   0  0  0  0  0  0  0  0  0  0  0  0
   -0.4671   -2.9913    6.5460 O   0  0  0  0  0  0  0  0  0  0  0  0
   -3.1227    4.7602   10.1541 H   0  0  0  0  0  0  0  0  0  0  0  0
   -2.0780    3.7536   11.1776 H   0  0  0  0  0  0  0  0  0  0  0  0
   -3.7866    3.3443   10.9962 H   0  0  0  0  0  0  0  0  0  0  0  0
   -3.4015    2.8366    8.5531 H   0  0  0  0  0  0  0  0  0  0  0  0
   -0.6818    2.3204    9.8663 H   0  0  0  0  0  0  0  0  0  0  0  0
   -2.8699    1.9151    6.7100 H   0  0  0  0  0  0  0  0  0  0  0  0
   -2.2361    0.5277    4.8144 H   0  0  0  0  0  0  0  0  0  0  0  0
    0.7301    0.6877    8.8175 H   0  0  0  0  0  0  0  0  0  0  0  0
    2.5198   -0.3122    7.3785 H   0  0  0  0  0  0  0  0  0  0  0  0
    1.5903   -1.7339    7.6498 H   0  0  0  0  0  0  0  0  0  0  0  0
    4.4544    1.0030    3.3049 H   0  0  0  0  0  0  0  0  0  0  0  0
    5.7878   -0.1153    3.4850 H   0  0  0  0  0  0  0  0  0  0  0  0
    5.0141   -2.5900    4.2769 H   0  0  0  0  0  0  0  0  0  0  0  0
    5.2022   -3.0791    6.8003 H   0  0  0  0  0  0  0  0  0  0  0  0
    4.6261   -1.3717    7.1781 H   0  0  0  0  0  0  0  0  0  0  0  0
    3.1337   -3.5408    5.5922 H   0  0  0  0  0  0  0  0  0  0  0  0
   -0.9970   -1.4409    4.1005 H   0  0  0  0  0  0  0  0  0  0  0  0
    0.2582   -0.3329    3.6730 H   0  0  0  0  0  0  0  0  0  0  0  0
   -0.0824   -5.2180    5.8755 H   0  0  0  0  0  0  0  0  0  0  0  0
    2.2618    0.3567    4.4595 H   0  0  0  0  0  0  0  0  0  0  0  0
  1  2  1  0
  1 28  1  0
  1 29  1  0
  1 30  1  0
  2  3  2  3
  2 31  1  0
  3  4  1  0
  3 32  1  0
  4  9  2  0
  4  5  1  0
  5  6  2  0
  5 33  1  0
  6  7  1  0
  6 34  1  0
  7 19  1  0
  7  8  2  0
  8  9  1  0
  8 10  1  0
  9 35  1  0
 11 10  1  1
 10 36  1  0
 10 37  1  0
 11 17  1  0
 11 12  1  0
 11 18  1  0
 12 13  2  0
 12 47  1  0
 13 14  1  0
 13 15  1  0
 14 38  1  0
 14 39  1  0
 15 17  1  0
 15 16  1  0
 15 40  1  6
 16 17  1  0
 16 41  1  0
 16 42  1  0
 17 43  1  6
 18 26  1  0
 18 19  1  6
 18 20  1  0
 19 44  1  0
 19 45  1  0
 20 21  2  0
 20 22  1  0
 22 23  1  0
 23 24  2  0
 23 25  1  0
 25 26  1  0
 25 46  1  0
 26 27  2  0
M  CHG  2  12   1  22  -1
M  END
>  <i_m_ct_stereo_status>  (20) 
1

>  <s_m_source_file>  (20) 
/var/tmp/pbs.5076255.sched01/tmp6mrmgolx/06cp14zw5.sdf

>  <i_m_source_file_index>  (20) 
7

>  <i_lp_mmshare_version>  (20) 
48012

>  <i_f3d_flags>  (20) 
0

>  <s_epik_input>  (20) 
W0NIM10vW0NIXT1bQ0hdL2MoW2NIXVtjSF0xKVtjSF1jKFtDSDJdMiljMVtDSDJdQzMoW0NAXTI0W0NASF01W0NIXShbQ0gyXTUpQyg9TjQpW05IMl0pQyg9TylbTkhdQyg9TylbTkhdQzM9Tw==

>  <s_epik_cmdline>  (20) 
J2VwaWtfcHl0aG9uJywgJy1waHQnLCAnMi4wJywgJy1waCcsICc3LjAnLCAnLXRuJywgJzgnLCAnLW1hJywgJzIwMCcsICctaW1hZScsICc8aW5maWxlLm1hZT4nLCAnLW9tYWUnLCAnPG91dGZpbGUubWFlPic=

>  <r_epik_Ionization_Penalty>  (20) 
0.507264

>  <r_epik_Ionization_Penalty_Charging>  (20) 
0.507254

>  <r_epik_Ionization_Penalty_Neutral>  (20) 
9.29906e-06

>  <r_epik_State_Penalty>  (20) 
0.746726

>  <r_epik_Charging_Adjusted_Penalty>  (20) 
1.25398

>  <i_epik_Tot_Q>  (20) 
0

>  <i_epik_Tot_abs_Q>  (20) 
2

>  <s_epik_Chemistry_Notes>  (20) 
This compound has an imine and may undergo hydrolysis.

>  <s_lp_Force_Field>  (20) 
OPLS3e

>  <r_lp_Energy>  (20) 
39.3168

>  <b_lp_Chiralities_Consistent>  (20) 
1

>  <s_lp_Variant>  (20) 
1:0-5

>  <s_i_glide_gridfile>  (20) 
pfpi4k_grid

>  <i_i_glide_lignum>  (20) 
7

>  <i_i_glide_rotatable_bonds>  (20) 
1

>  <r_i_docking_score>  (20) 
-2.39013

>  <r_i_glide_ligand_efficiency>  (20) 
-0.0885232

>  <r_i_glide_ligand_efficiency_sa>  (20) 
-0.26557

>  <r_i_glide_ligand_efficiency_ln>  (20) 
-0.556382

>  <r_i_glide_gscore>  (20) 
-2.39013

>  <r_i_glide_lipo>  (20) 
-0.0201103

>  <r_i_glide_hbond>  (20) 
0

>  <r_i_glide_metal>  (20) 
-0

>  <r_i_glide_rewards>  (20) 
-0.983504

>  <r_i_glide_evdw>  (20) 
-19.4946

>  <r_i_glide_ecoul>  (20) 
-3.56944

>  <r_i_glide_erotb>  (20) 
0.144777

>  <r_i_glide_esite>  (20) 
-0.0211429

>  <r_i_glide_emodel>  (20) 
-26.1952

>  <r_i_glide_energy>  (20) 
-23.064

>  <r_i_glide_einternal>  (20) 
0.0471819

>  <r_i_glide_intrahb_reward>  (20) 
-0

>  <i_i_glide_confnum>  (20) 
3

>  <i_i_glide_posenum>  (20) 
1

>  <r_i_glide_eff_state_penalty>  (20) 
0

>  <ligand_id>  (20) 
1

>  <original_smiles>  (20) 
CC=Cc1ccc2c(c1)CC1(N=C(N)C3CC31)C1(C2)C(=O)NC(=O)NC1=O

>  <smiles>  (20) 
[H]C(=C([H])C([H])([H])[H])c1c([H])c([H])c2c(c1[H])C([H])([H])C1([N+]([H])=C(N([H])[H])C3([H])C([H])([H])C31[H])C1(C(=O)[N-]C(=O)N([H])C1=O)C2([H])[H]

$$$$
1:4:2
     RDKit          3D

 47 51  0  0  1  0  0  0  0  0999 V2000
    0.7846  -10.7328    3.0225 C   0  0  0  0  0  0  0  0  0  0  0  0
    1.3812   -9.3820    2.7268 C   0  0  0  0  0  0  0  0  0  0  0  0
    2.6159   -9.0126    3.1070 C   0  0  0  0  0  0  0  0  0  0  0  0
    3.2428   -7.7211    2.8135 C   0  0  0  0  0  0  0  0  0  0  0  0
    4.3161   -7.2757    3.6156 C   0  0  0  0  0  0  0  0  0  0  0  0
    4.9277   -6.0340    3.3678 C   0  0  0  0  0  0  0  0  0  0  0  0
    4.4773   -5.2230    2.3131 C   0  0  0  0  0  0  0  0  0  0  0  0
    3.3831   -5.6543    1.5163 C   0  0  0  0  0  0  0  0  0  0  0  0
    2.7691   -6.8893    1.7752 C   0  0  0  0  0  0  0  0  0  0  0  0
    2.7893   -4.7977    0.4140 C   0  0  0  0  0  0  0  0  0  0  0  0
    3.7035   -3.6238    0.0172 C   0  0  1  0  0  0  0  0  0  0  0  0
    4.7932   -4.1621   -0.8219 N   0  0  0  0  0  0  0  0  0  0  0  0
    4.8591   -3.5794   -2.0341 C   0  0  0  0  0  0  0  0  0  0  0  0
    5.8106   -3.7820   -2.9248 N   0  0  0  0  0  0  0  0  0  0  0  0
    3.7519   -2.6493   -2.2523 C   0  0  1  0  0  0  0  0  0  0  0  0
    2.3166   -3.0613   -2.2333 C   0  0  0  0  0  0  0  0  0  0  0  0
    3.0095   -2.6642   -0.9504 C   0  0  1  0  0  0  0  0  0  0  0  0
    4.2759   -2.8556    1.2921 C   0  0  1  0  0  0  0  0  0  0  0  0
    5.1399   -3.8638    2.1206 C   0  0  0  0  0  0  0  0  0  0  0  0
    5.1730   -1.6317    0.8580 C   0  0  0  0  0  0  0  0  0  0  0  0
    6.2336   -1.8889    0.2769 O   0  0  0  0  0  0  0  0  0  0  0  0
    4.6916   -0.3721    1.0877 N   0  0  0  0  0  0  0  0  0  0  0  0
    3.5350   -0.0802    1.7631 C   0  0  0  0  0  0  0  0  0  0  0  0
    3.0647    1.0459    1.9054 O   0  0  0  0  0  0  0  0  0  0  0  0
    2.8500   -1.0454    2.3342 N   0  0  0  0  0  0  0  0  0  0  0  0
    3.1202   -2.3458    2.2293 C   0  0  0  0  0  0  0  0  0  0  0  0
    2.4298   -3.1274    2.8811 O   0  0  0  0  0  0  0  0  0  0  0  0
   -0.1108  -10.6273    3.6328 H   0  0  0  0  0  0  0  0  0  0  0  0
    1.4992  -11.3689    3.5468 H   0  0  0  0  0  0  0  0  0  0  0  0
    0.4987  -11.2123    2.0893 H   0  0  0  0  0  0  0  0  0  0  0  0
    0.7421   -8.7075    2.1775 H   0  0  0  0  0  0  0  0  0  0  0  0
    3.2300   -9.7137    3.6562 H   0  0  0  0  0  0  0  0  0  0  0  0
    4.6732   -7.8769    4.4401 H   0  0  0  0  0  0  0  0  0  0  0  0
    5.7242   -5.6811    4.0101 H   0  0  0  0  0  0  0  0  0  0  0  0
    1.9267   -7.1819    1.1571 H   0  0  0  0  0  0  0  0  0  0  0  0
    2.5744   -5.4304   -0.4409 H   0  0  0  0  0  0  0  0  0  0  0  0
    1.8197   -4.4235    0.7208 H   0  0  0  0  0  0  0  0  0  0  0  0
    6.5405   -4.4504   -2.7314 H   0  0  0  0  0  0  0  0  0  0  0  0
    5.7498   -3.3659   -3.8418 H   0  0  0  0  0  0  0  0  0  0  0  0
    4.0707   -1.6768   -2.6237 H   0  0  0  0  0  0  0  0  0  0  0  0
    1.6025   -2.3572   -2.6518 H   0  0  0  0  0  0  0  0  0  0  0  0
    2.0438   -4.1122   -2.3462 H   0  0  0  0  0  0  0  0  0  0  0  0
    2.7145   -1.7121   -0.5486 H   0  0  0  0  0  0  0  0  0  0  0  0
    5.3736   -3.4351    3.0961 H   0  0  0  0  0  0  0  0  0  0  0  0
    6.1163   -4.0441    1.6525 H   0  0  0  0  0  0  0  0  0  0  0  0
    2.0358   -0.8018    2.8854 H   0  0  0  0  0  0  0  0  0  0  0  0
    5.4982   -4.7529   -0.4150 H   0  0  0  0  0  0  0  0  0  0  0  0
  1  2  1  0
  1 28  1  0
  1 29  1  0
  1 30  1  0
  2  3  2  3
  2 31  1  0
  3  4  1  0
  3 32  1  0
  4  9  2  0
  4  5  1  0
  5  6  2  0
  5 33  1  0
  6  7  1  0
  6 34  1  0
  7 19  1  0
  7  8  2  0
  8  9  1  0
  8 10  1  0
  9 35  1  0
 11 10  1  1
 10 36  1  0
 10 37  1  0
 11 17  1  0
 11 12  1  0
 11 18  1  0
 12 13  2  0
 12 47  1  0
 13 14  1  0
 13 15  1  0
 14 38  1  0
 14 39  1  0
 15 17  1  0
 15 16  1  0
 15 40  1  6
 16 17  1  0
 16 41  1  0
 16 42  1  0
 17 43  1  1
 18 26  1  0
 18 19  1  1
 18 20  1  0
 19 44  1  0
 19 45  1  0
 20 21  2  0
 20 22  1  0
 22 23  1  0
 23 24  2  0
 23 25  1  0
 25 26  1  0
 25 46  1  0
 26 27  2  0
M  CHG  2  12   1  22  -1
M  END
>  <i_m_ct_stereo_status>  (21) 
1

>  <s_m_source_file>  (21) 
/var/tmp/pbs.5076255.sched01/tmp6mrmgolx/06cp14zw5.sdf

>  <i_m_source_file_index>  (21) 
7

>  <i_lp_mmshare_version>  (21) 
48012

>  <i_f3d_flags>  (21) 
0

>  <s_epik_input>  (21) 
W0NIM10vW0NIXT1bQ0hdL2MoW2NIXVtjSF0xKVtjSF1jKFtDSDJdMiljMVtDSDJdQzMoW0NAXTI0W0NASF01W0NIXShbQ0gyXTUpQyg9TjQpW05IMl0pQyg9TylbTkhdQyg9TylbTkhdQzM9Tw==

>  <s_epik_cmdline>  (21) 
J2VwaWtfcHl0aG9uJywgJy1waHQnLCAnMi4wJywgJy1waCcsICc3LjAnLCAnLXRuJywgJzgnLCAnLW1hJywgJzIwMCcsICctaW1hZScsICc8aW5maWxlLm1hZT4nLCAnLW9tYWUnLCAnPG91dGZpbGUubWFlPic=

>  <r_epik_Ionization_Penalty>  (21) 
0.507264

>  <r_epik_Ionization_Penalty_Charging>  (21) 
0.507254

>  <r_epik_Ionization_Penalty_Neutral>  (21) 
9.29906e-06

>  <r_epik_State_Penalty>  (21) 
0.746726

>  <r_epik_Charging_Adjusted_Penalty>  (21) 
1.25398

>  <i_epik_Tot_Q>  (21) 
0

>  <i_epik_Tot_abs_Q>  (21) 
2

>  <s_epik_Chemistry_Notes>  (21) 
This compound has an imine and may undergo hydrolysis.

>  <s_lp_Force_Field>  (21) 
OPLS3e

>  <r_lp_Energy>  (21) 
39.3168

>  <b_lp_Chiralities_Consistent>  (21) 
1

>  <s_lp_Variant>  (21) 
1:0-5

>  <s_i_glide_gridfile>  (21) 
pfpi4k_grid

>  <i_i_glide_lignum>  (21) 
7

>  <i_i_glide_rotatable_bonds>  (21) 
1

>  <r_i_docking_score>  (21) 
-2.34661

>  <r_i_glide_ligand_efficiency>  (21) 
-0.0869114

>  <r_i_glide_ligand_efficiency_sa>  (21) 
-0.260734

>  <r_i_glide_ligand_efficiency_ln>  (21) 
-0.546252

>  <r_i_glide_gscore>  (21) 
-2.34661

>  <r_i_glide_lipo>  (21) 
-0.296413

>  <r_i_glide_hbond>  (21) 
0

>  <r_i_glide_metal>  (21) 
-0

>  <r_i_glide_rewards>  (21) 
-1.07196

>  <r_i_glide_evdw>  (21) 
-22.7624

>  <r_i_glide_ecoul>  (21) 
0.206522

>  <r_i_glide_erotb>  (21) 
0.144777

>  <r_i_glide_esite>  (21) 
-0.0158716

>  <r_i_glide_emodel>  (21) 
-25.3635

>  <r_i_glide_energy>  (21) 
-22.5559

>  <r_i_glide_einternal>  (21) 
0.572026

>  <r_i_glide_intrahb_reward>  (21) 
-0

>  <i_i_glide_confnum>  (21) 
3

>  <i_i_glide_posenum>  (21) 
2

>  <r_i_glide_eff_state_penalty>  (21) 
0

>  <ligand_id>  (21) 
1

>  <original_smiles>  (21) 
CC=Cc1ccc2c(c1)CC1(N=C(N)C3CC31)C1(C2)C(=O)NC(=O)NC1=O

>  <smiles>  (21) 
[H]C(=C([H])C([H])([H])[H])c1c([H])c([H])c2c(c1[H])C([H])([H])C1([N+]([H])=C(N([H])[H])C3([H])C([H])([H])C31[H])C1(C(=O)[N-]C(=O)N([H])C1=O)C2([H])[H]

$$$$
1:5:0
     RDKit          3D

 47 51  0  0  1  0  0  0  0  0999 V2000
    6.5634   -2.0901    0.4346 C   0  0  0  0  0  0  0  0  0  0  0  0
    7.2336   -3.4326    0.1666 C   0  0  0  0  0  0  0  0  0  0  0  0
    6.8297   -4.6619    0.5538 C   0  0  0  0  0  0  0  0  0  0  0  0
    5.6854   -5.0197    1.4076 C   0  0  0  0  0  0  0  0  0  0  0  0
    5.2004   -4.1350    2.3978 C   0  0  0  0  0  0  0  0  0  0  0  0
    4.0792   -4.4691    3.1660 C   0  0  0  0  0  0  0  0  0  0  0  0
    3.4516   -5.7111    2.9986 C   0  0  0  0  0  0  0  0  0  0  0  0
    3.9522   -6.6318    2.0407 C   0  0  0  0  0  0  0  0  0  0  0  0
    5.0535   -6.2729    1.2361 C   0  0  0  0  0  0  0  0  0  0  0  0
    3.3051   -7.9902    1.8177 C   0  0  0  0  0  0  0  0  0  0  0  0
    2.3560   -8.3955    2.9705 C   0  0  1  0  0  0  0  0  0  0  0  0
    1.5323   -9.5511    2.5655 N   0  0  0  0  0  0  0  0  0  0  0  0
    1.7013  -10.6054    3.3711 C   0  0  0  0  0  0  0  0  0  0  0  0
    1.0194  -11.7528    3.2874 N   0  0  0  0  0  0  0  0  0  0  0  0
    2.7339  -10.3600    4.3988 C   0  0  1  0  0  0  0  0  0  0  0  0
    4.1710  -10.0752    4.0638 C   0  0  0  0  0  0  0  0  0  0  0  0
    3.1769   -8.9446    4.1495 C   0  0  1  0  0  0  0  0  0  0  0  0
    1.4092   -7.2155    3.4028 C   0  0  1  0  0  0  0  0  0  0  0  0
    2.2603   -6.0130    3.8832 C   0  0  0  0  0  0  0  0  0  0  0  0
    0.4976   -6.7489    2.1881 C   0  0  0  0  0  0  0  0  0  0  0  0
    0.9943   -6.1222    1.2521 O   0  0  0  0  0  0  0  0  0  0  0  0
   -0.8053   -7.0561    2.2195 N   0  0  0  0  0  0  0  0  0  0  0  0
   -1.4230   -7.5984    3.2889 C   0  0  0  0  0  0  0  0  0  0  0  0
   -2.5902   -7.8802    3.2820 O   0  0  0  0  0  0  0  0  0  0  0  0
   -0.7823   -7.8196    4.4369 N   0  0  0  0  0  0  0  0  0  0  0  0
    0.5088   -7.6130    4.6242 C   0  0  0  0  0  0  0  0  0  0  0  0
    0.9782   -7.7493    5.7587 O   0  0  0  0  0  0  0  0  0  0  0  0
    6.5374   -1.5002   -0.4819 H   0  0  0  0  0  0  0  0  0  0  0  0
    7.1252   -1.5369    1.1901 H   0  0  0  0  0  0  0  0  0  0  0  0
    5.5242   -2.1725    0.7572 H   0  0  0  0  0  0  0  0  0  0  0  0
    8.1429   -3.3732   -0.4150 H   0  0  0  0  0  0  0  0  0  0  0  0
    7.4245   -5.5050    0.2301 H   0  0  0  0  0  0  0  0  0  0  0  0
    5.6695   -3.1858    2.6111 H   0  0  0  0  0  0  0  0  0  0  0  0
    3.6974   -3.7671    3.8946 H   0  0  0  0  0  0  0  0  0  0  0  0
    5.4151   -6.9635    0.4817 H   0  0  0  0  0  0  0  0  0  0  0  0
    2.7545   -7.9623    0.8881 H   0  0  0  0  0  0  0  0  0  0  0  0
    4.0786   -8.7425    1.6466 H   0  0  0  0  0  0  0  0  0  0  0  0
    0.3077  -11.8777    2.5864 H   0  0  0  0  0  0  0  0  0  0  0  0
    1.2425  -12.5139    3.9205 H   0  0  0  0  0  0  0  0  0  0  0  0
    2.4001  -10.5743    5.4185 H   0  0  0  0  0  0  0  0  0  0  0  0
    4.8993  -10.1109    4.8732 H   0  0  0  0  0  0  0  0  0  0  0  0
    4.5488  -10.3431    3.0753 H   0  0  0  0  0  0  0  0  0  0  0  0
    3.3176   -8.2901    5.0096 H   0  0  0  0  0  0  0  0  0  0  0  0
    2.6862   -6.1457    4.8834 H   0  0  0  0  0  0  0  0  0  0  0  0
    1.6456   -5.1138    3.9661 H   0  0  0  0  0  0  0  0  0  0  0  0
   -1.3387   -8.1721    5.2068 H   0  0  0  0  0  0  0  0  0  0  0  0
    0.8434   -9.4906    1.8257 H   0  0  0  0  0  0  0  0  0  0  0  0
  1  2  1  0
  1 28  1  0
  1 29  1  0
  1 30  1  0
  2  3  2  3
  2 31  1  0
  3  4  1  0
  3 32  1  0
  4  9  2  0
  4  5  1  0
  5  6  2  0
  5 33  1  0
  6  7  1  0
  6 34  1  0
  7 19  1  0
  7  8  2  0
  8  9  1  0
  8 10  1  0
  9 35  1  0
 11 10  1  6
 10 36  1  0
 10 37  1  0
 11 17  1  0
 11 12  1  0
 11 18  1  0
 12 13  2  0
 12 47  1  0
 13 14  1  0
 13 15  1  0
 14 38  1  0
 14 39  1  0
 15 17  1  0
 15 16  1  0
 15 40  1  1
 16 17  1  0
 16 41  1  0
 16 42  1  0
 17 43  1  1
 18 26  1  0
 18 19  1  1
 18 20  1  0
 19 44  1  0
 19 45  1  0
 20 21  2  0
 20 22  1  0
 22 23  1  0
 23 24  2  0
 23 25  1  0
 25 26  1  0
 25 46  1  0
 26 27  2  0
M  CHG  2  12   1  22  -1
M  END
>  <i_m_ct_stereo_status>  (22) 
1

>  <s_m_source_file>  (22) 
/var/tmp/pbs.5076255.sched01/tmp6mrmgolx/06cp14zw5.sdf

>  <i_m_source_file_index>  (22) 
8

>  <i_lp_mmshare_version>  (22) 
48012

>  <i_f3d_flags>  (22) 
0

>  <s_epik_input>  (22) 
W0NIM10vW0NIXT1bQ0hdL2MoW2NIXVtjSF0xKVtjSF1jKFtDSDJdMiljMVtDSDJdQzMoW0NAXTI0W0NASF01W0NIXShbQ0gyXTUpQyg9TjQpW05IMl0pQyg9TylbTkhdQyg9TylbTkhdQzM9Tw==

>  <s_epik_cmdline>  (22) 
J2VwaWtfcHl0aG9uJywgJy1waHQnLCAnMi4wJywgJy1waCcsICc3LjAnLCAnLXRuJywgJzgnLCAnLW1hJywgJzIwMCcsICctaW1hZScsICc8aW5maWxlLm1hZT4nLCAnLW9tYWUnLCAnPG91dGZpbGUubWFlPic=

>  <r_epik_Ionization_Penalty>  (22) 
0.507264

>  <r_epik_Ionization_Penalty_Charging>  (22) 
0.507254

>  <r_epik_Ionization_Penalty_Neutral>  (22) 
9.29906e-06

>  <r_epik_State_Penalty>  (22) 
0.746726

>  <r_epik_Charging_Adjusted_Penalty>  (22) 
1.25398

>  <i_epik_Tot_Q>  (22) 
0

>  <i_epik_Tot_abs_Q>  (22) 
2

>  <s_epik_Chemistry_Notes>  (22) 
This compound has an imine and may undergo hydrolysis.

>  <s_lp_Force_Field>  (22) 
OPLS3e

>  <r_lp_Energy>  (22) 
41.6181

>  <b_lp_Chiralities_Consistent>  (22) 
1

>  <s_lp_Variant>  (22) 
1:0-6

>  <s_i_glide_gridfile>  (22) 
pfpi4k_grid

>  <i_i_glide_lignum>  (22) 
8

>  <i_i_glide_rotatable_bonds>  (22) 
1

>  <r_i_docking_score>  (22) 
-4.51386

>  <r_i_glide_ligand_efficiency>  (22) 
-0.16718

>  <r_i_glide_ligand_efficiency_sa>  (22) 
-0.50154

>  <r_i_glide_ligand_efficiency_ln>  (22) 
-1.05075

>  <r_i_glide_gscore>  (22) 
-4.51386

>  <r_i_glide_lipo>  (22) 
-0.545305

>  <r_i_glide_hbond>  (22) 
-0.36

>  <r_i_glide_metal>  (22) 
-0

>  <r_i_glide_rewards>  (22) 
-1.37381

>  <r_i_glide_evdw>  (22) 
-23.1131

>  <r_i_glide_ecoul>  (22) 
-6.60858

>  <r_i_glide_erotb>  (22) 
0.144777

>  <r_i_glide_esite>  (22) 
-0.232573

>  <r_i_glide_emodel>  (22) 
-43.4296

>  <r_i_glide_energy>  (22) 
-29.7217

>  <r_i_glide_einternal>  (22) 
0.00510922

>  <r_i_glide_intrahb_reward>  (22) 
-0

>  <i_i_glide_confnum>  (22) 
4

>  <i_i_glide_posenum>  (22) 
8

>  <r_i_glide_eff_state_penalty>  (22) 
0

>  <ligand_id>  (22) 
1

>  <original_smiles>  (22) 
CC=Cc1ccc2c(c1)CC1(N=C(N)C3CC31)C1(C2)C(=O)NC(=O)NC1=O

>  <smiles>  (22) 
[H]C(=C([H])C([H])([H])[H])c1c([H])c([H])c2c(c1[H])C([H])([H])C1([N+]([H])=C(N([H])[H])C3([H])C([H])([H])C31[H])C1(C(=O)[N-]C(=O)N([H])C1=O)C2([H])[H]

$$$$
1:5:1
     RDKit          3D

 47 51  0  0  1  0  0  0  0  0999 V2000
    7.0596   -3.8665    0.7964 C   0  0  0  0  0  0  0  0  0  0  0  0
    6.2970   -2.5549    0.6708 C   0  0  0  0  0  0  0  0  0  0  0  0
    5.0538   -2.2624    1.1081 C   0  0  0  0  0  0  0  0  0  0  0  0
    4.0808   -3.1580    1.7513 C   0  0  0  0  0  0  0  0  0  0  0  0
    3.1472   -2.6220    2.6678 C   0  0  0  0  0  0  0  0  0  0  0  0
    2.2250   -3.4682    3.3127 C   0  0  0  0  0  0  0  0  0  0  0  0
    2.2355   -4.8537    3.0654 C   0  0  0  0  0  0  0  0  0  0  0  0
    3.1776   -5.3938    2.1541 C   0  0  0  0  0  0  0  0  0  0  0  0
    4.0673   -4.5436    1.4867 C   0  0  0  0  0  0  0  0  0  0  0  0
    3.2434   -6.8747    1.8282 C   0  0  0  0  0  0  0  0  0  0  0  0
    2.4574   -7.7494    2.8362 C   0  0  1  0  0  0  0  0  0  0  0  0
    2.2863   -9.1174    2.2982 N   0  0  0  0  0  0  0  0  0  0  0  0
    2.8135  -10.0514    3.1080 C   0  0  0  0  0  0  0  0  0  0  0  0
    2.7244  -11.3645    2.9195 N   0  0  0  0  0  0  0  0  0  0  0  0
    3.5071   -9.4409    4.2647 C   0  0  1  0  0  0  0  0  0  0  0  0
    4.6971   -8.5302    4.1351 C   0  0  0  0  0  0  0  0  0  0  0  0
    3.3022   -7.9602    4.1030 C   0  0  1  0  0  0  0  0  0  0  0  0
    1.0413   -7.1390    3.1653 C   0  0  1  0  0  0  0  0  0  0  0  0
    1.2090   -5.7165    3.7731 C   0  0  0  0  0  0  0  0  0  0  0  0
    0.1771   -7.0461    1.8397 C   0  0  0  0  0  0  0  0  0  0  0  0
    0.4931   -6.2433    0.9670 O   0  0  0  0  0  0  0  0  0  0  0  0
   -0.8817   -7.8552    1.7008 N   0  0  0  0  0  0  0  0  0  0  0  0
   -1.3297   -8.7017    2.6472 C   0  0  0  0  0  0  0  0  0  0  0  0
   -2.2437   -9.4610    2.4436 O   0  0  0  0  0  0  0  0  0  0  0  0
   -0.7732   -8.7130    3.8659 N   0  0  0  0  0  0  0  0  0  0  0  0
    0.2795   -7.9862    4.2449 C   0  0  0  0  0  0  0  0  0  0  0  0
    0.6355   -7.9805    5.4300 O   0  0  0  0  0  0  0  0  0  0  0  0
    8.0835   -3.6688    1.1163 H   0  0  0  0  0  0  0  0  0  0  0  0
    7.0938   -4.3682   -0.1716 H   0  0  0  0  0  0  0  0  0  0  0  0
    6.6385   -4.5517    1.5333 H   0  0  0  0  0  0  0  0  0  0  0  0
    6.8387   -1.7680    0.1691 H   0  0  0  0  0  0  0  0  0  0  0  0
    4.6978   -1.2517    0.9536 H   0  0  0  0  0  0  0  0  0  0  0  0
    3.1207   -1.5587    2.8753 H   0  0  0  0  0  0  0  0  0  0  0  0
    1.4958   -3.0522    3.9970 H   0  0  0  0  0  0  0  0  0  0  0  0
    4.7244   -4.9811    0.7479 H   0  0  0  0  0  0  0  0  0  0  0  0
    2.8662   -7.0185    0.8153 H   0  0  0  0  0  0  0  0  0  0  0  0
    4.2845   -7.1904    1.7581 H   0  0  0  0  0  0  0  0  0  0  0  0
    2.2762  -11.7528    2.1015 H   0  0  0  0  0  0  0  0  0  0  0  0
    3.1647  -12.0010    3.5742 H   0  0  0  0  0  0  0  0  0  0  0  0
    3.1902   -9.8582    5.2217 H   0  0  0  0  0  0  0  0  0  0  0  0
    5.2687   -8.3067    5.0345 H   0  0  0  0  0  0  0  0  0  0  0  0
    5.2666   -8.5307    3.2029 H   0  0  0  0  0  0  0  0  0  0  0  0
    3.0310   -7.3783    4.9807 H   0  0  0  0  0  0  0  0  0  0  0  0
    1.5341   -5.7343    4.8155 H   0  0  0  0  0  0  0  0  0  0  0  0
    0.2538   -5.1922    3.7833 H   0  0  0  0  0  0  0  0  0  0  0  0
   -1.1952   -9.3402    4.5418 H   0  0  0  0  0  0  0  0  0  0  0  0
    1.7149   -9.3094    1.4861 H   0  0  0  0  0  0  0  0  0  0  0  0
  1  2  1  0
  1 28  1  0
  1 29  1  0
  1 30  1  0
  2  3  2  3
  2 31  1  0
  3  4  1  0
  3 32  1  0
  4  9  2  0
  4  5  1  0
  5  6  2  0
  5 33  1  0
  6  7  1  0
  6 34  1  0
  7 19  1  0
  7  8  2  0
  8  9  1  0
  8 10  1  0
  9 35  1  0
 11 10  1  6
 10 36  1  0
 10 37  1  0
 11 17  1  0
 11 12  1  0
 11 18  1  0
 12 13  2  0
 12 47  1  0
 13 14  1  0
 13 15  1  0
 14 38  1  0
 14 39  1  0
 15 17  1  0
 15 16  1  0
 15 40  1  1
 16 17  1  0
 16 41  1  0
 16 42  1  0
 17 43  1  1
 18 26  1  0
 18 19  1  1
 18 20  1  0
 19 44  1  0
 19 45  1  0
 20 21  2  0
 20 22  1  0
 22 23  1  0
 23 24  2  0
 23 25  1  0
 25 26  1  0
 25 46  1  0
 26 27  2  0
M  CHG  2  12   1  22  -1
M  END
>  <i_m_ct_stereo_status>  (23) 
1

>  <s_m_source_file>  (23) 
/var/tmp/pbs.5076255.sched01/tmp6mrmgolx/06cp14zw5.sdf

>  <i_m_source_file_index>  (23) 
8

>  <i_lp_mmshare_version>  (23) 
48012

>  <i_f3d_flags>  (23) 
0

>  <s_epik_input>  (23) 
W0NIM10vW0NIXT1bQ0hdL2MoW2NIXVtjSF0xKVtjSF1jKFtDSDJdMiljMVtDSDJdQzMoW0NAXTI0W0NASF01W0NIXShbQ0gyXTUpQyg9TjQpW05IMl0pQyg9TylbTkhdQyg9TylbTkhdQzM9Tw==

>  <s_epik_cmdline>  (23) 
J2VwaWtfcHl0aG9uJywgJy1waHQnLCAnMi4wJywgJy1waCcsICc3LjAnLCAnLXRuJywgJzgnLCAnLW1hJywgJzIwMCcsICctaW1hZScsICc8aW5maWxlLm1hZT4nLCAnLW9tYWUnLCAnPG91dGZpbGUubWFlPic=

>  <r_epik_Ionization_Penalty>  (23) 
0.507264

>  <r_epik_Ionization_Penalty_Charging>  (23) 
0.507254

>  <r_epik_Ionization_Penalty_Neutral>  (23) 
9.29906e-06

>  <r_epik_State_Penalty>  (23) 
0.746726

>  <r_epik_Charging_Adjusted_Penalty>  (23) 
1.25398

>  <i_epik_Tot_Q>  (23) 
0

>  <i_epik_Tot_abs_Q>  (23) 
2

>  <s_epik_Chemistry_Notes>  (23) 
This compound has an imine and may undergo hydrolysis.

>  <s_lp_Force_Field>  (23) 
OPLS3e

>  <r_lp_Energy>  (23) 
41.6181

>  <b_lp_Chiralities_Consistent>  (23) 
1

>  <s_lp_Variant>  (23) 
1:0-6

>  <s_i_glide_gridfile>  (23) 
pfpi4k_grid

>  <i_i_glide_lignum>  (23) 
8

>  <i_i_glide_rotatable_bonds>  (23) 
1

>  <r_i_docking_score>  (23) 
-4.44953

>  <r_i_glide_ligand_efficiency>  (23) 
-0.164797

>  <r_i_glide_ligand_efficiency_sa>  (23) 
-0.494392

>  <r_i_glide_ligand_efficiency_ln>  (23) 
-1.03578

>  <r_i_glide_gscore>  (23) 
-4.44953

>  <r_i_glide_lipo>  (23) 
-0.289781

>  <r_i_glide_hbond>  (23) 
-0.307087

>  <r_i_glide_metal>  (23) 
-0

>  <r_i_glide_rewards>  (23) 
-1.23938

>  <r_i_glide_evdw>  (23) 
-23.544

>  <r_i_glide_ecoul>  (23) 
-8.88288

>  <r_i_glide_erotb>  (23) 
0.144777

>  <r_i_glide_esite>  (23) 
-0.248423

>  <r_i_glide_emodel>  (23) 
-45.9373

>  <r_i_glide_energy>  (23) 
-32.4269

>  <r_i_glide_einternal>  (23) 
0.0358697

>  <r_i_glide_intrahb_reward>  (23) 
-0

>  <i_i_glide_confnum>  (23) 
3

>  <i_i_glide_posenum>  (23) 
28

>  <r_i_glide_eff_state_penalty>  (23) 
0

>  <ligand_id>  (23) 
1

>  <original_smiles>  (23) 
CC=Cc1ccc2c(c1)CC1(N=C(N)C3CC31)C1(C2)C(=O)NC(=O)NC1=O

>  <smiles>  (23) 
[H]C(=C([H])C([H])([H])[H])c1c([H])c([H])c2c(c1[H])C([H])([H])C1([N+]([H])=C(N([H])[H])C3([H])C([H])([H])C31[H])C1(C(=O)[N-]C(=O)N([H])C1=O)C2([H])[H]

$$$$
1:5:2
     RDKit          3D

 47 51  0  0  1  0  0  0  0  0999 V2000
    4.2132   -3.2719   -3.6831 C   0  0  0  0  0  0  0  0  0  0  0  0
    4.6144   -1.9731   -2.9854 C   0  0  0  0  0  0  0  0  0  0  0  0
    4.5275   -1.6243   -1.6812 C   0  0  0  0  0  0  0  0  0  0  0  0
    4.0751   -2.4128   -0.5265 C   0  0  0  0  0  0  0  0  0  0  0  0
    3.4096   -1.7617    0.5371 C   0  0  0  0  0  0  0  0  0  0  0  0
    2.8923   -2.5012    1.6170 C   0  0  0  0  0  0  0  0  0  0  0  0
    3.0131   -3.9007    1.6417 C   0  0  0  0  0  0  0  0  0  0  0  0
    3.7001   -4.5574    0.5939 C   0  0  0  0  0  0  0  0  0  0  0  0
    4.2573   -3.8109   -0.4510 C   0  0  0  0  0  0  0  0  0  0  0  0
    3.8535   -6.0619    0.5202 C   0  0  0  0  0  0  0  0  0  0  0  0
    3.5887   -6.7624    1.8749 C   0  0  1  0  0  0  0  0  0  0  0  0
    3.4733   -8.2258    1.6784 N   0  0  0  0  0  0  0  0  0  0  0  0
    4.3668   -8.9200    2.3971 C   0  0  0  0  0  0  0  0  0  0  0  0
    4.4048  -10.2548    2.4923 N   0  0  0  0  0  0  0  0  0  0  0  0
    5.3218   -8.0213    3.0839 C   0  0  1  0  0  0  0  0  0  0  0  0
    6.2364   -7.0699    2.3491 C   0  0  0  0  0  0  0  0  0  0  0  0
    4.8505   -6.6340    2.7464 C   0  0  1  0  0  0  0  0  0  0  0  0
    2.2690   -6.2038    2.5645 C   0  0  1  0  0  0  0  0  0  0  0  0
    2.4210   -4.6603    2.8088 C   0  0  0  0  0  0  0  0  0  0  0  0
    1.0037   -6.5199    1.6695 C   0  0  0  0  0  0  0  0  0  0  0  0
    0.8807   -5.9532    0.5868 O   0  0  0  0  0  0  0  0  0  0  0  0
    0.0854   -7.4162    2.1104 N   0  0  0  0  0  0  0  0  0  0  0  0
    0.1253   -8.0628    3.2926 C   0  0  0  0  0  0  0  0  0  0  0  0
   -0.6760   -8.9274    3.6207 O   0  0  0  0  0  0  0  0  0  0  0  0
    1.0756   -7.7412    4.1896 N   0  0  0  0  0  0  0  0  0  0  0  0
    2.0678   -6.8569    3.9849 C   0  0  0  0  0  0  0  0  0  0  0  0
    2.8210   -6.5629    4.9071 O   0  0  0  0  0  0  0  0  0  0  0  0
    5.0353   -3.6181   -4.3145 H   0  0  0  0  0  0  0  0  0  0  0  0
    3.3392   -3.1013   -4.3086 H   0  0  0  0  0  0  0  0  0  0  0  0
    3.9406   -4.1219   -3.0458 H   0  0  0  0  0  0  0  0  0  0  0  0
    5.0060   -1.2281   -3.6448 H   0  0  0  0  0  0  0  0  0  0  0  0
    4.8260   -0.6188   -1.4204 H   0  0  0  0  0  0  0  0  0  0  0  0
    3.2543   -0.6935    0.5210 H   0  0  0  0  0  0  0  0  0  0  0  0
    2.3740   -1.9964    2.4273 H   0  0  0  0  0  0  0  0  0  0  0  0
    4.8309   -4.3724   -1.1811 H   0  0  0  0  0  0  0  0  0  0  0  0
    3.1852   -6.4231   -0.2611 H   0  0  0  0  0  0  0  0  0  0  0  0
    4.8269   -6.3145    0.1015 H   0  0  0  0  0  0  0  0  0  0  0  0
    3.8079  -10.8564    1.9279 H   0  0  0  0  0  0  0  0  0  0  0  0
    5.1359  -10.6853    3.0372 H   0  0  0  0  0  0  0  0  0  0  0  0
    5.4192   -8.2158    4.1484 H   0  0  0  0  0  0  0  0  0  0  0  0
    7.0374   -6.5981    2.9104 H   0  0  0  0  0  0  0  0  0  0  0  0
    6.4365   -7.2319    1.2903 H   0  0  0  0  0  0  0  0  0  0  0  0
    4.8454   -5.8891    3.5251 H   0  0  0  0  0  0  0  0  0  0  0  0
    3.0908   -4.3972    3.6401 H   0  0  0  0  0  0  0  0  0  0  0  0
    1.4645   -4.2168    3.0843 H   0  0  0  0  0  0  0  0  0  0  0  0
    1.0443   -8.1943    5.0916 H   0  0  0  0  0  0  0  0  0  0  0  0
    2.6794   -8.6246    1.1983 H   0  0  0  0  0  0  0  0  0  0  0  0
  1  2  1  0
  1 28  1  0
  1 29  1  0
  1 30  1  0
  2  3  2  3
  2 31  1  0
  3  4  1  0
  3 32  1  0
  4  9  2  0
  4  5  1  0
  5  6  2  0
  5 33  1  0
  6  7  1  0
  6 34  1  0
  7 19  1  0
  7  8  2  0
  8  9  1  0
  8 10  1  0
  9 35  1  0
 11 10  1  6
 10 36  1  0
 10 37  1  0
 11 17  1  0
 11 12  1  0
 11 18  1  0
 12 13  2  0
 12 47  1  0
 13 14  1  0
 13 15  1  0
 14 38  1  0
 14 39  1  0
 15 17  1  0
 15 16  1  0
 15 40  1  1
 16 17  1  0
 16 41  1  0
 16 42  1  0
 17 43  1  1
 18 26  1  0
 18 19  1  1
 18 20  1  0
 19 44  1  0
 19 45  1  0
 20 21  2  0
 20 22  1  0
 22 23  1  0
 23 24  2  0
 23 25  1  0
 25 26  1  0
 25 46  1  0
 26 27  2  0
M  CHG  2  12   1  22  -1
M  END
>  <i_m_ct_stereo_status>  (24) 
1

>  <s_m_source_file>  (24) 
/var/tmp/pbs.5076255.sched01/tmp6mrmgolx/06cp14zw5.sdf

>  <i_m_source_file_index>  (24) 
8

>  <i_lp_mmshare_version>  (24) 
48012

>  <i_f3d_flags>  (24) 
0

>  <s_epik_input>  (24) 
W0NIM10vW0NIXT1bQ0hdL2MoW2NIXVtjSF0xKVtjSF1jKFtDSDJdMiljMVtDSDJdQzMoW0NAXTI0W0NASF01W0NIXShbQ0gyXTUpQyg9TjQpW05IMl0pQyg9TylbTkhdQyg9TylbTkhdQzM9Tw==

>  <s_epik_cmdline>  (24) 
J2VwaWtfcHl0aG9uJywgJy1waHQnLCAnMi4wJywgJy1waCcsICc3LjAnLCAnLXRuJywgJzgnLCAnLW1hJywgJzIwMCcsICctaW1hZScsICc8aW5maWxlLm1hZT4nLCAnLW9tYWUnLCAnPG91dGZpbGUubWFlPic=

>  <r_epik_Ionization_Penalty>  (24) 
0.507264

>  <r_epik_Ionization_Penalty_Charging>  (24) 
0.507254

>  <r_epik_Ionization_Penalty_Neutral>  (24) 
9.29906e-06

>  <r_epik_State_Penalty>  (24) 
0.746726

>  <r_epik_Charging_Adjusted_Penalty>  (24) 
1.25398

>  <i_epik_Tot_Q>  (24) 
0

>  <i_epik_Tot_abs_Q>  (24) 
2

>  <s_epik_Chemistry_Notes>  (24) 
This compound has an imine and may undergo hydrolysis.

>  <s_lp_Force_Field>  (24) 
OPLS3e

>  <r_lp_Energy>  (24) 
41.6181

>  <b_lp_Chiralities_Consistent>  (24) 
1

>  <s_lp_Variant>  (24) 
1:0-6

>  <s_i_glide_gridfile>  (24) 
pfpi4k_grid

>  <i_i_glide_lignum>  (24) 
8

>  <i_i_glide_rotatable_bonds>  (24) 
1

>  <r_i_docking_score>  (24) 
-4.28699

>  <r_i_glide_ligand_efficiency>  (24) 
-0.158777

>  <r_i_glide_ligand_efficiency_sa>  (24) 
-0.476332

>  <r_i_glide_ligand_efficiency_ln>  (24) 
-0.997941

>  <r_i_glide_gscore>  (24) 
-4.28699

>  <r_i_glide_lipo>  (24) 
-0.37749

>  <r_i_glide_hbond>  (24) 
-0.290166

>  <r_i_glide_metal>  (24) 
-0

>  <r_i_glide_rewards>  (24) 
-1.22456

>  <r_i_glide_evdw>  (24) 
-23.5534

>  <r_i_glide_ecoul>  (24) 
-7.56058

>  <r_i_glide_erotb>  (24) 
0.144777

>  <r_i_glide_esite>  (24) 
-0.227797

>  <r_i_glide_emodel>  (24) 
-43.5919

>  <r_i_glide_energy>  (24) 
-31.1139

>  <r_i_glide_einternal>  (24) 
0.458235

>  <r_i_glide_intrahb_reward>  (24) 
-0

>  <i_i_glide_confnum>  (24) 
4

>  <i_i_glide_posenum>  (24) 
36

>  <r_i_glide_eff_state_penalty>  (24) 
0

>  <ligand_id>  (24) 
1

>  <original_smiles>  (24) 
CC=Cc1ccc2c(c1)CC1(N=C(N)C3CC31)C1(C2)C(=O)NC(=O)NC1=O

>  <smiles>  (24) 
[H]C(=C([H])C([H])([H])[H])c1c([H])c([H])c2c(c1[H])C([H])([H])C1([N+]([H])=C(N([H])[H])C3([H])C([H])([H])C31[H])C1(C(=O)[N-]C(=O)N([H])C1=O)C2([H])[H]

$$$$
1:6:0
     RDKit          3D

 47 51  0  0  1  0  0  0  0  0999 V2000
    1.5271    1.4582    2.2938 C   0  0  0  0  0  0  0  0  0  0  0  0
    1.4853    0.0987    2.9477 C   0  0  0  0  0  0  0  0  0  0  0  0
    1.8448   -1.0451    2.3401 C   0  0  0  0  0  0  0  0  0  0  0  0
    1.8075   -2.3817    2.9542 C   0  0  0  0  0  0  0  0  0  0  0  0
    1.2466   -2.5999    4.2334 C   0  0  0  0  0  0  0  0  0  0  0  0
    1.2247   -3.8834    4.7978 C   0  0  0  0  0  0  0  0  0  0  0  0
    1.7642   -4.9740    4.0990 C   0  0  0  0  0  0  0  0  0  0  0  0
    2.3358   -4.7675    2.8158 C   0  0  0  0  0  0  0  0  0  0  0  0
    2.3548   -3.4771    2.2541 C   0  0  0  0  0  0  0  0  0  0  0  0
    2.9009   -5.9165    1.9954 C   0  0  0  0  0  0  0  0  0  0  0  0
    3.1591   -7.1871    2.8414 C   0  0  1  0  0  0  0  0  0  0  0  0
    3.4644   -8.2936    1.9183 N   0  0  0  0  0  0  0  0  0  0  0  0
    4.6312   -8.7754    2.1569 C   0  0  0  0  0  0  0  0  0  0  0  0
    5.2577   -9.8492    1.5631 N   0  0  0  0  0  0  0  0  0  0  0  0
    5.3772   -8.0665    3.2536 C   0  0  1  0  0  0  0  0  0  0  0  0
    5.7803   -6.6106    3.1747 C   0  0  0  0  0  0  0  0  0  0  0  0
    4.4249   -7.0140    3.7000 C   0  0  1  0  0  0  0  0  0  0  0  0
    1.9055   -7.5142    3.7467 C   0  0  0  0  0  0  0  0  0  0  0  0
    1.6793   -6.3572    4.7444 C   0  0  0  0  0  0  0  0  0  0  0  0
    0.5943   -7.6756    2.9079 C   0  0  0  0  0  0  0  0  0  0  0  0
   -0.0623   -6.7063    2.5440 O   0  0  0  0  0  0  0  0  0  0  0  0
    0.1851   -8.8746    2.5044 N   0  0  0  0  0  0  0  0  0  0  0  0
    0.6564  -10.0196    2.9913 C   0  0  0  0  0  0  0  0  0  0  0  0
    0.2479  -11.0629    2.5368 O   0  0  0  0  0  0  0  0  0  0  0  0
    1.5427   -9.9747    3.9949 N   0  0  0  0  0  0  0  0  0  0  0  0
    2.1072   -8.8671    4.4913 C   0  0  0  0  0  0  0  0  0  0  0  0
    2.8120   -8.9192    5.4894 O   0  0  0  0  0  0  0  0  0  0  0  0
    0.5288    1.8984    2.2810 H   0  0  0  0  0  0  0  0  0  0  0  0
    1.8861    1.3818    1.2700 H   0  0  0  0  0  0  0  0  0  0  0  0
    2.1948    2.1184    2.8480 H   0  0  0  0  0  0  0  0  0  0  0  0
    1.1404    0.1023    3.9681 H   0  0  0  0  0  0  0  0  0  0  0  0
    2.1841   -1.0010    1.3146 H   0  0  0  0  0  0  0  0  0  0  0  0
    0.8138   -1.7921    4.8045 H   0  0  0  0  0  0  0  0  0  0  0  0
    0.7804   -4.0356    5.7696 H   0  0  0  0  0  0  0  0  0  0  0  0
    2.7756   -3.3324    1.2651 H   0  0  0  0  0  0  0  0  0  0  0  0
    2.1960   -6.1424    1.1926 H   0  0  0  0  0  0  0  0  0  0  0  0
    3.8022   -5.5989    1.4752 H   0  0  0  0  0  0  0  0  0  0  0  0
    4.7820  -10.4786    0.9075 H   0  0  0  0  0  0  0  0  0  0  0  0
    6.1626  -10.1880    1.8451 H   0  0  0  0  0  0  0  0  0  0  0  0
    5.7488   -8.7277    4.0356 H   0  0  0  0  0  0  0  0  0  0  0  0
    6.4658   -6.2163    3.9201 H   0  0  0  0  0  0  0  0  0  0  0  0
    5.8294   -6.1358    2.1943 H   0  0  0  0  0  0  0  0  0  0  0  0
    4.2896   -6.8903    4.7767 H   0  0  0  0  0  0  0  0  0  0  0  0
    2.4084   -6.3712    5.5522 H   0  0  0  0  0  0  0  0  0  0  0  0
    0.7116   -6.4651    5.2433 H   0  0  0  0  0  0  0  0  0  0  0  0
   -0.5280   -8.9461    1.7929 H   0  0  0  0  0  0  0  0  0  0  0  0
    1.8260  -10.8466    4.4048 H   0  0  0  0  0  0  0  0  0  0  0  0
  1  2  1  0
  1 28  1  0
  1 29  1  0
  1 30  1  0
  2  3  2  3
  2 31  1  0
  3  4  1  0
  3 32  1  0
  4  9  2  0
  4  5  1  0
  5  6  2  0
  5 33  1  0
  6  7  1  0
  6 34  1  0
  7 19  1  0
  7  8  2  0
  8  9  1  0
  8 10  1  0
  9 35  1  0
 11 10  1  6
 10 36  1  0
 10 37  1  0
 11 17  1  0
 11 12  1  0
 11 18  1  0
 12 13  2  0
 13 14  1  0
 13 15  1  0
 14 38  1  0
 14 39  1  0
 15 17  1  0
 15 16  1  0
 15 40  1  1
 16 17  1  0
 16 41  1  0
 16 42  1  0
 17 43  1  1
 18 26  1  0
 18 19  1  0
 18 20  1  0
 19 44  1  0
 19 45  1  0
 20 21  2  0
 20 22  1  0
 22 23  1  0
 22 46  1  0
 23 24  2  0
 23 25  1  0
 25 26  1  0
 25 47  1  0
 26 27  2  0
M  END
>  <i_m_ct_stereo_status>  (25) 
1

>  <s_m_source_file>  (25) 
/var/tmp/pbs.5076255.sched01/tmp6mrmgolx/06cp14zw5.sdf

>  <i_m_source_file_index>  (25) 
9

>  <i_lp_mmshare_version>  (25) 
48012

>  <i_f3d_flags>  (25) 
0

>  <s_epik_input>  (25) 
W0NIM10vW0NIXT1bQ0hdL2MoW2NIXVtjSF0xKVtjSF1jKFtDSDJdMiljMVtDSDJdQzMoW0NAXTI0W0NASF01W0NIXShbQ0gyXTUpQyg9TjQpW05IMl0pQyg9TylbTkhdQyg9TylbTkhdQzM9Tw==

>  <s_epik_cmdline>  (25) 
J2VwaWtfcHl0aG9uJywgJy1waHQnLCAnMi4wJywgJy1waCcsICc3LjAnLCAnLXRuJywgJzgnLCAnLW1hJywgJzIwMCcsICctaW1hZScsICc8aW5maWxlLm1hZT4nLCAnLW9tYWUnLCAnPG91dGZpbGUubWFlPic=

>  <r_epik_Ionization_Penalty>  (25) 
1.26885

>  <r_epik_Ionization_Penalty_Charging>  (25) 
0

>  <r_epik_Ionization_Penalty_Neutral>  (25) 
1.26885

>  <r_epik_State_Penalty>  (25) 
1.6814

>  <r_epik_Charging_Adjusted_Penalty>  (25) 
1.6814

>  <i_epik_Tot_Q>  (25) 
0

>  <i_epik_Tot_abs_Q>  (25) 
0

>  <s_epik_Chemistry_Notes>  (25) 
This compound has an imine and may undergo hydrolysis.

>  <s_lp_Force_Field>  (25) 
OPLS3e

>  <r_lp_Energy>  (25) 
23.6142

>  <b_lp_Chiralities_Consistent>  (25) 
1

>  <s_lp_Variant>  (25) 
1:0-7

>  <s_i_glide_gridfile>  (25) 
pfpi4k_grid

>  <i_i_glide_lignum>  (25) 
9

>  <i_i_glide_rotatable_bonds>  (25) 
1

>  <r_i_docking_score>  (25) 
-3.33107

>  <r_i_glide_ligand_efficiency>  (25) 
-0.123373

>  <r_i_glide_ligand_efficiency_sa>  (25) 
-0.370119

>  <r_i_glide_ligand_efficiency_ln>  (25) 
-0.775418

>  <r_i_glide_gscore>  (25) 
-3.33107

>  <r_i_glide_lipo>  (25) 
-0.0248556

>  <r_i_glide_hbond>  (25) 
-0.341346

>  <r_i_glide_metal>  (25) 
-0

>  <r_i_glide_rewards>  (25) 
-0.994017

>  <r_i_glide_evdw>  (25) 
-24.4739

>  <r_i_glide_ecoul>  (25) 
-4.68117

>  <r_i_glide_erotb>  (25) 
0.144777

>  <r_i_glide_esite>  (25) 
-0.189759

>  <r_i_glide_emodel>  (25) 
-35.4849

>  <r_i_glide_energy>  (25) 
-29.1551

>  <r_i_glide_einternal>  (25) 
0.0298017

>  <r_i_glide_intrahb_reward>  (25) 
-0

>  <i_i_glide_confnum>  (25) 
4

>  <i_i_glide_posenum>  (25) 
35

>  <r_i_glide_eff_state_penalty>  (25) 
0

>  <ligand_id>  (25) 
1

>  <original_smiles>  (25) 
CC=Cc1ccc2c(c1)CC1(N=C(N)C3CC31)C1(C2)C(=O)NC(=O)NC1=O

>  <smiles>  (25) 
[H]C(=C([H])C([H])([H])[H])c1c([H])c([H])c2c(c1[H])C([H])([H])C1(N=C(N([H])[H])C3([H])C([H])([H])C31[H])C1(C(=O)N([H])C(=O)N([H])C1=O)C2([H])[H]

$$$$
1:6:1
     RDKit          3D

 47 51  0  0  1  0  0  0  0  0999 V2000
    0.7887    0.2014    2.1609 C   0  0  0  0  0  0  0  0  0  0  0  0
    1.0741   -1.2248    2.5666 C   0  0  0  0  0  0  0  0  0  0  0  0
    0.7660   -1.7414    3.7695 C   0  0  0  0  0  0  0  0  0  0  0  0
    1.0309   -3.1197    4.2069 C   0  0  0  0  0  0  0  0  0  0  0  0
    0.7496   -3.4926    5.5394 C   0  0  0  0  0  0  0  0  0  0  0  0
    1.0104   -4.7999    5.9885 C   0  0  0  0  0  0  0  0  0  0  0  0
    1.5593   -5.7539    5.1145 C   0  0  0  0  0  0  0  0  0  0  0  0
    1.8490   -5.3827    3.7765 C   0  0  0  0  0  0  0  0  0  0  0  0
    1.5858   -4.0784    3.3331 C   0  0  0  0  0  0  0  0  0  0  0  0
    2.4077   -6.3705    2.7669 C   0  0  0  0  0  0  0  0  0  0  0  0
    2.9939   -7.6385    3.4294 C   0  0  1  0  0  0  0  0  0  0  0  0
    3.2703   -8.6168    2.3641 N   0  0  0  0  0  0  0  0  0  0  0  0
    4.5167   -8.9282    2.3497 C   0  0  0  0  0  0  0  0  0  0  0  0
    5.1613   -9.8525    1.5558 N   0  0  0  0  0  0  0  0  0  0  0  0
    5.3500   -8.1906    3.3587 C   0  0  1  0  0  0  0  0  0  0  0  0
    5.5259   -6.6875    3.3498 C   0  0  0  0  0  0  0  0  0  0  0  0
    4.3623   -7.3298    4.0639 C   0  0  1  0  0  0  0  0  0  0  0  0
    1.9859   -8.2204    4.5020 C   0  0  0  0  0  0  0  0  0  0  0  0
    1.7888   -7.1750    5.6327 C   0  0  0  0  0  0  0  0  0  0  0  0
    0.5789   -8.5284    3.8867 C   0  0  0  0  0  0  0  0  0  0  0  0
   -0.2545   -7.6409    3.7415 O   0  0  0  0  0  0  0  0  0  0  0  0
    0.2765   -9.7496    3.4496 N   0  0  0  0  0  0  0  0  0  0  0  0
    0.9835  -10.8411    3.7353 C   0  0  0  0  0  0  0  0  0  0  0  0
    0.6513  -11.9216    3.2734 O   0  0  0  0  0  0  0  0  0  0  0  0
    2.0249  -10.7243    4.5715 N   0  0  0  0  0  0  0  0  0  0  0  0
    2.5067   -9.5698    5.0657 C   0  0  0  0  0  0  0  0  0  0  0  0
    3.3883   -9.5808    5.9137 O   0  0  0  0  0  0  0  0  0  0  0  0
    1.7189    0.7036    1.8901 H   0  0  0  0  0  0  0  0  0  0  0  0
    0.2987    0.7553    2.9619 H   0  0  0  0  0  0  0  0  0  0  0  0
    0.1314    0.2054    1.2938 H   0  0  0  0  0  0  0  0  0  0  0  0
    1.5565   -1.8161    1.8046 H   0  0  0  0  0  0  0  0  0  0  0  0
    0.2832   -1.1030    4.4920 H   0  0  0  0  0  0  0  0  0  0  0  0
    0.3335   -2.7734    6.2311 H   0  0  0  0  0  0  0  0  0  0  0  0
    0.7836   -5.0782    7.0063 H   0  0  0  0  0  0  0  0  0  0  0  0
    1.8110   -3.8399    2.3018 H   0  0  0  0  0  0  0  0  0  0  0  0
    1.6038   -6.6451    2.0808 H   0  0  0  0  0  0  0  0  0  0  0  0
    3.1416   -5.8811    2.1298 H   0  0  0  0  0  0  0  0  0  0  0  0
    4.6629  -10.4970    0.9351 H   0  0  0  0  0  0  0  0  0  0  0  0
    6.1412  -10.0663    1.6392 H   0  0  0  0  0  0  0  0  0  0  0  0
    5.9471   -8.8383    3.9991 H   0  0  0  0  0  0  0  0  0  0  0  0
    6.2752   -6.2438    3.9997 H   0  0  0  0  0  0  0  0  0  0  0  0
    5.3243   -6.1442    2.4266 H   0  0  0  0  0  0  0  0  0  0  0  0
    4.4173   -7.3002    5.1531 H   0  0  0  0  0  0  0  0  0  0  0  0
    2.6499   -7.1303    6.2987 H   0  0  0  0  0  0  0  0  0  0  0  0
    0.9547   -7.4634    6.2792 H   0  0  0  0  0  0  0  0  0  0  0  0
   -0.5610   -9.8674    2.8979 H   0  0  0  0  0  0  0  0  0  0  0  0
    2.4920  -11.5624    4.8508 H   0  0  0  0  0  0  0  0  0  0  0  0
  1  2  1  0
  1 28  1  0
  1 29  1  0
  1 30  1  0
  2  3  2  3
  2 31  1  0
  3  4  1  0
  3 32  1  0
  4  9  2  0
  4  5  1  0
  5  6  2  0
  5 33  1  0
  6  7  1  0
  6 34  1  0
  7 19  1  0
  7  8  2  0
  8  9  1  0
  8 10  1  0
  9 35  1  0
 11 10  1  6
 10 36  1  0
 10 37  1  0
 11 17  1  0
 11 12  1  0
 11 18  1  0
 12 13  2  0
 13 14  1  0
 13 15  1  0
 14 38  1  0
 14 39  1  0
 15 17  1  0
 15 16  1  0
 15 40  1  1
 16 17  1  0
 16 41  1  0
 16 42  1  0
 17 43  1  1
 18 26  1  0
 18 19  1  0
 18 20  1  0
 19 44  1  0
 19 45  1  0
 20 21  2  0
 20 22  1  0
 22 23  1  0
 22 46  1  0
 23 24  2  0
 23 25  1  0
 25 26  1  0
 25 47  1  0
 26 27  2  0
M  END
>  <i_m_ct_stereo_status>  (26) 
1

>  <s_m_source_file>  (26) 
/var/tmp/pbs.5076255.sched01/tmp6mrmgolx/06cp14zw5.sdf

>  <i_m_source_file_index>  (26) 
9

>  <i_lp_mmshare_version>  (26) 
48012

>  <i_f3d_flags>  (26) 
0

>  <s_epik_input>  (26) 
W0NIM10vW0NIXT1bQ0hdL2MoW2NIXVtjSF0xKVtjSF1jKFtDSDJdMiljMVtDSDJdQzMoW0NAXTI0W0NASF01W0NIXShbQ0gyXTUpQyg9TjQpW05IMl0pQyg9TylbTkhdQyg9TylbTkhdQzM9Tw==

>  <s_epik_cmdline>  (26) 
J2VwaWtfcHl0aG9uJywgJy1waHQnLCAnMi4wJywgJy1waCcsICc3LjAnLCAnLXRuJywgJzgnLCAnLW1hJywgJzIwMCcsICctaW1hZScsICc8aW5maWxlLm1hZT4nLCAnLW9tYWUnLCAnPG91dGZpbGUubWFlPic=

>  <r_epik_Ionization_Penalty>  (26) 
1.26885

>  <r_epik_Ionization_Penalty_Charging>  (26) 
0

>  <r_epik_Ionization_Penalty_Neutral>  (26) 
1.26885

>  <r_epik_State_Penalty>  (26) 
1.6814

>  <r_epik_Charging_Adjusted_Penalty>  (26) 
1.6814

>  <i_epik_Tot_Q>  (26) 
0

>  <i_epik_Tot_abs_Q>  (26) 
0

>  <s_epik_Chemistry_Notes>  (26) 
This compound has an imine and may undergo hydrolysis.

>  <s_lp_Force_Field>  (26) 
OPLS3e

>  <r_lp_Energy>  (26) 
23.6142

>  <b_lp_Chiralities_Consistent>  (26) 
1

>  <s_lp_Variant>  (26) 
1:0-7

>  <s_i_glide_gridfile>  (26) 
pfpi4k_grid

>  <i_i_glide_lignum>  (26) 
9

>  <i_i_glide_rotatable_bonds>  (26) 
1

>  <r_i_docking_score>  (26) 
-2.98589

>  <r_i_glide_ligand_efficiency>  (26) 
-0.110588

>  <r_i_glide_ligand_efficiency_sa>  (26) 
-0.331765

>  <r_i_glide_ligand_efficiency_ln>  (26) 
-0.695065

>  <r_i_glide_gscore>  (26) 
-2.98589

>  <r_i_glide_lipo>  (26) 
-0.0299089

>  <r_i_glide_hbond>  (26) 
-0.16

>  <r_i_glide_metal>  (26) 
-0

>  <r_i_glide_rewards>  (26) 
-1.06443

>  <r_i_glide_evdw>  (26) 
-24.5745

>  <r_i_glide_ecoul>  (26) 
-2.82544

>  <r_i_glide_erotb>  (26) 
0.144777

>  <r_i_glide_esite>  (26) 
-0.223785

>  <r_i_glide_emodel>  (26) 
-33.1122

>  <r_i_glide_energy>  (26) 
-27.3999

>  <r_i_glide_einternal>  (26) 
0.0549582

>  <r_i_glide_intrahb_reward>  (26) 
-0

>  <i_i_glide_confnum>  (26) 
4

>  <i_i_glide_posenum>  (26) 
30

>  <r_i_glide_eff_state_penalty>  (26) 
0

>  <ligand_id>  (26) 
1

>  <original_smiles>  (26) 
CC=Cc1ccc2c(c1)CC1(N=C(N)C3CC31)C1(C2)C(=O)NC(=O)NC1=O

>  <smiles>  (26) 
[H]C(=C([H])C([H])([H])[H])c1c([H])c([H])c2c(c1[H])C([H])([H])C1(N=C(N([H])[H])C3([H])C([H])([H])C31[H])C1(C(=O)N([H])C(=O)N([H])C1=O)C2([H])[H]

$$$$
1:6:2
     RDKit          3D

 47 51  0  0  1  0  0  0  0  0999 V2000
    1.0105    4.3664    4.4995 C   0  0  0  0  0  0  0  0  0  0  0  0
    1.1661    2.8953    4.1926 C   0  0  0  0  0  0  0  0  0  0  0  0
    2.0223    2.3941    3.2833 C   0  0  0  0  0  0  0  0  0  0  0  0
    2.1869    0.9649    2.9625 C   0  0  0  0  0  0  0  0  0  0  0  0
    1.4452   -0.0363    3.6288 C   0  0  0  0  0  0  0  0  0  0  0  0
    1.6231   -1.3899    3.3019 C   0  0  0  0  0  0  0  0  0  0  0  0
    2.5475   -1.7696    2.3104 C   0  0  0  0  0  0  0  0  0  0  0  0
    3.2932   -0.7820    1.6256 C   0  0  0  0  0  0  0  0  0  0  0  0
    3.1048    0.5759    1.9610 C   0  0  0  0  0  0  0  0  0  0  0  0
    4.3121   -1.1475    0.5499 C   0  0  0  0  0  0  0  0  0  0  0  0
    4.1944   -2.6046    0.0236 C   0  0  1  0  0  0  0  0  0  0  0  0
    3.0522   -2.6555   -0.8960 N   0  0  0  0  0  0  0  0  0  0  0  0
    3.4272   -3.0127   -2.0659 C   0  0  0  0  0  0  0  0  0  0  0  0
    2.6573   -3.1932   -3.1911 N   0  0  0  0  0  0  0  0  0  0  0  0
    4.8912   -3.3017   -2.1787 C   0  0  1  0  0  0  0  0  0  0  0  0
    5.9481   -2.2449   -1.9988 C   0  0  0  0  0  0  0  0  0  0  0  0
    5.4175   -3.0078   -0.8151 C   0  0  1  0  0  0  0  0  0  0  0  0
    3.9664   -3.6130    1.2078 C   0  0  0  0  0  0  0  0  0  0  0  0
    2.7075   -3.2455    2.0093 C   0  0  0  0  0  0  0  0  0  0  0  0
    3.8052   -5.0783    0.6860 C   0  0  0  0  0  0  0  0  0  0  0  0
    2.7312   -5.4812    0.2899 O   0  0  0  0  0  0  0  0  0  0  0  0
    4.8735   -5.8837    0.5761 N   0  0  0  0  0  0  0  0  0  0  0  0
    6.0406   -5.6539    1.1605 C   0  0  0  0  0  0  0  0  0  0  0  0
    7.0061   -6.3905    0.9936 O   0  0  0  0  0  0  0  0  0  0  0  0
    6.1498   -4.5702    1.9518 N   0  0  0  0  0  0  0  0  0  0  0  0
    5.2085   -3.6263    2.1279 C   0  0  0  0  0  0  0  0  0  0  0  0
    5.3805   -2.7502    2.9685 O   0  0  0  0  0  0  0  0  0  0  0  0
   -0.0146    4.6766    4.2965 H   0  0  0  0  0  0  0  0  0  0  0  0
    1.6856    4.9673    3.8890 H   0  0  0  0  0  0  0  0  0  0  0  0
    1.2309    4.5463    5.5521 H   0  0  0  0  0  0  0  0  0  0  0  0
    0.5222    2.2483    4.7638 H   0  0  0  0  0  0  0  0  0  0  0  0
    2.6470    3.0806    2.7307 H   0  0  0  0  0  0  0  0  0  0  0  0
    0.7311    0.2162    4.4041 H   0  0  0  0  0  0  0  0  0  0  0  0
    1.0476   -2.1355    3.8248 H   0  0  0  0  0  0  0  0  0  0  0  0
    3.6838    1.3365    1.4462 H   0  0  0  0  0  0  0  0  0  0  0  0
    4.2411   -0.4277   -0.2630 H   0  0  0  0  0  0  0  0  0  0  0  0
    5.2971   -0.9902    0.9857 H   0  0  0  0  0  0  0  0  0  0  0  0
    1.6484   -3.1079   -3.1485 H   0  0  0  0  0  0  0  0  0  0  0  0
    3.0083   -3.6122   -4.0395 H   0  0  0  0  0  0  0  0  0  0  0  0
    5.1159   -4.3048   -2.5356 H   0  0  0  0  0  0  0  0  0  0  0  0
    6.9723   -2.4968   -2.2558 H   0  0  0  0  0  0  0  0  0  0  0  0
    5.6829   -1.1833   -2.0876 H   0  0  0  0  0  0  0  0  0  0  0  0
    6.1387   -3.6789   -0.3539 H   0  0  0  0  0  0  0  0  0  0  0  0
    2.6496   -3.8164    2.9347 H   0  0  0  0  0  0  0  0  0  0  0  0
    1.8134   -3.5166    1.4405 H   0  0  0  0  0  0  0  0  0  0  0  0
    4.7677   -6.7172    0.0134 H   0  0  0  0  0  0  0  0  0  0  0  0
    6.9974   -4.4291    2.4390 H   0  0  0  0  0  0  0  0  0  0  0  0
  1  2  1  0
  1 28  1  0
  1 29  1  0
  1 30  1  0
  2  3  2  3
  2 31  1  0
  3  4  1  0
  3 32  1  0
  4  9  2  0
  4  5  1  0
  5  6  2  0
  5 33  1  0
  6  7  1  0
  6 34  1  0
  7 19  1  0
  7  8  2  0
  8  9  1  0
  8 10  1  0
  9 35  1  0
 11 10  1  1
 10 36  1  0
 10 37  1  0
 11 17  1  0
 11 12  1  0
 11 18  1  0
 12 13  2  0
 13 14  1  0
 13 15  1  0
 14 38  1  0
 14 39  1  0
 15 17  1  0
 15 16  1  0
 15 40  1  6
 16 17  1  0
 16 41  1  0
 16 42  1  0
 17 43  1  1
 18 26  1  0
 18 19  1  0
 18 20  1  0
 19 44  1  0
 19 45  1  0
 20 21  2  0
 20 22  1  0
 22 23  1  0
 22 46  1  0
 23 24  2  0
 23 25  1  0
 25 26  1  0
 25 47  1  0
 26 27  2  0
M  END
>  <i_m_ct_stereo_status>  (27) 
1

>  <s_m_source_file>  (27) 
/var/tmp/pbs.5076255.sched01/tmp6mrmgolx/06cp14zw5.sdf

>  <i_m_source_file_index>  (27) 
9

>  <i_lp_mmshare_version>  (27) 
48012

>  <i_f3d_flags>  (27) 
0

>  <s_epik_input>  (27) 
W0NIM10vW0NIXT1bQ0hdL2MoW2NIXVtjSF0xKVtjSF1jKFtDSDJdMiljMVtDSDJdQzMoW0NAXTI0W0NASF01W0NIXShbQ0gyXTUpQyg9TjQpW05IMl0pQyg9TylbTkhdQyg9TylbTkhdQzM9Tw==

>  <s_epik_cmdline>  (27) 
J2VwaWtfcHl0aG9uJywgJy1waHQnLCAnMi4wJywgJy1waCcsICc3LjAnLCAnLXRuJywgJzgnLCAnLW1hJywgJzIwMCcsICctaW1hZScsICc8aW5maWxlLm1hZT4nLCAnLW9tYWUnLCAnPG91dGZpbGUubWFlPic=

>  <r_epik_Ionization_Penalty>  (27) 
1.26885

>  <r_epik_Ionization_Penalty_Charging>  (27) 
0

>  <r_epik_Ionization_Penalty_Neutral>  (27) 
1.26885

>  <r_epik_State_Penalty>  (27) 
1.6814

>  <r_epik_Charging_Adjusted_Penalty>  (27) 
1.6814

>  <i_epik_Tot_Q>  (27) 
0

>  <i_epik_Tot_abs_Q>  (27) 
0

>  <s_epik_Chemistry_Notes>  (27) 
This compound has an imine and may undergo hydrolysis.

>  <s_lp_Force_Field>  (27) 
OPLS3e

>  <r_lp_Energy>  (27) 
23.6142

>  <b_lp_Chiralities_Consistent>  (27) 
1

>  <s_lp_Variant>  (27) 
1:0-7

>  <s_i_glide_gridfile>  (27) 
pfpi4k_grid

>  <i_i_glide_lignum>  (27) 
9

>  <i_i_glide_rotatable_bonds>  (27) 
1

>  <r_i_docking_score>  (27) 
-2.70739

>  <r_i_glide_ligand_efficiency>  (27) 
-0.100274

>  <r_i_glide_ligand_efficiency_sa>  (27) 
-0.300822

>  <r_i_glide_ligand_efficiency_ln>  (27) 
-0.630237

>  <r_i_glide_gscore>  (27) 
-2.70739

>  <r_i_glide_lipo>  (27) 
-0.264544

>  <r_i_glide_hbond>  (27) 
0

>  <r_i_glide_metal>  (27) 
-0

>  <r_i_glide_rewards>  (27) 
-1.10826

>  <r_i_glide_evdw>  (27) 
-30.4889

>  <r_i_glide_ecoul>  (27) 
0.41895

>  <r_i_glide_erotb>  (27) 
0.144777

>  <r_i_glide_esite>  (27) 
-0.01776

>  <r_i_glide_emodel>  (27) 
-34.377

>  <r_i_glide_energy>  (27) 
-30.07

>  <r_i_glide_einternal>  (27) 
0.041099

>  <r_i_glide_intrahb_reward>  (27) 
-0

>  <i_i_glide_confnum>  (27) 
6

>  <i_i_glide_posenum>  (27) 
14

>  <r_i_glide_eff_state_penalty>  (27) 
0

>  <ligand_id>  (27) 
1

>  <original_smiles>  (27) 
CC=Cc1ccc2c(c1)CC1(N=C(N)C3CC31)C1(C2)C(=O)NC(=O)NC1=O

>  <smiles>  (27) 
[H]C(=C([H])C([H])([H])[H])c1c([H])c([H])c2c(c1[H])C([H])([H])C1(N=C(N([H])[H])C3([H])C([H])([H])C31[H])C1(C(=O)N([H])C(=O)N([H])C1=O)C2([H])[H]

$$$$
1:7:0
     RDKit          3D

 47 51  0  0  1  0  0  0  0  0999 V2000
   -1.5418   -8.1975    3.4088 C   0  0  0  0  0  0  0  0  0  0  0  0
   -1.3077   -7.0887    4.4209 C   0  0  0  0  0  0  0  0  0  0  0  0
   -0.3592   -6.1335    4.4068 C   0  0  0  0  0  0  0  0  0  0  0  0
    0.7438   -5.9655    3.4518 C   0  0  0  0  0  0  0  0  0  0  0  0
    1.3410   -7.0654    2.8004 C   0  0  0  0  0  0  0  0  0  0  0  0
    2.3572   -6.8760    1.8530 C   0  0  0  0  0  0  0  0  0  0  0  0
    2.8088   -5.5829    1.5519 C   0  0  0  0  0  0  0  0  0  0  0  0
    2.2246   -4.4682    2.2082 C   0  0  0  0  0  0  0  0  0  0  0  0
    1.2000   -4.6670    3.1578 C   0  0  0  0  0  0  0  0  0  0  0  0
    2.6157   -3.0398    1.8691 C   0  0  0  0  0  0  0  0  0  0  0  0
    3.9612   -2.9586    1.1250 C   0  0  1  0  0  0  0  0  0  0  0  0
    4.1411   -1.5761    0.6456 N   0  0  0  0  0  0  0  0  0  0  0  0
    5.2231   -1.0805    1.1358 C   0  0  0  0  0  0  0  0  0  0  0  0
    5.8108    0.1363    0.8730 N   0  0  0  0  0  0  0  0  0  0  0  0
    5.9316   -1.9711    2.0868 C   0  0  1  0  0  0  0  0  0  0  0  0
    5.3200   -2.4469    3.3908 C   0  0  0  0  0  0  0  0  0  0  0  0
    5.1164   -3.2040    2.1062 C   0  0  1  0  0  0  0  0  0  0  0  0
    4.0124   -3.9818   -0.0767 C   0  0  0  0  0  0  0  0  0  0  0  0
    3.8924   -5.4337    0.4862 C   0  0  0  0  0  0  0  0  0  0  0  0
    2.8439   -3.7607   -1.0785 C   0  0  0  0  0  0  0  0  0  0  0  0
    1.7483   -4.2354   -0.8532 O   0  0  0  0  0  0  0  0  0  0  0  0
    3.0025   -3.0195   -2.1802 N   0  0  0  0  0  0  0  0  0  0  0  0
    4.1981   -2.6525   -2.6821 C   0  0  0  0  0  0  0  0  0  0  0  0
    4.2895   -1.9600   -3.6892 O   0  0  0  0  0  0  0  0  0  0  0  0
    5.2980   -3.1126   -2.0546 N   0  0  0  0  0  0  0  0  0  0  0  0
    5.3103   -3.8052   -0.8975 C   0  0  0  0  0  0  0  0  0  0  0  0
    6.3555   -4.2264   -0.4324 O   0  0  0  0  0  0  0  0  0  0  0  0
   -2.6016   -8.2759    3.1844 H   0  0  0  0  0  0  0  0  0  0  0  0
   -1.2180   -9.1550    3.8177 H   0  0  0  0  0  0  0  0  0  0  0  0
   -1.0483   -8.0349    2.4521 H   0  0  0  0  0  0  0  0  0  0  0  0
   -1.9960   -7.0785    5.2488 H   0  0  0  0  0  0  0  0  0  0  0  0
   -0.3780   -5.4098    5.2096 H   0  0  0  0  0  0  0  0  0  0  0  0
    1.0453   -8.0782    3.0293 H   0  0  0  0  0  0  0  0  0  0  0  0
    2.7880   -7.7337    1.3576 H   0  0  0  0  0  0  0  0  0  0  0  0
    0.7200   -3.8051    3.6009 H   0  0  0  0  0  0  0  0  0  0  0  0
    1.8309   -2.5924    1.2538 H   0  0  0  0  0  0  0  0  0  0  0  0
    2.6179   -2.4245    2.7653 H   0  0  0  0  0  0  0  0  0  0  0  0
    5.4151    0.8084    0.2304 H   0  0  0  0  0  0  0  0  0  0  0  0
    6.7159    0.4369    1.2616 H   0  0  0  0  0  0  0  0  0  0  0  0
    6.9807   -2.1064    1.8320 H   0  0  0  0  0  0  0  0  0  0  0  0
    5.9245   -2.9760    4.1226 H   0  0  0  0  0  0  0  0  0  0  0  0
    4.4743   -1.9043    3.8100 H   0  0  0  0  0  0  0  0  0  0  0  0
    5.6680   -4.1451    2.0398 H   0  0  0  0  0  0  0  0  0  0  0  0
    4.8129   -5.7770    0.9505 H   0  0  0  0  0  0  0  0  0  0  0  0
    3.7185   -6.1489   -0.3196 H   0  0  0  0  0  0  0  0  0  0  0  0
    2.1700   -2.7607   -2.6912 H   0  0  0  0  0  0  0  0  0  0  0  0
    6.1975   -2.9014   -2.4627 H   0  0  0  0  0  0  0  0  0  0  0  0
  1  2  1  0
  1 28  1  0
  1 29  1  0
  1 30  1  0
  2  3  2  3
  2 31  1  0
  3  4  1  0
  3 32  1  0
  4  9  2  0
  4  5  1  0
  5  6  2  0
  5 33  1  0
  6  7  1  0
  6 34  1  0
  7 19  1  0
  7  8  2  0
  8  9  1  0
  8 10  1  0
  9 35  1  0
 11 10  1  1
 10 36  1  0
 10 37  1  0
 11 17  1  0
 11 12  1  0
 11 18  1  0
 12 13  2  0
 13 14  1  0
 13 15  1  0
 14 38  1  0
 14 39  1  0
 15 17  1  0
 15 16  1  0
 15 40  1  1
 16 17  1  0
 16 41  1  0
 16 42  1  0
 17 43  1  1
 18 26  1  0
 18 19  1  0
 18 20  1  0
 19 44  1  0
 19 45  1  0
 20 21  2  0
 20 22  1  0
 22 23  1  0
 22 46  1  0
 23 24  2  0
 23 25  1  0
 25 26  1  0
 25 47  1  0
 26 27  2  0
M  END
>  <i_m_ct_stereo_status>  (28) 
1

>  <s_m_source_file>  (28) 
/var/tmp/pbs.5076255.sched01/tmp6mrmgolx/06cp14zw5.sdf

>  <i_m_source_file_index>  (28) 
10

>  <i_lp_mmshare_version>  (28) 
48012

>  <i_f3d_flags>  (28) 
0

>  <s_epik_input>  (28) 
W0NIM10vW0NIXT1bQ0hdL2MoW2NIXVtjSF0xKVtjSF1jKFtDSDJdMiljMVtDSDJdQzMoW0NAXTI0W0NASF01W0NIXShbQ0gyXTUpQyg9TjQpW05IMl0pQyg9TylbTkhdQyg9TylbTkhdQzM9Tw==

>  <s_epik_cmdline>  (28) 
J2VwaWtfcHl0aG9uJywgJy1waHQnLCAnMi4wJywgJy1waCcsICc3LjAnLCAnLXRuJywgJzgnLCAnLW1hJywgJzIwMCcsICctaW1hZScsICc8aW5maWxlLm1hZT4nLCAnLW9tYWUnLCAnPG91dGZpbGUubWFlPic=

>  <r_epik_Ionization_Penalty>  (28) 
1.26885

>  <r_epik_Ionization_Penalty_Charging>  (28) 
0

>  <r_epik_Ionization_Penalty_Neutral>  (28) 
1.26885

>  <r_epik_State_Penalty>  (28) 
1.6814

>  <r_epik_Charging_Adjusted_Penalty>  (28) 
1.6814

>  <i_epik_Tot_Q>  (28) 
0

>  <i_epik_Tot_abs_Q>  (28) 
0

>  <s_epik_Chemistry_Notes>  (28) 
This compound has an imine and may undergo hydrolysis.

>  <s_lp_Force_Field>  (28) 
OPLS3e

>  <r_lp_Energy>  (28) 
26.2827

>  <b_lp_Chiralities_Consistent>  (28) 
1

>  <s_lp_Variant>  (28) 
1:0-8

>  <s_i_glide_gridfile>  (28) 
pfpi4k_grid

>  <i_i_glide_lignum>  (28) 
10

>  <i_i_glide_rotatable_bonds>  (28) 
1

>  <r_i_docking_score>  (28) 
-4.69971

>  <r_i_glide_ligand_efficiency>  (28) 
-0.174063

>  <r_i_glide_ligand_efficiency_sa>  (28) 
-0.52219

>  <r_i_glide_ligand_efficiency_ln>  (28) 
-1.09401

>  <r_i_glide_gscore>  (28) 
-4.69971

>  <r_i_glide_lipo>  (28) 
-0.204602

>  <r_i_glide_hbond>  (28) 
-0.608433

>  <r_i_glide_metal>  (28) 
-0

>  <r_i_glide_rewards>  (28) 
-1.23038

>  <r_i_glide_evdw>  (28) 
-19.4802

>  <r_i_glide_ecoul>  (28) 
-12.019

>  <r_i_glide_erotb>  (28) 
0.144777

>  <r_i_glide_esite>  (28) 
-0.0242201

>  <r_i_glide_emodel>  (28) 
-42.72

>  <r_i_glide_energy>  (28) 
-31.4992

>  <r_i_glide_einternal>  (28) 
0.141169

>  <r_i_glide_intrahb_reward>  (28) 
-0

>  <i_i_glide_confnum>  (28) 
5

>  <i_i_glide_posenum>  (28) 
3

>  <r_i_glide_eff_state_penalty>  (28) 
0

>  <ligand_id>  (28) 
1

>  <original_smiles>  (28) 
CC=Cc1ccc2c(c1)CC1(N=C(N)C3CC31)C1(C2)C(=O)NC(=O)NC1=O

>  <smiles>  (28) 
[H]C(=C([H])C([H])([H])[H])c1c([H])c([H])c2c(c1[H])C([H])([H])C1(N=C(N([H])[H])C3([H])C([H])([H])C31[H])C1(C(=O)N([H])C(=O)N([H])C1=O)C2([H])[H]

$$$$
1:7:1
     RDKit          3D

 47 51  0  0  1  0  0  0  0  0999 V2000
    3.8329   -2.6408   -3.1917 C   0  0  0  0  0  0  0  0  0  0  0  0
    4.0618   -1.4032   -2.3267 C   0  0  0  0  0  0  0  0  0  0  0  0
    4.0396   -1.2785   -0.9808 C   0  0  0  0  0  0  0  0  0  0  0  0
    3.8351   -2.3140    0.0444 C   0  0  0  0  0  0  0  0  0  0  0  0
    3.2324   -1.9623    1.2794 C   0  0  0  0  0  0  0  0  0  0  0  0
    2.9789   -2.9445    2.2637 C   0  0  0  0  0  0  0  0  0  0  0  0
    3.2950   -4.2948    2.0045 C   0  0  0  0  0  0  0  0  0  0  0  0
    3.9048   -4.6388    0.7669 C   0  0  0  0  0  0  0  0  0  0  0  0
    4.1957   -3.6539   -0.1828 C   0  0  0  0  0  0  0  0  0  0  0  0
    4.2215   -6.0725    0.3981 C   0  0  0  0  0  0  0  0  0  0  0  0
    4.2651   -7.0093    1.6154 C   0  0  1  0  0  0  0  0  0  0  0  0
    4.3484   -8.3964    1.1299 N   0  0  0  0  0  0  0  0  0  0  0  0
    5.4229   -8.9569    1.5678 C   0  0  0  0  0  0  0  0  0  0  0  0
    5.8269  -10.2617    1.3839 N   0  0  0  0  0  0  0  0  0  0  0  0
    6.3049   -8.0647    2.3917 C   0  0  1  0  0  0  0  0  0  0  0  0
    6.9557   -6.8178    1.8432 C   0  0  0  0  0  0  0  0  0  0  0  0
    5.5554   -6.7807    2.4223 C   0  0  1  0  0  0  0  0  0  0  0  0
    2.9974   -6.7944    2.5322 C   0  0  0  0  0  0  0  0  0  0  0  0
    2.9839   -5.3384    3.0754 C   0  0  0  0  0  0  0  0  0  0  0  0
    1.6558   -6.9974    1.7521 C   0  0  0  0  0  0  0  0  0  0  0  0
    1.1662   -6.1273    1.0524 O   0  0  0  0  0  0  0  0  0  0  0  0
    1.0466   -8.1775    1.7351 N   0  0  0  0  0  0  0  0  0  0  0  0
    1.2944   -9.1614    2.5914 C   0  0  0  0  0  0  0  0  0  0  0  0
    0.7166  -10.2429    2.5560 O   0  0  0  0  0  0  0  0  0  0  0  0
    2.2067   -8.9331    3.5659 N   0  0  0  0  0  0  0  0  0  0  0  0
    2.9615   -7.8278    3.6748 C   0  0  0  0  0  0  0  0  0  0  0  0
    3.6659   -7.6518    4.6693 O   0  0  0  0  0  0  0  0  0  0  0  0
    4.6115   -2.6780   -3.9490 H   0  0  0  0  0  0  0  0  0  0  0  0
    2.8759   -2.5380   -3.7041 H   0  0  0  0  0  0  0  0  0  0  0  0
    3.8186   -3.5869   -2.6703 H   0  0  0  0  0  0  0  0  0  0  0  0
    4.2422   -0.4865   -2.8747 H   0  0  0  0  0  0  0  0  0  0  0  0
    4.2078   -0.2875   -0.5695 H   0  0  0  0  0  0  0  0  0  0  0  0
    2.9644   -0.9322    1.4866 H   0  0  0  0  0  0  0  0  0  0  0  0
    2.5293   -2.6626    3.2135 H   0  0  0  0  0  0  0  0  0  0  0  0
    4.7015   -3.9655   -1.0776 H   0  0  0  0  0  0  0  0  0  0  0  0
    3.4774   -6.4191   -0.3166 H   0  0  0  0  0  0  0  0  0  0  0  0
    5.1477   -6.1123   -0.1648 H   0  0  0  0  0  0  0  0  0  0  0  0
    5.2364  -10.9573    0.9111 H   0  0  0  0  0  0  0  0  0  0  0  0
    6.6633  -10.6438    1.7967 H   0  0  0  0  0  0  0  0  0  0  0  0
    6.5660   -8.4736    3.3678 H   0  0  0  0  0  0  0  0  0  0  0  0
    7.7127   -6.3140    2.4438 H   0  0  0  0  0  0  0  0  0  0  0  0
    7.0657   -6.7086    0.7626 H   0  0  0  0  0  0  0  0  0  0  0  0
    5.4665   -6.2706    3.3864 H   0  0  0  0  0  0  0  0  0  0  0  0
    3.7266   -5.2025    3.8606 H   0  0  0  0  0  0  0  0  0  0  0  0
    2.0193   -5.1059    3.5414 H   0  0  0  0  0  0  0  0  0  0  0  0
    0.3001   -8.3537    1.0538 H   0  0  0  0  0  0  0  0  0  0  0  0
    2.3514   -9.6399    4.2569 H   0  0  0  0  0  0  0  0  0  0  0  0
  1  2  1  0
  1 28  1  0
  1 29  1  0
  1 30  1  0
  2  3  2  3
  2 31  1  0
  3  4  1  0
  3 32  1  0
  4  9  2  0
  4  5  1  0
  5  6  2  0
  5 33  1  0
  6  7  1  0
  6 34  1  0
  7 19  1  0
  7  8  2  0
  8  9  1  0
  8 10  1  0
  9 35  1  0
 11 10  1  6
 10 36  1  0
 10 37  1  0
 11 17  1  0
 11 12  1  0
 11 18  1  0
 12 13  2  0
 13 14  1  0
 13 15  1  0
 14 38  1  0
 14 39  1  0
 15 17  1  0
 15 16  1  0
 15 40  1  1
 16 17  1  0
 16 41  1  0
 16 42  1  0
 17 43  1  1
 18 26  1  0
 18 19  1  0
 18 20  1  0
 19 44  1  0
 19 45  1  0
 20 21  2  0
 20 22  1  0
 22 23  1  0
 22 46  1  0
 23 24  2  0
 23 25  1  0
 25 26  1  0
 25 47  1  0
 26 27  2  0
M  END
>  <i_m_ct_stereo_status>  (29) 
1

>  <s_m_source_file>  (29) 
/var/tmp/pbs.5076255.sched01/tmp6mrmgolx/06cp14zw5.sdf

>  <i_m_source_file_index>  (29) 
10

>  <i_lp_mmshare_version>  (29) 
48012

>  <i_f3d_flags>  (29) 
0

>  <s_epik_input>  (29) 
W0NIM10vW0NIXT1bQ0hdL2MoW2NIXVtjSF0xKVtjSF1jKFtDSDJdMiljMVtDSDJdQzMoW0NAXTI0W0NASF01W0NIXShbQ0gyXTUpQyg9TjQpW05IMl0pQyg9TylbTkhdQyg9TylbTkhdQzM9Tw==

>  <s_epik_cmdline>  (29) 
J2VwaWtfcHl0aG9uJywgJy1waHQnLCAnMi4wJywgJy1waCcsICc3LjAnLCAnLXRuJywgJzgnLCAnLW1hJywgJzIwMCcsICctaW1hZScsICc8aW5maWxlLm1hZT4nLCAnLW9tYWUnLCAnPG91dGZpbGUubWFlPic=

>  <r_epik_Ionization_Penalty>  (29) 
1.26885

>  <r_epik_Ionization_Penalty_Charging>  (29) 
0

>  <r_epik_Ionization_Penalty_Neutral>  (29) 
1.26885

>  <r_epik_State_Penalty>  (29) 
1.6814

>  <r_epik_Charging_Adjusted_Penalty>  (29) 
1.6814

>  <i_epik_Tot_Q>  (29) 
0

>  <i_epik_Tot_abs_Q>  (29) 
0

>  <s_epik_Chemistry_Notes>  (29) 
This compound has an imine and may undergo hydrolysis.

>  <s_lp_Force_Field>  (29) 
OPLS3e

>  <r_lp_Energy>  (29) 
26.2827

>  <b_lp_Chiralities_Consistent>  (29) 
1

>  <s_lp_Variant>  (29) 
1:0-8

>  <s_i_glide_gridfile>  (29) 
pfpi4k_grid

>  <i_i_glide_lignum>  (29) 
10

>  <i_i_glide_rotatable_bonds>  (29) 
1

>  <r_i_docking_score>  (29) 
-4.55248

>  <r_i_glide_ligand_efficiency>  (29) 
-0.16861

>  <r_i_glide_ligand_efficiency_sa>  (29) 
-0.505831

>  <r_i_glide_ligand_efficiency_ln>  (29) 
-1.05974

>  <r_i_glide_gscore>  (29) 
-4.55248

>  <r_i_glide_lipo>  (29) 
-0.445534

>  <r_i_glide_hbond>  (29) 
-0.517005

>  <r_i_glide_metal>  (29) 
-0

>  <r_i_glide_rewards>  (29) 
-0.970334

>  <r_i_glide_evdw>  (29) 
-30.6739

>  <r_i_glide_ecoul>  (29) 
-6.91998

>  <r_i_glide_erotb>  (29) 
0.144777

>  <r_i_glide_esite>  (29) 
-0.192692

>  <r_i_glide_emodel>  (29) 
-47.7632

>  <r_i_glide_energy>  (29) 
-37.5939

>  <r_i_glide_einternal>  (29) 
0.396753

>  <r_i_glide_intrahb_reward>  (29) 
-0

>  <i_i_glide_confnum>  (29) 
6

>  <i_i_glide_posenum>  (29) 
34

>  <r_i_glide_eff_state_penalty>  (29) 
0

>  <ligand_id>  (29) 
1

>  <original_smiles>  (29) 
CC=Cc1ccc2c(c1)CC1(N=C(N)C3CC31)C1(C2)C(=O)NC(=O)NC1=O

>  <smiles>  (29) 
[H]C(=C([H])C([H])([H])[H])c1c([H])c([H])c2c(c1[H])C([H])([H])C1(N=C(N([H])[H])C3([H])C([H])([H])C31[H])C1(C(=O)N([H])C(=O)N([H])C1=O)C2([H])[H]

$$$$
1:7:2
     RDKit          3D

 47 51  0  0  1  0  0  0  0  0999 V2000
    5.8868   -2.6296   -1.8401 C   0  0  0  0  0  0  0  0  0  0  0  0
    4.8145   -1.5630   -1.6724 C   0  0  0  0  0  0  0  0  0  0  0  0
    3.8242   -1.5174   -0.7553 C   0  0  0  0  0  0  0  0  0  0  0  0
    3.4766   -2.5059    0.2689 C   0  0  0  0  0  0  0  0  0  0  0  0
    2.8846   -2.0830    1.4828 C   0  0  0  0  0  0  0  0  0  0  0  0
    2.5637   -3.0177    2.4884 C   0  0  0  0  0  0  0  0  0  0  0  0
    2.8491   -4.3824    2.3024 C   0  0  0  0  0  0  0  0  0  0  0  0
    3.4542   -4.8050    1.0917 C   0  0  0  0  0  0  0  0  0  0  0  0
    3.7353   -3.8753    0.0811 C   0  0  0  0  0  0  0  0  0  0  0  0
    3.7733   -6.2590    0.8066 C   0  0  0  0  0  0  0  0  0  0  0  0
    3.7370   -7.1401    2.0718 C   0  0  1  0  0  0  0  0  0  0  0  0
    3.8011   -8.5494    1.6465 N   0  0  0  0  0  0  0  0  0  0  0  0
    4.8188   -9.1276    2.1867 C   0  0  0  0  0  0  0  0  0  0  0  0
    5.1788  -10.4519    2.1312 N   0  0  0  0  0  0  0  0  0  0  0  0
    5.6967   -8.2221    2.9853 C   0  0  1  0  0  0  0  0  0  0  0  0
    6.4155   -7.0176    2.4095 C   0  0  0  0  0  0  0  0  0  0  0  0
    4.9985   -6.9111    2.9205 C   0  0  1  0  0  0  0  0  0  0  0  0
    2.4252   -6.8530    2.9133 C   0  0  0  0  0  0  0  0  0  0  0  0
    2.4498   -5.3731    3.3939 C   0  0  0  0  0  0  0  0  0  0  0  0
    1.1234   -7.0715    2.0697 C   0  0  0  0  0  0  0  0  0  0  0  0
    0.6990   -6.2115    1.3140 O   0  0  0  0  0  0  0  0  0  0  0  0
    0.4606   -8.2295    2.1056 N   0  0  0  0  0  0  0  0  0  0  0  0
    0.6624   -9.1781    3.0085 C   0  0  0  0  0  0  0  0  0  0  0  0
    0.0511  -10.2357    2.9557 O   0  0  0  0  0  0  0  0  0  0  0  0
    1.5240   -8.9163    4.0063 N   0  0  0  0  0  0  0  0  0  0  0  0
    2.3141   -7.8315    4.1086 C   0  0  0  0  0  0  0  0  0  0  0  0
    2.9737   -7.6387    5.1243 O   0  0  0  0  0  0  0  0  0  0  0  0
    6.8617   -2.1663   -1.9985 H   0  0  0  0  0  0  0  0  0  0  0  0
    5.6636   -3.2504   -2.7099 H   0  0  0  0  0  0  0  0  0  0  0  0
    5.9944   -3.2781   -0.9688 H   0  0  0  0  0  0  0  0  0  0  0  0
    4.8672   -0.7513   -2.3805 H   0  0  0  0  0  0  0  0  0  0  0  0
    3.1654   -0.6556   -0.7763 H   0  0  0  0  0  0  0  0  0  0  0  0
    2.6536   -1.0370    1.6378 H   0  0  0  0  0  0  0  0  0  0  0  0
    2.0860   -2.6870    3.3976 H   0  0  0  0  0  0  0  0  0  0  0  0
    4.1370   -4.2479   -0.8561 H   0  0  0  0  0  0  0  0  0  0  0  0
    3.0428   -6.6135    0.0815 H   0  0  0  0  0  0  0  0  0  0  0  0
    4.7260   -6.3444    0.2858 H   0  0  0  0  0  0  0  0  0  0  0  0
    4.6859  -11.1172    1.5173 H   0  0  0  0  0  0  0  0  0  0  0  0
    6.0257  -10.8279    2.5231 H   0  0  0  0  0  0  0  0  0  0  0  0
    5.9066   -8.5982    3.9833 H   0  0  0  0  0  0  0  0  0  0  0  0
    7.1641   -6.5202    3.0185 H   0  0  0  0  0  0  0  0  0  0  0  0
    6.5784   -6.9714    1.3319 H   0  0  0  0  0  0  0  0  0  0  0  0
    4.8807   -6.3669    3.8582 H   0  0  0  0  0  0  0  0  0  0  0  0
    3.1521   -5.2269    4.2135 H   0  0  0  0  0  0  0  0  0  0  0  0
    1.4757   -5.0859    3.7995 H   0  0  0  0  0  0  0  0  0  0  0  0
   -0.2403   -8.3916    1.3853 H   0  0  0  0  0  0  0  0  0  0  0  0
    1.6152   -9.6015    4.7237 H   0  0  0  0  0  0  0  0  0  0  0  0
  1  2  1  0
  1 28  1  0
  1 29  1  0
  1 30  1  0
  2  3  2  3
  2 31  1  0
  3  4  1  0
  3 32  1  0
  4  9  2  0
  4  5  1  0
  5  6  2  0
  5 33  1  0
  6  7  1  0
  6 34  1  0
  7 19  1  0
  7  8  2  0
  8  9  1  0
  8 10  1  0
  9 35  1  0
 11 10  1  6
 10 36  1  0
 10 37  1  0
 11 17  1  0
 11 12  1  0
 11 18  1  0
 12 13  2  0
 13 14  1  0
 13 15  1  0
 14 38  1  0
 14 39  1  0
 15 17  1  0
 15 16  1  0
 15 40  1  1
 16 17  1  0
 16 41  1  0
 16 42  1  0
 17 43  1  1
 18 26  1  0
 18 19  1  0
 18 20  1  0
 19 44  1  0
 19 45  1  0
 20 21  2  0
 20 22  1  0
 22 23  1  0
 22 46  1  0
 23 24  2  0
 23 25  1  0
 25 26  1  0
 25 47  1  0
 26 27  2  0
M  END
>  <i_m_ct_stereo_status>  (30) 
1

>  <s_m_source_file>  (30) 
/var/tmp/pbs.5076255.sched01/tmp6mrmgolx/06cp14zw5.sdf

>  <i_m_source_file_index>  (30) 
10

>  <i_lp_mmshare_version>  (30) 
48012

>  <i_f3d_flags>  (30) 
0

>  <s_epik_input>  (30) 
W0NIM10vW0NIXT1bQ0hdL2MoW2NIXVtjSF0xKVtjSF1jKFtDSDJdMiljMVtDSDJdQzMoW0NAXTI0W0NASF01W0NIXShbQ0gyXTUpQyg9TjQpW05IMl0pQyg9TylbTkhdQyg9TylbTkhdQzM9Tw==

>  <s_epik_cmdline>  (30) 
J2VwaWtfcHl0aG9uJywgJy1waHQnLCAnMi4wJywgJy1waCcsICc3LjAnLCAnLXRuJywgJzgnLCAnLW1hJywgJzIwMCcsICctaW1hZScsICc8aW5maWxlLm1hZT4nLCAnLW9tYWUnLCAnPG91dGZpbGUubWFlPic=

>  <r_epik_Ionization_Penalty>  (30) 
1.26885

>  <r_epik_Ionization_Penalty_Charging>  (30) 
0

>  <r_epik_Ionization_Penalty_Neutral>  (30) 
1.26885

>  <r_epik_State_Penalty>  (30) 
1.6814

>  <r_epik_Charging_Adjusted_Penalty>  (30) 
1.6814

>  <i_epik_Tot_Q>  (30) 
0

>  <i_epik_Tot_abs_Q>  (30) 
0

>  <s_epik_Chemistry_Notes>  (30) 
This compound has an imine and may undergo hydrolysis.

>  <s_lp_Force_Field>  (30) 
OPLS3e

>  <r_lp_Energy>  (30) 
26.2827

>  <b_lp_Chiralities_Consistent>  (30) 
1

>  <s_lp_Variant>  (30) 
1:0-8

>  <s_i_glide_gridfile>  (30) 
pfpi4k_grid

>  <i_i_glide_lignum>  (30) 
10

>  <i_i_glide_rotatable_bonds>  (30) 
1

>  <r_i_docking_score>  (30) 
-4.12321

>  <r_i_glide_ligand_efficiency>  (30) 
-0.152712

>  <r_i_glide_ligand_efficiency_sa>  (30) 
-0.458135

>  <r_i_glide_ligand_efficiency_ln>  (30) 
-0.959816

>  <r_i_glide_gscore>  (30) 
-4.12321

>  <r_i_glide_lipo>  (30) 
-0.117438

>  <r_i_glide_hbond>  (30) 
-0.409897

>  <r_i_glide_metal>  (30) 
-0

>  <r_i_glide_rewards>  (30) 
-0.92456

>  <r_i_glide_evdw>  (30) 
-27.1402

>  <r_i_glide_ecoul>  (30) 
-8.1291

>  <r_i_glide_erotb>  (30) 
0.144777

>  <r_i_glide_esite>  (30) 
-0.23972

>  <r_i_glide_emodel>  (30) 
-44.5205

>  <r_i_glide_energy>  (30) 
-35.2693

>  <r_i_glide_einternal>  (30) 
0.0401533

>  <r_i_glide_intrahb_reward>  (30) 
-0

>  <i_i_glide_confnum>  (30) 
6

>  <i_i_glide_posenum>  (30) 
10

>  <r_i_glide_eff_state_penalty>  (30) 
0

>  <ligand_id>  (30) 
1

>  <original_smiles>  (30) 
CC=Cc1ccc2c(c1)CC1(N=C(N)C3CC31)C1(C2)C(=O)NC(=O)NC1=O

>  <smiles>  (30) 
[H]C(=C([H])C([H])([H])[H])c1c([H])c([H])c2c(c1[H])C([H])([H])C1(N=C(N([H])[H])C3([H])C([H])([H])C31[H])C1(C(=O)N([H])C(=O)N([H])C1=O)C2([H])[H]

$$$$
1:8:0
     RDKit          3D

 46 50  0  0  1  0  0  0  0  0999 V2000
    2.8570   -4.3396    0.9326 C   0  0  0  0  0  0  0  0  0  0  0  0
    2.4289   -3.1681    1.7842 C   0  0  0  0  0  0  0  0  0  0  0  0
    2.7142   -3.0448    3.0923 C   0  0  0  0  0  0  0  0  0  0  0  0
    2.3080   -1.9243    3.9516 C   0  0  0  0  0  0  0  0  0  0  0  0
    2.9186   -1.7624    5.2145 C   0  0  0  0  0  0  0  0  0  0  0  0
    2.5616   -0.6801    6.0401 C   0  0  0  0  0  0  0  0  0  0  0  0
    1.6018    0.2562    5.6153 C   0  0  0  0  0  0  0  0  0  0  0  0
    0.9840    0.0967    4.3472 C   0  0  0  0  0  0  0  0  0  0  0  0
    1.3454   -0.9821    3.5272 C   0  0  0  0  0  0  0  0  0  0  0  0
   -0.1081    1.0324    3.8465 C   0  0  0  0  0  0  0  0  0  0  0  0
   -0.2342    2.3305    4.6808 C   0  0  1  0  0  0  0  0  0  0  0  0
    0.9115    3.1907    4.3077 N   0  0  0  0  0  0  0  0  0  0  0  0
    0.5043    4.3125    3.8343 C   0  0  0  0  0  0  0  0  0  0  0  0
    1.2662    5.3939    3.4440 N   0  0  0  0  0  0  0  0  0  0  0  0
   -0.9835    4.4180    3.7356 C   0  0  1  0  0  0  0  0  0  0  0  0
   -1.8401    3.5170    2.8789 C   0  0  0  0  0  0  0  0  0  0  0  0
   -1.4838    3.1200    4.2805 C   0  0  1  0  0  0  0  0  0  0  0  0
   -0.1850    2.0029    6.2300 C   0  0  1  0  0  0  0  0  0  0  0  0
    1.2022    1.3785    6.5655 C   0  0  0  0  0  0  0  0  0  0  0  0
   -0.3647    3.3132    7.0678 C   0  0  0  0  0  0  0  0  0  0  0  0
    0.5322    4.1648    7.1098 O   0  0  0  0  0  0  0  0  0  0  0  0
   -1.5198    3.5264    7.7079 N   0  0  0  0  0  0  0  0  0  0  0  0
   -2.5398    2.6579    7.8201 C   0  0  0  0  0  0  0  0  0  0  0  0
   -3.5481    3.0467    8.4023 O   0  0  0  0  0  0  0  0  0  0  0  0
   -2.4167    1.4148    7.2914 N   0  0  0  0  0  0  0  0  0  0  0  0
   -1.3063    0.9600    6.6600 C   0  0  0  0  0  0  0  0  0  0  0  0
   -1.1509   -0.2411    6.4211 O   0  0  0  0  0  0  0  0  0  0  0  0
    1.9819   -4.8341    0.5135 H   0  0  0  0  0  0  0  0  0  0  0  0
    3.4177   -5.0644    1.5215 H   0  0  0  0  0  0  0  0  0  0  0  0
    3.4844   -3.9899    0.1125 H   0  0  0  0  0  0  0  0  0  0  0  0
    1.8700   -2.4045    1.2660 H   0  0  0  0  0  0  0  0  0  0  0  0
    3.2829   -3.8253    3.5742 H   0  0  0  0  0  0  0  0  0  0  0  0
    3.6536   -2.4805    5.5627 H   0  0  0  0  0  0  0  0  0  0  0  0
    3.0137   -0.5885    7.0177 H   0  0  0  0  0  0  0  0  0  0  0  0
    0.8317   -1.0888    2.5784 H   0  0  0  0  0  0  0  0  0  0  0  0
    0.0544    1.2563    2.7905 H   0  0  0  0  0  0  0  0  0  0  0  0
   -1.0507    0.4892    3.8820 H   0  0  0  0  0  0  0  0  0  0  0  0
    2.2746    5.3664    3.4763 H   0  0  0  0  0  0  0  0  0  0  0  0
    0.8912    6.2372    3.0280 H   0  0  0  0  0  0  0  0  0  0  0  0
   -1.3641    5.3232    4.1896 H   0  0  0  0  0  0  0  0  0  0  0  0
   -2.8684    3.8121    2.7018 H   0  0  0  0  0  0  0  0  0  0  0  0
   -1.3621    2.9663    2.0882 H   0  0  0  0  0  0  0  0  0  0  0  0
   -2.3017    3.1465    4.9981 H   0  0  0  0  0  0  0  0  0  0  0  0
    1.2120    0.9856    7.5803 H   0  0  0  0  0  0  0  0  0  0  0  0
    2.0068    2.1208    6.5521 H   0  0  0  0  0  0  0  0  0  0  0  0
   -1.6506    4.4244    8.1265 H   0  0  0  0  0  0  0  0  0  0  0  0
  1  2  1  0
  1 28  1  0
  1 29  1  0
  1 30  1  0
  2  3  2  3
  2 31  1  0
  3  4  1  0
  3 32  1  0
  4  9  2  0
  4  5  1  0
  5  6  2  0
  5 33  1  0
  6  7  1  0
  6 34  1  0
  7 19  1  0
  7  8  2  0
  8  9  1  0
  8 10  1  0
  9 35  1  0
 11 10  1  6
 10 36  1  0
 10 37  1  0
 11 17  1  0
 11 12  1  0
 11 18  1  0
 12 13  2  0
 13 14  1  0
 13 15  1  0
 14 38  1  0
 14 39  1  0
 15 17  1  0
 15 16  1  0
 15 40  1  1
 16 17  1  0
 16 41  1  0
 16 42  1  0
 17 43  1  1
 18 26  1  0
 18 19  1  6
 18 20  1  0
 19 44  1  0
 19 45  1  0
 20 21  2  0
 20 22  1  0
 22 23  1  0
 22 46  1  0
 23 24  2  0
 23 25  1  0
 25 26  1  0
 26 27  2  0
M  CHG  1  25  -1
M  END
>  <i_m_ct_stereo_status>  (31) 
1

>  <s_m_source_file>  (31) 
/var/tmp/pbs.5076255.sched01/tmp6mrmgolx/06cp14zw5.sdf

>  <i_m_source_file_index>  (31) 
11

>  <i_lp_mmshare_version>  (31) 
48012

>  <i_f3d_flags>  (31) 
0

>  <s_epik_input>  (31) 
W0NIM10vW0NIXT1bQ0hdL2MoW2NIXVtjSF0xKVtjSF1jKFtDSDJdMiljMVtDSDJdQzMoW0NAXTI0W0NASF01W0NIXShbQ0gyXTUpQyg9TjQpW05IMl0pQyg9TylbTkhdQyg9TylbTkhdQzM9Tw==

>  <s_epik_cmdline>  (31) 
J2VwaWtfcHl0aG9uJywgJy1waHQnLCAnMi4wJywgJy1waCcsICc3LjAnLCAnLXRuJywgJzgnLCAnLW1hJywgJzIwMCcsICctaW1hZScsICc8aW5maWxlLm1hZT4nLCAnLW9tYWUnLCAnPG91dGZpbGUubWFlPic=

>  <r_epik_Ionization_Penalty>  (31) 
2.17434

>  <r_epik_Ionization_Penalty_Charging>  (31) 
0.724193

>  <r_epik_Ionization_Penalty_Neutral>  (31) 
1.45015

>  <r_epik_State_Penalty>  (31) 
2.23526

>  <r_epik_Charging_Adjusted_Penalty>  (31) 
2.95945

>  <i_epik_Tot_Q>  (31) 
-1

>  <i_epik_Tot_abs_Q>  (31) 
1

>  <s_epik_Chemistry_Notes>  (31) 
This compound has an imine and may undergo hydrolysis.

>  <s_lp_Force_Field>  (31) 
OPLS3e

>  <r_lp_Energy>  (31) 
30.6962

>  <b_lp_Chiralities_Consistent>  (31) 
1

>  <s_lp_Variant>  (31) 
1:0-9

>  <s_i_glide_gridfile>  (31) 
pfpi4k_grid

>  <i_i_glide_lignum>  (31) 
11

>  <i_i_glide_rotatable_bonds>  (31) 
1

>  <r_i_docking_score>  (31) 
-2.89665

>  <r_i_glide_ligand_efficiency>  (31) 
-0.107283

>  <r_i_glide_ligand_efficiency_sa>  (31) 
-0.32185

>  <r_i_glide_ligand_efficiency_ln>  (31) 
-0.674292

>  <r_i_glide_gscore>  (31) 
-2.89665

>  <r_i_glide_lipo>  (31) 
0

>  <r_i_glide_hbond>  (31) 
-0.289887

>  <r_i_glide_metal>  (31) 
-0

>  <r_i_glide_rewards>  (31) 
-1.07323

>  <r_i_glide_evdw>  (31) 
-22.0453

>  <r_i_glide_ecoul>  (31) 
-2.39528

>  <r_i_glide_erotb>  (31) 
0.145495

>  <r_i_glide_esite>  (31) 
-0.217473

>  <r_i_glide_emodel>  (31) 
-30.3384

>  <r_i_glide_energy>  (31) 
-24.4406

>  <r_i_glide_einternal>  (31) 
0.207595

>  <r_i_glide_intrahb_reward>  (31) 
-0

>  <i_i_glide_confnum>  (31) 
4

>  <i_i_glide_posenum>  (31) 
32

>  <r_i_glide_eff_state_penalty>  (31) 
0

>  <ligand_id>  (31) 
1

>  <original_smiles>  (31) 
CC=Cc1ccc2c(c1)CC1(N=C(N)C3CC31)C1(C2)C(=O)NC(=O)NC1=O

>  <smiles>  (31) 
[H]C(=C([H])C([H])([H])[H])c1c([H])c([H])c2c(c1[H])C([H])([H])C1(N=C(N([H])[H])C3([H])C([H])([H])C31[H])C1(C(=O)[N-]C(=O)N([H])C1=O)C2([H])[H]

$$$$
1:8:1
     RDKit          3D

 46 50  0  0  1  0  0  0  0  0999 V2000
   -2.1898    4.3381   10.9050 C   0  0  0  0  0  0  0  0  0  0  0  0
   -1.6388    3.3908    9.8702 C   0  0  0  0  0  0  0  0  0  0  0  0
   -2.0808    3.3186    8.6028 C   0  0  0  0  0  0  0  0  0  0  0  0
   -1.5508    2.4331    7.5571 C   0  0  0  0  0  0  0  0  0  0  0  0
   -2.1837    2.3946    6.2952 C   0  0  0  0  0  0  0  0  0  0  0  0
   -1.6804    1.5548    5.2791 C   0  0  0  0  0  0  0  0  0  0  0  0
   -0.5543    0.7401    5.5110 C   0  0  0  0  0  0  0  0  0  0  0  0
    0.0793    0.7763    6.7780 C   0  0  0  0  0  0  0  0  0  0  0  0
   -0.4193    1.6169    7.7866 C   0  0  0  0  0  0  0  0  0  0  0  0
    1.2672   -0.1120    7.1252 C   0  0  0  0  0  0  0  0  0  0  0  0
    1.9122   -0.7873    5.8898 C   0  0  1  0  0  0  0  0  0  0  0  0
    2.6882    0.2657    5.1936 N   0  0  0  0  0  0  0  0  0  0  0  0
    3.9229   -0.0469    5.1222 C   0  0  0  0  0  0  0  0  0  0  0  0
    4.9439    0.6524    4.5019 N   0  0  0  0  0  0  0  0  0  0  0  0
    4.2613   -1.3458    5.7844 C   0  0  1  0  0  0  0  0  0  0  0  0
    4.0958   -1.5816    7.2619 C   0  0  0  0  0  0  0  0  0  0  0  0
    2.9479   -1.8323    6.3158 C   0  0  1  0  0  0  0  0  0  0  0  0
    0.7988   -1.3833    4.9304 C   0  0  1  0  0  0  0  0  0  0  0  0
   -0.0845   -0.2012    4.4045 C   0  0  0  0  0  0  0  0  0  0  0  0
    1.4518   -2.1010    3.7080 C   0  0  0  0  0  0  0  0  0  0  0  0
    2.0056   -1.4433    2.8142 O   0  0  0  0  0  0  0  0  0  0  0  0
    1.4254   -3.4409    3.6470 N   0  0  0  0  0  0  0  0  0  0  0  0
    0.7727   -4.2772    4.4759 C   0  0  0  0  0  0  0  0  0  0  0  0
    0.8965   -5.4797    4.2639 O   0  0  0  0  0  0  0  0  0  0  0  0
    0.0127   -3.7456    5.4677 N   0  0  0  0  0  0  0  0  0  0  0  0
   -0.1550   -2.4127    5.6879 C   0  0  0  0  0  0  0  0  0  0  0  0
   -1.0101   -1.9748    6.4716 O   0  0  0  0  0  0  0  0  0  0  0  0
   -2.5842    3.7624   11.7433 H   0  0  0  0  0  0  0  0  0  0  0  0
   -2.9890    4.9470   10.4834 H   0  0  0  0  0  0  0  0  0  0  0  0
   -1.3984    4.9933   11.2677 H   0  0  0  0  0  0  0  0  0  0  0  0
   -0.8415    2.7590   10.2249 H   0  0  0  0  0  0  0  0  0  0  0  0
   -2.8868    3.9730    8.3019 H   0  0  0  0  0  0  0  0  0  0  0  0
   -3.0683    2.9924    6.1063 H   0  0  0  0  0  0  0  0  0  0  0  0
   -2.1990    1.5043    4.3312 H   0  0  0  0  0  0  0  0  0  0  0  0
    0.0797    1.5869    8.7495 H   0  0  0  0  0  0  0  0  0  0  0  0
    2.0034    0.4681    7.6875 H   0  0  0  0  0  0  0  0  0  0  0  0
    0.9213   -0.8740    7.8176 H   0  0  0  0  0  0  0  0  0  0  0  0
    4.7471    1.4961    3.9747 H   0  0  0  0  0  0  0  0  0  0  0  0
    5.8957    0.3322    4.4458 H   0  0  0  0  0  0  0  0  0  0  0  0
    4.8198   -2.0206    5.1429 H   0  0  0  0  0  0  0  0  0  0  0  0
    4.5604   -2.4673    7.6866 H   0  0  0  0  0  0  0  0  0  0  0  0
    4.0243   -0.7200    7.9231 H   0  0  0  0  0  0  0  0  0  0  0  0
    2.6920   -2.8796    6.1540 H   0  0  0  0  0  0  0  0  0  0  0  0
   -0.9700   -0.5603    3.8848 H   0  0  0  0  0  0  0  0  0  0  0  0
    0.4345    0.4131    3.6555 H   0  0  0  0  0  0  0  0  0  0  0  0
    1.9858   -3.8649    2.9262 H   0  0  0  0  0  0  0  0  0  0  0  0
  1  2  1  0
  1 28  1  0
  1 29  1  0
  1 30  1  0
  2  3  2  3
  2 31  1  0
  3  4  1  0
  3 32  1  0
  4  9  2  0
  4  5  1  0
  5  6  2  0
  5 33  1  0
  6  7  1  0
  6 34  1  0
  7 19  1  0
  7  8  2  0
  8  9  1  0
  8 10  1  0
  9 35  1  0
 11 10  1  1
 10 36  1  0
 10 37  1  0
 11 17  1  0
 11 12  1  0
 11 18  1  0
 12 13  2  0
 13 14  1  0
 13 15  1  0
 14 38  1  0
 14 39  1  0
 15 17  1  0
 15 16  1  0
 15 40  1  6
 16 17  1  0
 16 41  1  0
 16 42  1  0
 17 43  1  6
 18 26  1  0
 18 19  1  6
 18 20  1  0
 19 44  1  0
 19 45  1  0
 20 21  2  0
 20 22  1  0
 22 23  1  0
 22 46  1  0
 23 24  2  0
 23 25  1  0
 25 26  1  0
 26 27  2  0
M  CHG  1  25  -1
M  END
>  <i_m_ct_stereo_status>  (32) 
1

>  <s_m_source_file>  (32) 
/var/tmp/pbs.5076255.sched01/tmp6mrmgolx/06cp14zw5.sdf

>  <i_m_source_file_index>  (32) 
11

>  <i_lp_mmshare_version>  (32) 
48012

>  <i_f3d_flags>  (32) 
0

>  <s_epik_input>  (32) 
W0NIM10vW0NIXT1bQ0hdL2MoW2NIXVtjSF0xKVtjSF1jKFtDSDJdMiljMVtDSDJdQzMoW0NAXTI0W0NASF01W0NIXShbQ0gyXTUpQyg9TjQpW05IMl0pQyg9TylbTkhdQyg9TylbTkhdQzM9Tw==

>  <s_epik_cmdline>  (32) 
J2VwaWtfcHl0aG9uJywgJy1waHQnLCAnMi4wJywgJy1waCcsICc3LjAnLCAnLXRuJywgJzgnLCAnLW1hJywgJzIwMCcsICctaW1hZScsICc8aW5maWxlLm1hZT4nLCAnLW9tYWUnLCAnPG91dGZpbGUubWFlPic=

>  <r_epik_Ionization_Penalty>  (32) 
2.17434

>  <r_epik_Ionization_Penalty_Charging>  (32) 
0.724193

>  <r_epik_Ionization_Penalty_Neutral>  (32) 
1.45015

>  <r_epik_State_Penalty>  (32) 
2.23526

>  <r_epik_Charging_Adjusted_Penalty>  (32) 
2.95945

>  <i_epik_Tot_Q>  (32) 
-1

>  <i_epik_Tot_abs_Q>  (32) 
1

>  <s_epik_Chemistry_Notes>  (32) 
This compound has an imine and may undergo hydrolysis.

>  <s_lp_Force_Field>  (32) 
OPLS3e

>  <r_lp_Energy>  (32) 
30.6962

>  <b_lp_Chiralities_Consistent>  (32) 
1

>  <s_lp_Variant>  (32) 
1:0-9

>  <s_i_glide_gridfile>  (32) 
pfpi4k_grid

>  <i_i_glide_lignum>  (32) 
11

>  <i_i_glide_rotatable_bonds>  (32) 
1

>  <r_i_docking_score>  (32) 
-2.70459

>  <r_i_glide_ligand_efficiency>  (32) 
-0.10017

>  <r_i_glide_ligand_efficiency_sa>  (32) 
-0.300509

>  <r_i_glide_ligand_efficiency_ln>  (32) 
-0.629583

>  <r_i_glide_gscore>  (32) 
-2.70459

>  <r_i_glide_lipo>  (32) 
-0.0682419

>  <r_i_glide_hbond>  (32) 
-0.042339

>  <r_i_glide_metal>  (32) 
-0

>  <r_i_glide_rewards>  (32) 
-0.961693

>  <r_i_glide_evdw>  (32) 
-19.4236

>  <r_i_glide_ecoul>  (32) 
-5.24681

>  <r_i_glide_erotb>  (32) 
0.145495

>  <r_i_glide_esite>  (32) 
-0.0196016

>  <r_i_glide_emodel>  (32) 
-30.4216

>  <r_i_glide_energy>  (32) 
-24.6705

>  <r_i_glide_einternal>  (32) 
0.0570579

>  <r_i_glide_intrahb_reward>  (32) 
-0

>  <i_i_glide_confnum>  (32) 
3

>  <i_i_glide_posenum>  (32) 
16

>  <r_i_glide_eff_state_penalty>  (32) 
0

>  <ligand_id>  (32) 
1

>  <original_smiles>  (32) 
CC=Cc1ccc2c(c1)CC1(N=C(N)C3CC31)C1(C2)C(=O)NC(=O)NC1=O

>  <smiles>  (32) 
[H]C(=C([H])C([H])([H])[H])c1c([H])c([H])c2c(c1[H])C([H])([H])C1(N=C(N([H])[H])C3([H])C([H])([H])C31[H])C1(C(=O)[N-]C(=O)N([H])C1=O)C2([H])[H]

$$$$
1:8:2
     RDKit          3D

 46 50  0  0  1  0  0  0  0  0999 V2000
   -2.8497    3.7483   10.8146 C   0  0  0  0  0  0  0  0  0  0  0  0
   -2.5444    2.9528    9.5722 C   0  0  0  0  0  0  0  0  0  0  0  0
   -1.4182    2.2455    9.3929 C   0  0  0  0  0  0  0  0  0  0  0  0
   -1.0727    1.4946    8.1799 C   0  0  0  0  0  0  0  0  0  0  0  0
   -1.8775    1.5368    7.0165 C   0  0  0  0  0  0  0  0  0  0  0  0
   -1.5088    0.8013    5.8774 C   0  0  0  0  0  0  0  0  0  0  0  0
   -0.3449    0.0119    5.8812 C   0  0  0  0  0  0  0  0  0  0  0  0
    0.4647   -0.0401    7.0463 C   0  0  0  0  0  0  0  0  0  0  0  0
    0.0942    0.7013    8.1844 C   0  0  0  0  0  0  0  0  0  0  0  0
    1.7047   -0.9244    7.1371 C   0  0  0  0  0  0  0  0  0  0  0  0
    2.1740   -1.4672    5.7643 C   0  0  1  0  0  0  0  0  0  0  0  0
    2.8222   -0.3327    5.0648 N   0  0  0  0  0  0  0  0  0  0  0  0
    4.0411   -0.5996    4.7828 C   0  0  0  0  0  0  0  0  0  0  0  0
    4.9500    0.1842    4.0934 N   0  0  0  0  0  0  0  0  0  0  0  0
    4.4916   -1.9433    5.2615 C   0  0  1  0  0  0  0  0  0  0  0  0
    4.5500   -2.3173    6.7183 C   0  0  0  0  0  0  0  0  0  0  0  0
    3.2790   -2.5145    5.9318 C   0  0  1  0  0  0  0  0  0  0  0  0
    0.9415   -2.0081    4.9238 C   0  0  1  0  0  0  0  0  0  0  0  0
   -0.0226   -0.8110    4.6390 C   0  0  0  0  0  0  0  0  0  0  0  0
    1.4236   -2.5933    3.5647 C   0  0  0  0  0  0  0  0  0  0  0  0
    1.8246   -1.8409    2.6655 O   0  0  0  0  0  0  0  0  0  0  0  0
    1.4185   -3.9185    3.3805 N   0  0  0  0  0  0  0  0  0  0  0  0
    0.8975   -4.8450    4.2084 C   0  0  0  0  0  0  0  0  0  0  0  0
    1.0104   -6.0163    3.8625 O   0  0  0  0  0  0  0  0  0  0  0  0
    0.2621   -4.4304    5.3321 N   0  0  0  0  0  0  0  0  0  0  0  0
    0.1041   -3.1267    5.6982 C   0  0  0  0  0  0  0  0  0  0  0  0
   -0.6699   -2.7801    6.6033 O   0  0  0  0  0  0  0  0  0  0  0  0
   -2.9864    4.7958   10.5492 H   0  0  0  0  0  0  0  0  0  0  0  0
   -2.0433    3.6655   11.5450 H   0  0  0  0  0  0  0  0  0  0  0  0
   -3.7670    3.3687   11.2667 H   0  0  0  0  0  0  0  0  0  0  0  0
   -3.3055    2.9915    8.8112 H   0  0  0  0  0  0  0  0  0  0  0  0
   -0.6881    2.2331   10.1930 H   0  0  0  0  0  0  0  0  0  0  0  0
   -2.7920    2.1169    6.9704 H   0  0  0  0  0  0  0  0  0  0  0  0
   -2.1522    0.8144    5.0082 H   0  0  0  0  0  0  0  0  0  0  0  0
    0.6978    0.6230    9.0845 H   0  0  0  0  0  0  0  0  0  0  0  0
    2.5079   -0.3779    7.6405 H   0  0  0  0  0  0  0  0  0  0  0  0
    1.4730   -1.7596    7.7934 H   0  0  0  0  0  0  0  0  0  0  0  0
    4.6692    1.0703    3.6891 H   0  0  0  0  0  0  0  0  0  0  0  0
    5.8890   -0.1011    3.8655 H   0  0  0  0  0  0  0  0  0  0  0  0
    4.9643   -2.5411    4.4864 H   0  0  0  0  0  0  0  0  0  0  0  0
    5.0849   -3.2242    6.9867 H   0  0  0  0  0  0  0  0  0  0  0  0
    4.5606   -1.5229    7.4616 H   0  0  0  0  0  0  0  0  0  0  0  0
    3.0214   -3.5492    5.7091 H   0  0  0  0  0  0  0  0  0  0  0  0
   -0.9654   -1.1521    4.2169 H   0  0  0  0  0  0  0  0  0  0  0  0
    0.3726   -0.1196    3.8839 H   0  0  0  0  0  0  0  0  0  0  0  0
    1.8778   -4.2582    2.5531 H   0  0  0  0  0  0  0  0  0  0  0  0
  1  2  1  0
  1 28  1  0
  1 29  1  0
  1 30  1  0
  2  3  2  3
  2 31  1  0
  3  4  1  0
  3 32  1  0
  4  9  2  0
  4  5  1  0
  5  6  2  0
  5 33  1  0
  6  7  1  0
  6 34  1  0
  7 19  1  0
  7  8  2  0
  8  9  1  0
  8 10  1  0
  9 35  1  0
 11 10  1  1
 10 36  1  0
 10 37  1  0
 11 17  1  0
 11 12  1  0
 11 18  1  0
 12 13  2  0
 13 14  1  0
 13 15  1  0
 14 38  1  0
 14 39  1  0
 15 17  1  0
 15 16  1  0
 15 40  1  6
 16 17  1  0
 16 41  1  0
 16 42  1  0
 17 43  1  6
 18 26  1  0
 18 19  1  6
 18 20  1  0
 19 44  1  0
 19 45  1  0
 20 21  2  0
 20 22  1  0
 22 23  1  0
 22 46  1  0
 23 24  2  0
 23 25  1  0
 25 26  1  0
 26 27  2  0
M  CHG  1  25  -1
M  END
>  <i_m_ct_stereo_status>  (33) 
1

>  <s_m_source_file>  (33) 
/var/tmp/pbs.5076255.sched01/tmp6mrmgolx/06cp14zw5.sdf

>  <i_m_source_file_index>  (33) 
11

>  <i_lp_mmshare_version>  (33) 
48012

>  <i_f3d_flags>  (33) 
0

>  <s_epik_input>  (33) 
W0NIM10vW0NIXT1bQ0hdL2MoW2NIXVtjSF0xKVtjSF1jKFtDSDJdMiljMVtDSDJdQzMoW0NAXTI0W0NASF01W0NIXShbQ0gyXTUpQyg9TjQpW05IMl0pQyg9TylbTkhdQyg9TylbTkhdQzM9Tw==

>  <s_epik_cmdline>  (33) 
J2VwaWtfcHl0aG9uJywgJy1waHQnLCAnMi4wJywgJy1waCcsICc3LjAnLCAnLXRuJywgJzgnLCAnLW1hJywgJzIwMCcsICctaW1hZScsICc8aW5maWxlLm1hZT4nLCAnLW9tYWUnLCAnPG91dGZpbGUubWFlPic=

>  <r_epik_Ionization_Penalty>  (33) 
2.17434

>  <r_epik_Ionization_Penalty_Charging>  (33) 
0.724193

>  <r_epik_Ionization_Penalty_Neutral>  (33) 
1.45015

>  <r_epik_State_Penalty>  (33) 
2.23526

>  <r_epik_Charging_Adjusted_Penalty>  (33) 
2.95945

>  <i_epik_Tot_Q>  (33) 
-1

>  <i_epik_Tot_abs_Q>  (33) 
1

>  <s_epik_Chemistry_Notes>  (33) 
This compound has an imine and may undergo hydrolysis.

>  <s_lp_Force_Field>  (33) 
OPLS3e

>  <r_lp_Energy>  (33) 
30.6962

>  <b_lp_Chiralities_Consistent>  (33) 
1

>  <s_lp_Variant>  (33) 
1:0-9

>  <s_i_glide_gridfile>  (33) 
pfpi4k_grid

>  <i_i_glide_lignum>  (33) 
11

>  <i_i_glide_rotatable_bonds>  (33) 
1

>  <r_i_docking_score>  (33) 
-2.56056

>  <r_i_glide_ligand_efficiency>  (33) 
-0.0948356

>  <r_i_glide_ligand_efficiency_sa>  (33) 
-0.284507

>  <r_i_glide_ligand_efficiency_ln>  (33) 
-0.596056

>  <r_i_glide_gscore>  (33) 
-2.56056

>  <r_i_glide_lipo>  (33) 
-0.0127528

>  <r_i_glide_hbond>  (33) 
-0.0040033

>  <r_i_glide_metal>  (33) 
-0

>  <r_i_glide_rewards>  (33) 
-0.986762

>  <r_i_glide_evdw>  (33) 
-20.4382

>  <r_i_glide_ecoul>  (33) 
-4.42105

>  <r_i_glide_erotb>  (33) 
0.145495

>  <r_i_glide_esite>  (33) 
-0.0174707

>  <r_i_glide_emodel>  (33) 
-30.2891

>  <r_i_glide_energy>  (33) 
-24.8592

>  <r_i_glide_einternal>  (33) 
0.033152

>  <r_i_glide_intrahb_reward>  (33) 
-0

>  <i_i_glide_confnum>  (33) 
3

>  <i_i_glide_posenum>  (33) 
2

>  <r_i_glide_eff_state_penalty>  (33) 
0

>  <ligand_id>  (33) 
1

>  <original_smiles>  (33) 
CC=Cc1ccc2c(c1)CC1(N=C(N)C3CC31)C1(C2)C(=O)NC(=O)NC1=O

>  <smiles>  (33) 
[H]C(=C([H])C([H])([H])[H])c1c([H])c([H])c2c(c1[H])C([H])([H])C1(N=C(N([H])[H])C3([H])C([H])([H])C31[H])C1(C(=O)[N-]C(=O)N([H])C1=O)C2([H])[H]

$$$$
1:9:0
     RDKit          3D

 46 50  0  0  1  0  0  0  0  0999 V2000
   -1.2695   -8.7772    2.8868 C   0  0  0  0  0  0  0  0  0  0  0  0
   -1.0766   -7.7703    4.0094 C   0  0  0  0  0  0  0  0  0  0  0  0
   -0.1838   -6.7612    4.0775 C   0  0  0  0  0  0  0  0  0  0  0  0
    0.8892   -6.4388    3.1253 C   0  0  0  0  0  0  0  0  0  0  0  0
    1.5467   -7.4405    2.3797 C   0  0  0  0  0  0  0  0  0  0  0  0
    2.5365   -7.1036    1.4493 C   0  0  0  0  0  0  0  0  0  0  0  0
    2.9016   -5.7639    1.2498 C   0  0  0  0  0  0  0  0  0  0  0  0
    2.2682   -4.7476    2.0077 C   0  0  0  0  0  0  0  0  0  0  0  0
    1.2670   -5.0908    2.9377 C   0  0  0  0  0  0  0  0  0  0  0  0
    2.6210   -3.2797    1.8200 C   0  0  0  0  0  0  0  0  0  0  0  0
    3.9658   -3.0634    1.0865 C   0  0  1  0  0  0  0  0  0  0  0  0
    4.0327   -1.6493    0.6849 N   0  0  0  0  0  0  0  0  0  0  0  0
    5.0967   -1.1054    1.1519 C   0  0  0  0  0  0  0  0  0  0  0  0
    5.5941    0.1418    0.8862 N   0  0  0  0  0  0  0  0  0  0  0  0
    5.8731   -1.9822    2.0807 C   0  0  1  0  0  0  0  0  0  0  0  0
    5.2885   -2.5112    3.3726 C   0  0  0  0  0  0  0  0  0  0  0  0
    5.1201   -3.2626    2.0766 C   0  0  1  0  0  0  0  0  0  0  0  0
    4.1211   -3.9762   -0.1893 C   0  0  1  0  0  0  0  0  0  0  0  0
    3.9940   -5.4723    0.2365 C   0  0  0  0  0  0  0  0  0  0  0  0
    2.9824   -3.6258   -1.2141 C   0  0  0  0  0  0  0  0  0  0  0  0
    1.8102   -3.9631   -1.0019 O   0  0  0  0  0  0  0  0  0  0  0  0
    3.2883   -2.9685   -2.3383 N   0  0  0  0  0  0  0  0  0  0  0  0
    4.5223   -2.6729   -2.7698 C   0  0  0  0  0  0  0  0  0  0  0  0
    4.6126   -2.0258   -3.8158 O   0  0  0  0  0  0  0  0  0  0  0  0
    5.6033   -3.1074   -2.0723 N   0  0  0  0  0  0  0  0  0  0  0  0
    5.5308   -3.7943   -0.8924 C   0  0  0  0  0  0  0  0  0  0  0  0
    6.5246   -4.2581   -0.3170 O   0  0  0  0  0  0  0  0  0  0  0  0
   -2.3301   -8.8856    2.6658 H   0  0  0  0  0  0  0  0  0  0  0  0
   -0.8891   -9.7515    3.1972 H   0  0  0  0  0  0  0  0  0  0  0  0
   -0.7877   -8.4944    1.9514 H   0  0  0  0  0  0  0  0  0  0  0  0
   -1.7461   -7.9032    4.8453 H   0  0  0  0  0  0  0  0  0  0  0  0
   -0.2171   -6.1217    4.9488 H   0  0  0  0  0  0  0  0  0  0  0  0
    1.3211   -8.4885    2.5165 H   0  0  0  0  0  0  0  0  0  0  0  0
    3.0264   -7.8832    0.8872 H   0  0  0  0  0  0  0  0  0  0  0  0
    0.7665   -4.3033    3.4910 H   0  0  0  0  0  0  0  0  0  0  0  0
    1.8138   -2.7987    1.2646 H   0  0  0  0  0  0  0  0  0  0  0  0
    2.6052   -2.7721    2.7821 H   0  0  0  0  0  0  0  0  0  0  0  0
    5.1641    0.7835    0.2331 H   0  0  0  0  0  0  0  0  0  0  0  0
    6.4882    0.4588    1.2469 H   0  0  0  0  0  0  0  0  0  0  0  0
    6.9226   -2.0610    1.8074 H   0  0  0  0  0  0  0  0  0  0  0  0
    5.9227   -3.0128    4.0849 H   0  0  0  0  0  0  0  0  0  0  0  0
    4.4114   -2.0236    3.7894 H   0  0  0  0  0  0  0  0  0  0  0  0
    5.6736   -4.1991    2.0303 H   0  0  0  0  0  0  0  0  0  0  0  0
    4.8999   -5.8663    0.7110 H   0  0  0  0  0  0  0  0  0  0  0  0
    3.8531   -6.1136   -0.6342 H   0  0  0  0  0  0  0  0  0  0  0  0
    2.5113   -2.6699   -2.9000 H   0  0  0  0  0  0  0  0  0  0  0  0
  1  2  1  0
  1 28  1  0
  1 29  1  0
  1 30  1  0
  2  3  2  3
  2 31  1  0
  3  4  1  0
  3 32  1  0
  4  9  2  0
  4  5  1  0
  5  6  2  0
  5 33  1  0
  6  7  1  0
  6 34  1  0
  7 19  1  0
  7  8  2  0
  8  9  1  0
  8 10  1  0
  9 35  1  0
 11 10  1  1
 10 36  1  0
 10 37  1  0
 11 17  1  0
 11 12  1  0
 11 18  1  0
 12 13  2  0
 13 14  1  0
 13 15  1  0
 14 38  1  0
 14 39  1  0
 15 17  1  0
 15 16  1  0
 15 40  1  1
 16 17  1  0
 16 41  1  0
 16 42  1  0
 17 43  1  1
 18 26  1  0
 18 19  1  1
 18 20  1  0
 19 44  1  0
 19 45  1  0
 20 21  2  0
 20 22  1  0
 22 23  1  0
 22 46  1  0
 23 24  2  0
 23 25  1  0
 25 26  1  0
 26 27  2  0
M  CHG  1  25  -1
M  END
>  <i_m_ct_stereo_status>  (34) 
1

>  <s_m_source_file>  (34) 
/var/tmp/pbs.5076255.sched01/tmp6mrmgolx/06cp14zw5.sdf

>  <i_m_source_file_index>  (34) 
12

>  <i_lp_mmshare_version>  (34) 
48012

>  <i_f3d_flags>  (34) 
0

>  <s_epik_input>  (34) 
W0NIM10vW0NIXT1bQ0hdL2MoW2NIXVtjSF0xKVtjSF1jKFtDSDJdMiljMVtDSDJdQzMoW0NAXTI0W0NASF01W0NIXShbQ0gyXTUpQyg9TjQpW05IMl0pQyg9TylbTkhdQyg9TylbTkhdQzM9Tw==

>  <s_epik_cmdline>  (34) 
J2VwaWtfcHl0aG9uJywgJy1waHQnLCAnMi4wJywgJy1waCcsICc3LjAnLCAnLXRuJywgJzgnLCAnLW1hJywgJzIwMCcsICctaW1hZScsICc8aW5maWxlLm1hZT4nLCAnLW9tYWUnLCAnPG91dGZpbGUubWFlPic=

>  <r_epik_Ionization_Penalty>  (34) 
2.17434

>  <r_epik_Ionization_Penalty_Charging>  (34) 
0.724193

>  <r_epik_Ionization_Penalty_Neutral>  (34) 
1.45015

>  <r_epik_State_Penalty>  (34) 
2.23526

>  <r_epik_Charging_Adjusted_Penalty>  (34) 
2.95945

>  <i_epik_Tot_Q>  (34) 
-1

>  <i_epik_Tot_abs_Q>  (34) 
1

>  <s_epik_Chemistry_Notes>  (34) 
This compound has an imine and may undergo hydrolysis.

>  <s_lp_Force_Field>  (34) 
OPLS3e

>  <r_lp_Energy>  (34) 
32.8523

>  <b_lp_Chiralities_Consistent>  (34) 
1

>  <s_lp_Variant>  (34) 
1:0-10

>  <s_i_glide_gridfile>  (34) 
pfpi4k_grid

>  <i_i_glide_lignum>  (34) 
12

>  <i_i_glide_rotatable_bonds>  (34) 
1

>  <r_i_docking_score>  (34) 
-4.58526

>  <r_i_glide_ligand_efficiency>  (34) 
-0.169825

>  <r_i_glide_ligand_efficiency_sa>  (34) 
-0.509474

>  <r_i_glide_ligand_efficiency_ln>  (34) 
-1.06737

>  <r_i_glide_gscore>  (34) 
-4.58526

>  <r_i_glide_lipo>  (34) 
-0.185689

>  <r_i_glide_hbond>  (34) 
-0.606984

>  <r_i_glide_metal>  (34) 
-0

>  <r_i_glide_rewards>  (34) 
-1.34384

>  <r_i_glide_evdw>  (34) 
-21.7762

>  <r_i_glide_ecoul>  (34) 
-9.85025

>  <r_i_glide_erotb>  (34) 
0.145495

>  <r_i_glide_esite>  (34) 
-0.0278946

>  <r_i_glide_emodel>  (34) 
-41.6659

>  <r_i_glide_energy>  (34) 
-31.6265

>  <r_i_glide_einternal>  (34) 
0.152735

>  <r_i_glide_intrahb_reward>  (34) 
-0

>  <i_i_glide_confnum>  (34) 
1

>  <i_i_glide_posenum>  (34) 
36

>  <r_i_glide_eff_state_penalty>  (34) 
0

>  <ligand_id>  (34) 
1

>  <original_smiles>  (34) 
CC=Cc1ccc2c(c1)CC1(N=C(N)C3CC31)C1(C2)C(=O)NC(=O)NC1=O

>  <smiles>  (34) 
[H]C(=C([H])C([H])([H])[H])c1c([H])c([H])c2c(c1[H])C([H])([H])C1(N=C(N([H])[H])C3([H])C([H])([H])C31[H])C1(C(=O)[N-]C(=O)N([H])C1=O)C2([H])[H]

$$$$
1:9:1
     RDKit          3D

 46 50  0  0  1  0  0  0  0  0999 V2000
    0.1037   -4.9635    5.7385 C   0  0  0  0  0  0  0  0  0  0  0  0
   -0.4687   -6.2402    5.1445 C   0  0  0  0  0  0  0  0  0  0  0  0
   -0.0721   -6.9106    4.0443 C   0  0  0  0  0  0  0  0  0  0  0  0
    0.9634   -6.5314    3.0755 C   0  0  0  0  0  0  0  0  0  0  0  0
    1.6449   -7.5374    2.3539 C   0  0  0  0  0  0  0  0  0  0  0  0
    2.6563   -7.1911    1.4406 C   0  0  0  0  0  0  0  0  0  0  0  0
    2.9994   -5.8427    1.2293 C   0  0  0  0  0  0  0  0  0  0  0  0
    2.3289   -4.8329    1.9617 C   0  0  0  0  0  0  0  0  0  0  0  0
    1.3152   -5.1825    2.8615 C   0  0  0  0  0  0  0  0  0  0  0  0
    2.6454   -3.3577    1.7938 C   0  0  0  0  0  0  0  0  0  0  0  0
    3.9857   -3.0989    1.0696 C   0  0  1  0  0  0  0  0  0  0  0  0
    4.0165   -1.6860    0.6677 N   0  0  0  0  0  0  0  0  0  0  0  0
    5.0616   -1.1177    1.1493 C   0  0  0  0  0  0  0  0  0  0  0  0
    5.5204    0.1501    0.8977 N   0  0  0  0  0  0  0  0  0  0  0  0
    5.8564   -1.9756    2.0728 C   0  0  1  0  0  0  0  0  0  0  0  0
    5.2823   -2.5269    3.3605 C   0  0  0  0  0  0  0  0  0  0  0  0
    5.1355   -3.2785    2.0636 C   0  0  1  0  0  0  0  0  0  0  0  0
    4.1626   -4.0117   -0.1978 C   0  0  1  0  0  0  0  0  0  0  0  0
    4.0818   -5.5145    0.2158 C   0  0  0  0  0  0  0  0  0  0  0  0
    3.0083   -3.6802   -1.2171 C   0  0  0  0  0  0  0  0  0  0  0  0
    1.8402   -4.0307   -1.0008 O   0  0  0  0  0  0  0  0  0  0  0  0
    3.3060   -3.0185   -2.3452 N   0  0  0  0  0  0  0  0  0  0  0  0
    4.5393   -2.6965   -2.7716 C   0  0  0  0  0  0  0  0  0  0  0  0
    4.6169   -2.0465   -3.8145 O   0  0  0  0  0  0  0  0  0  0  0  0
    5.6224   -3.1052   -2.0710 N   0  0  0  0  0  0  0  0  0  0  0  0
    5.5695   -3.7874   -0.8948 C   0  0  0  0  0  0  0  0  0  0  0  0
    6.5690   -4.2344   -0.3178 O   0  0  0  0  0  0  0  0  0  0  0  0
    0.1996   -5.0704    6.8176 H   0  0  0  0  0  0  0  0  0  0  0  0
   -0.5623   -4.1252    5.5405 H   0  0  0  0  0  0  0  0  0  0  0  0
    1.0978   -4.7078    5.3685 H   0  0  0  0  0  0  0  0  0  0  0  0
   -1.3004   -6.6522    5.6757 H   0  0  0  0  0  0  0  0  0  0  0  0
   -0.5815   -7.8365    3.8124 H   0  0  0  0  0  0  0  0  0  0  0  0
    1.3907   -8.5831    2.4870 H   0  0  0  0  0  0  0  0  0  0  0  0
    3.1699   -7.9709    0.8965 H   0  0  0  0  0  0  0  0  0  0  0  0
    0.7767   -4.3763    3.3436 H   0  0  0  0  0  0  0  0  0  0  0  0
    1.8238   -2.8956    1.2456 H   0  0  0  0  0  0  0  0  0  0  0  0
    2.6161   -2.8594    2.7605 H   0  0  0  0  0  0  0  0  0  0  0  0
    5.0751    0.7774    0.2358 H   0  0  0  0  0  0  0  0  0  0  0  0
    6.4187    0.4729    1.2466 H   0  0  0  0  0  0  0  0  0  0  0  0
    6.9089   -2.0236    1.8066 H   0  0  0  0  0  0  0  0  0  0  0  0
    5.9330   -3.0079    4.0784 H   0  0  0  0  0  0  0  0  0  0  0  0
    4.3925   -2.0608    3.7798 H   0  0  0  0  0  0  0  0  0  0  0  0
    5.7129   -4.2017    2.0057 H   0  0  0  0  0  0  0  0  0  0  0  0
    5.0034   -5.8710    0.6891 H   0  0  0  0  0  0  0  0  0  0  0  0
    3.9577   -6.1536   -0.6605 H   0  0  0  0  0  0  0  0  0  0  0  0
    2.5261   -2.7415   -2.9081 H   0  0  0  0  0  0  0  0  0  0  0  0
  1  2  1  0
  1 28  1  0
  1 29  1  0
  1 30  1  0
  2  3  2  3
  2 31  1  0
  3  4  1  0
  3 32  1  0
  4  9  2  0
  4  5  1  0
  5  6  2  0
  5 33  1  0
  6  7  1  0
  6 34  1  0
  7 19  1  0
  7  8  2  0
  8  9  1  0
  8 10  1  0
  9 35  1  0
 11 10  1  1
 10 36  1  0
 10 37  1  0
 11 17  1  0
 11 12  1  0
 11 18  1  0
 12 13  2  0
 13 14  1  0
 13 15  1  0
 14 38  1  0
 14 39  1  0
 15 17  1  0
 15 16  1  0
 15 40  1  1
 16 17  1  0
 16 41  1  0
 16 42  1  0
 17 43  1  1
 18 26  1  0
 18 19  1  1
 18 20  1  0
 19 44  1  0
 19 45  1  0
 20 21  2  0
 20 22  1  0
 22 23  1  0
 22 46  1  0
 23 24  2  0
 23 25  1  0
 25 26  1  0
 26 27  2  0
M  CHG  1  25  -1
M  END
>  <i_m_ct_stereo_status>  (35) 
1

>  <s_m_source_file>  (35) 
/var/tmp/pbs.5076255.sched01/tmp6mrmgolx/06cp14zw5.sdf

>  <i_m_source_file_index>  (35) 
12

>  <i_lp_mmshare_version>  (35) 
48012

>  <i_f3d_flags>  (35) 
0

>  <s_epik_input>  (35) 
W0NIM10vW0NIXT1bQ0hdL2MoW2NIXVtjSF0xKVtjSF1jKFtDSDJdMiljMVtDSDJdQzMoW0NAXTI0W0NASF01W0NIXShbQ0gyXTUpQyg9TjQpW05IMl0pQyg9TylbTkhdQyg9TylbTkhdQzM9Tw==

>  <s_epik_cmdline>  (35) 
J2VwaWtfcHl0aG9uJywgJy1waHQnLCAnMi4wJywgJy1waCcsICc3LjAnLCAnLXRuJywgJzgnLCAnLW1hJywgJzIwMCcsICctaW1hZScsICc8aW5maWxlLm1hZT4nLCAnLW9tYWUnLCAnPG91dGZpbGUubWFlPic=

>  <r_epik_Ionization_Penalty>  (35) 
2.17434

>  <r_epik_Ionization_Penalty_Charging>  (35) 
0.724193

>  <r_epik_Ionization_Penalty_Neutral>  (35) 
1.45015

>  <r_epik_State_Penalty>  (35) 
2.23526

>  <r_epik_Charging_Adjusted_Penalty>  (35) 
2.95945

>  <i_epik_Tot_Q>  (35) 
-1

>  <i_epik_Tot_abs_Q>  (35) 
1

>  <s_epik_Chemistry_Notes>  (35) 
This compound has an imine and may undergo hydrolysis.

>  <s_lp_Force_Field>  (35) 
OPLS3e

>  <r_lp_Energy>  (35) 
32.8523

>  <b_lp_Chiralities_Consistent>  (35) 
1

>  <s_lp_Variant>  (35) 
1:0-10

>  <s_i_glide_gridfile>  (35) 
pfpi4k_grid

>  <i_i_glide_lignum>  (35) 
12

>  <i_i_glide_rotatable_bonds>  (35) 
1

>  <r_i_docking_score>  (35) 
-4.26808

>  <r_i_glide_ligand_efficiency>  (35) 
-0.158077

>  <r_i_glide_ligand_efficiency_sa>  (35) 
-0.474232

>  <r_i_glide_ligand_efficiency_ln>  (35) 
-0.99354

>  <r_i_glide_gscore>  (35) 
-4.26808

>  <r_i_glide_lipo>  (35) 
-0.203794

>  <r_i_glide_hbond>  (35) 
-0.585611

>  <r_i_glide_metal>  (35) 
-0

>  <r_i_glide_rewards>  (35) 
-1.3258

>  <r_i_glide_evdw>  (35) 
-18.4602

>  <r_i_glide_ecoul>  (35) 
-8.98751

>  <r_i_glide_erotb>  (35) 
0.145495

>  <r_i_glide_esite>  (35) 
-0.0272337

>  <r_i_glide_emodel>  (35) 
-36.6606

>  <r_i_glide_energy>  (35) 
-27.4477

>  <r_i_glide_einternal>  (35) 
0.0303932

>  <r_i_glide_intrahb_reward>  (35) 
-0

>  <i_i_glide_confnum>  (35) 
3

>  <i_i_glide_posenum>  (35) 
39

>  <r_i_glide_eff_state_penalty>  (35) 
0

>  <ligand_id>  (35) 
1

>  <original_smiles>  (35) 
CC=Cc1ccc2c(c1)CC1(N=C(N)C3CC31)C1(C2)C(=O)NC(=O)NC1=O

>  <smiles>  (35) 
[H]C(=C([H])C([H])([H])[H])c1c([H])c([H])c2c(c1[H])C([H])([H])C1(N=C(N([H])[H])C3([H])C([H])([H])C31[H])C1(C(=O)[N-]C(=O)N([H])C1=O)C2([H])[H]

$$$$
1:9:2
     RDKit          3D

 46 50  0  0  1  0  0  0  0  0999 V2000
    8.3412   -5.8468    1.9740 C   0  0  0  0  0  0  0  0  0  0  0  0
    8.0511   -4.6146    1.1329 C   0  0  0  0  0  0  0  0  0  0  0  0
    6.8886   -3.9414    1.0039 C   0  0  0  0  0  0  0  0  0  0  0  0
    5.5733   -4.2655    1.5765 C   0  0  0  0  0  0  0  0  0  0  0  0
    4.6591   -3.2230    1.8555 C   0  0  0  0  0  0  0  0  0  0  0  0
    3.4039   -3.5117    2.4218 C   0  0  0  0  0  0  0  0  0  0  0  0
    3.0554   -4.8358    2.7406 C   0  0  0  0  0  0  0  0  0  0  0  0
    3.9728   -5.8820    2.4764 C   0  0  0  0  0  0  0  0  0  0  0  0
    5.2072   -5.5948    1.8760 C   0  0  0  0  0  0  0  0  0  0  0  0
    3.6637   -7.3328    2.8050 C   0  0  0  0  0  0  0  0  0  0  0  0
    2.4594   -7.5107    3.7723 C   0  0  1  0  0  0  0  0  0  0  0  0
    2.0451   -8.9205    3.7373 N   0  0  0  0  0  0  0  0  0  0  0  0
    2.0786   -9.4281    4.9197 C   0  0  0  0  0  0  0  0  0  0  0  0
    1.6726  -10.6889    5.3004 N   0  0  0  0  0  0  0  0  0  0  0  0
    2.6210   -8.5044    5.9662 C   0  0  1  0  0  0  0  0  0  0  0  0
    4.0342   -7.9752    5.9277 C   0  0  0  0  0  0  0  0  0  0  0  0
    2.9199   -7.2471    5.2155 C   0  0  1  0  0  0  0  0  0  0  0  0
    1.2461   -6.5853    3.3634 C   0  0  1  0  0  0  0  0  0  0  0  0
    1.6938   -5.0928    3.3566 C   0  0  0  0  0  0  0  0  0  0  0  0
    0.7509   -6.9600    1.9229 C   0  0  0  0  0  0  0  0  0  0  0  0
    1.3760   -6.6285    0.9068 O   0  0  0  0  0  0  0  0  0  0  0  0
   -0.3913   -7.6300    1.7912 N   0  0  0  0  0  0  0  0  0  0  0  0
   -1.2569   -7.9073    2.7745 C   0  0  0  0  0  0  0  0  0  0  0  0
   -2.1972   -8.6144    2.4655 O   0  0  0  0  0  0  0  0  0  0  0  0
   -1.0799   -7.3700    4.0073 N   0  0  0  0  0  0  0  0  0  0  0  0
    0.0342   -6.6886    4.3829 C   0  0  0  0  0  0  0  0  0  0  0  0
    0.1342   -6.1079    5.4685 O   0  0  0  0  0  0  0  0  0  0  0  0
    9.2938   -5.7230    2.4890 H   0  0  0  0  0  0  0  0  0  0  0  0
    8.4188   -6.7272    1.3349 H   0  0  0  0  0  0  0  0  0  0  0  0
    7.5882   -6.0376    2.7420 H   0  0  0  0  0  0  0  0  0  0  0  0
    8.8943   -4.2399    0.5764 H   0  0  0  0  0  0  0  0  0  0  0  0
    6.8949   -3.0577    0.3808 H   0  0  0  0  0  0  0  0  0  0  0  0
    4.9062   -2.1945    1.6202 H   0  0  0  0  0  0  0  0  0  0  0  0
    2.7027   -2.7111    2.6167 H   0  0  0  0  0  0  0  0  0  0  0  0
    5.8592   -6.4255    1.6338 H   0  0  0  0  0  0  0  0  0  0  0  0
    3.4762   -7.8428    1.8577 H   0  0  0  0  0  0  0  0  0  0  0  0
    4.5566   -7.8198    3.1950 H   0  0  0  0  0  0  0  0  0  0  0  0
    1.2302  -11.3269    4.6490 H   0  0  0  0  0  0  0  0  0  0  0  0
    1.6874  -11.0377    6.2528 H   0  0  0  0  0  0  0  0  0  0  0  0
    1.9722   -8.4011    6.8320 H   0  0  0  0  0  0  0  0  0  0  0  0
    4.4222   -7.4689    6.8046 H   0  0  0  0  0  0  0  0  0  0  0  0
    4.7736   -8.4908    5.3122 H   0  0  0  0  0  0  0  0  0  0  0  0
    2.6502   -6.2852    5.6529 H   0  0  0  0  0  0  0  0  0  0  0  0
    1.7709   -4.6769    4.3671 H   0  0  0  0  0  0  0  0  0  0  0  0
    0.9551   -4.4704    2.8487 H   0  0  0  0  0  0  0  0  0  0  0  0
   -0.5996   -8.0239    0.8909 H   0  0  0  0  0  0  0  0  0  0  0  0
  1  2  1  0
  1 28  1  0
  1 29  1  0
  1 30  1  0
  2  3  2  3
  2 31  1  0
  3  4  1  0
  3 32  1  0
  4  9  2  0
  4  5  1  0
  5  6  2  0
  5 33  1  0
  6  7  1  0
  6 34  1  0
  7 19  1  0
  7  8  2  0
  8  9  1  0
  8 10  1  0
  9 35  1  0
 11 10  1  6
 10 36  1  0
 10 37  1  0
 11 17  1  0
 11 12  1  0
 11 18  1  0
 12 13  2  0
 13 14  1  0
 13 15  1  0
 14 38  1  0
 14 39  1  0
 15 17  1  0
 15 16  1  0
 15 40  1  1
 16 17  1  0
 16 41  1  0
 16 42  1  0
 17 43  1  1
 18 26  1  0
 18 19  1  6
 18 20  1  0
 19 44  1  0
 19 45  1  0
 20 21  2  0
 20 22  1  0
 22 23  1  0
 22 46  1  0
 23 24  2  0
 23 25  1  0
 25 26  1  0
 26 27  2  0
M  CHG  1  25  -1
M  END
>  <i_m_ct_stereo_status>  (36) 
1

>  <s_m_source_file>  (36) 
/var/tmp/pbs.5076255.sched01/tmp6mrmgolx/06cp14zw5.sdf

>  <i_m_source_file_index>  (36) 
12

>  <i_lp_mmshare_version>  (36) 
48012

>  <i_f3d_flags>  (36) 
0

>  <s_epik_input>  (36) 
W0NIM10vW0NIXT1bQ0hdL2MoW2NIXVtjSF0xKVtjSF1jKFtDSDJdMiljMVtDSDJdQzMoW0NAXTI0W0NASF01W0NIXShbQ0gyXTUpQyg9TjQpW05IMl0pQyg9TylbTkhdQyg9TylbTkhdQzM9Tw==

>  <s_epik_cmdline>  (36) 
J2VwaWtfcHl0aG9uJywgJy1waHQnLCAnMi4wJywgJy1waCcsICc3LjAnLCAnLXRuJywgJzgnLCAnLW1hJywgJzIwMCcsICctaW1hZScsICc8aW5maWxlLm1hZT4nLCAnLW9tYWUnLCAnPG91dGZpbGUubWFlPic=

>  <r_epik_Ionization_Penalty>  (36) 
2.17434

>  <r_epik_Ionization_Penalty_Charging>  (36) 
0.724193

>  <r_epik_Ionization_Penalty_Neutral>  (36) 
1.45015

>  <r_epik_State_Penalty>  (36) 
2.23526

>  <r_epik_Charging_Adjusted_Penalty>  (36) 
2.95945

>  <i_epik_Tot_Q>  (36) 
-1

>  <i_epik_Tot_abs_Q>  (36) 
1

>  <s_epik_Chemistry_Notes>  (36) 
This compound has an imine and may undergo hydrolysis.

>  <s_lp_Force_Field>  (36) 
OPLS3e

>  <r_lp_Energy>  (36) 
32.8523

>  <b_lp_Chiralities_Consistent>  (36) 
1

>  <s_lp_Variant>  (36) 
1:0-10

>  <s_i_glide_gridfile>  (36) 
pfpi4k_grid

>  <i_i_glide_lignum>  (36) 
12

>  <i_i_glide_rotatable_bonds>  (36) 
1

>  <r_i_docking_score>  (36) 
-3.70678

>  <r_i_glide_ligand_efficiency>  (36) 
-0.137288

>  <r_i_glide_ligand_efficiency_sa>  (36) 
-0.411865

>  <r_i_glide_ligand_efficiency_ln>  (36) 
-0.862878

>  <r_i_glide_gscore>  (36) 
-3.70678

>  <r_i_glide_lipo>  (36) 
-0.343374

>  <r_i_glide_hbond>  (36) 
-0.298803

>  <r_i_glide_metal>  (36) 
-0

>  <r_i_glide_rewards>  (36) 
-0.931433

>  <r_i_glide_evdw>  (36) 
-27.3888

>  <r_i_glide_ecoul>  (36) 
-3.84108

>  <r_i_glide_erotb>  (36) 
0.145495

>  <r_i_glide_esite>  (36) 
-0.333065

>  <r_i_glide_emodel>  (36) 
-39.2787

>  <r_i_glide_energy>  (36) 
-31.2299

>  <r_i_glide_einternal>  (36) 
0.0291946

>  <r_i_glide_intrahb_reward>  (36) 
-0

>  <i_i_glide_confnum>  (36) 
4

>  <i_i_glide_posenum>  (36) 
9

>  <r_i_glide_eff_state_penalty>  (36) 
0

>  <ligand_id>  (36) 
1

>  <original_smiles>  (36) 
CC=Cc1ccc2c(c1)CC1(N=C(N)C3CC31)C1(C2)C(=O)NC(=O)NC1=O

>  <smiles>  (36) 
[H]C(=C([H])C([H])([H])[H])c1c([H])c([H])c2c(c1[H])C([H])([H])C1(N=C(N([H])[H])C3([H])C([H])([H])C31[H])C1(C(=O)[N-]C(=O)N([H])C1=O)C2([H])[H]

$$$$
1:10:0
     RDKit          3D

 46 50  0  0  1  0  0  0  0  0999 V2000
   -4.7320    4.8526    1.6833 C   0  0  0  0  0  0  0  0  0  0  0  0
   -3.7944    3.9632    2.4728 C   0  0  0  0  0  0  0  0  0  0  0  0
   -2.5896    4.3588    2.9171 C   0  0  0  0  0  0  0  0  0  0  0  0
   -1.6458    3.5354    3.6711 C   0  0  0  0  0  0  0  0  0  0  0  0
   -0.9095    4.1142    4.7258 C   0  0  0  0  0  0  0  0  0  0  0  0
    0.0002    3.3397    5.4640 C   0  0  0  0  0  0  0  0  0  0  0  0
    0.1866    1.9818    5.1580 C   0  0  0  0  0  0  0  0  0  0  0  0
   -0.5532    1.3966    4.0993 C   0  0  0  0  0  0  0  0  0  0  0  0
   -1.4767    2.1695    3.3733 C   0  0  0  0  0  0  0  0  0  0  0  0
   -0.3981   -0.0665    3.7303 C   0  0  0  0  0  0  0  0  0  0  0  0
    0.8688   -0.7292    4.3312 C   0  0  1  0  0  0  0  0  0  0  0  0
    0.7481   -2.1900    4.1976 N   0  0  0  0  0  0  0  0  0  0  0  0
    1.7481   -2.6631    3.5369 C   0  0  0  0  0  0  0  0  0  0  0  0
    2.0378   -3.9844    3.2920 N   0  0  0  0  0  0  0  0  0  0  0  0
    2.6830   -1.6264    3.0007 C   0  0  1  0  0  0  0  0  0  0  0  0
    2.2420   -0.5792    2.0099 C   0  0  0  0  0  0  0  0  0  0  0  0
    2.0990   -0.3448    3.4935 C   0  0  1  0  0  0  0  0  0  0  0  0
    1.0623   -0.3525    5.8523 C   0  0  1  0  0  0  0  0  0  0  0  0
    1.1812    1.1906    5.9927 C   0  0  0  0  0  0  0  0  0  0  0  0
   -0.1869   -0.8429    6.6946 C   0  0  0  0  0  0  0  0  0  0  0  0
   -1.2530   -0.2336    6.5620 O   0  0  0  0  0  0  0  0  0  0  0  0
   -0.0423   -1.9335    7.4960 N   0  0  0  0  0  0  0  0  0  0  0  0
    1.1452   -2.5316    7.7783 C   0  0  0  0  0  0  0  0  0  0  0  0
    1.2495   -3.5294    8.4808 O   0  0  0  0  0  0  0  0  0  0  0  0
    2.2837   -2.0053    7.2896 N   0  0  0  0  0  0  0  0  0  0  0  0
    2.3729   -0.9690    6.4546 C   0  0  0  0  0  0  0  0  0  0  0  0
    3.4788   -0.5165    6.1508 O   0  0  0  0  0  0  0  0  0  0  0  0
   -4.9517    4.4006    0.7190 H   0  0  0  0  0  0  0  0  0  0  0  0
   -4.2899    5.8354    1.5103 H   0  0  0  0  0  0  0  0  0  0  0  0
   -5.6741    4.9834    2.2182 H   0  0  0  0  0  0  0  0  0  0  0  0
   -4.1469    2.9629    2.6825 H   0  0  0  0  0  0  0  0  0  0  0  0
   -2.2482    5.3512    2.6783 H   0  0  0  0  0  0  0  0  0  0  0  0
   -1.0294    5.1555    4.9844 H   0  0  0  0  0  0  0  0  0  0  0  0
    0.5548    3.7826    6.2772 H   0  0  0  0  0  0  0  0  0  0  0  0
   -2.0430    1.7141    2.5712 H   0  0  0  0  0  0  0  0  0  0  0  0
   -1.2874   -0.5971    4.0722 H   0  0  0  0  0  0  0  0  0  0  0  0
   -0.4166   -0.1796    2.6476 H   0  0  0  0  0  0  0  0  0  0  0  0
    1.4914   -4.7343    3.6913 H   0  0  0  0  0  0  0  0  0  0  0  0
    2.8513   -4.2939    2.7811 H   0  0  0  0  0  0  0  0  0  0  0  0
    3.7311   -1.8049    3.2400 H   0  0  0  0  0  0  0  0  0  0  0  0
    3.0023    0.0176    1.5147 H   0  0  0  0  0  0  0  0  0  0  0  0
    1.3302   -0.7501    1.4413 H   0  0  0  0  0  0  0  0  0  0  0  0
    2.7716    0.4143    3.8950 H   0  0  0  0  0  0  0  0  0  0  0  0
    2.1643    1.5591    5.6948 H   0  0  0  0  0  0  0  0  0  0  0  0
    1.0817    1.4810    7.0403 H   0  0  0  0  0  0  0  0  0  0  0  0
    3.1478   -2.4436    7.5680 H   0  0  0  0  0  0  0  0  0  0  0  0
  1  2  1  0
  1 28  1  0
  1 29  1  0
  1 30  1  0
  2  3  2  3
  2 31  1  0
  3  4  1  0
  3 32  1  0
  4  9  2  0
  4  5  1  0
  5  6  2  0
  5 33  1  0
  6  7  1  0
  6 34  1  0
  7 19  1  0
  7  8  2  0
  8  9  1  0
  8 10  1  0
  9 35  1  0
 11 10  1  6
 10 36  1  0
 10 37  1  0
 11 17  1  0
 11 12  1  0
 11 18  1  0
 12 13  2  0
 13 14  1  0
 13 15  1  0
 14 38  1  0
 14 39  1  0
 15 17  1  0
 15 16  1  0
 15 40  1  1
 16 17  1  0
 16 41  1  0
 16 42  1  0
 17 43  1  1
 18 26  1  0
 18 19  1  6
 18 20  1  0
 19 44  1  0
 19 45  1  0
 20 21  2  0
 20 22  1  0
 22 23  1  0
 23 24  2  0
 23 25  1  0
 25 26  1  0
 25 46  1  0
 26 27  2  0
M  CHG  1  22  -1
M  END
>  <i_m_ct_stereo_status>  (37) 
1

>  <s_m_source_file>  (37) 
/var/tmp/pbs.5076255.sched01/tmp6mrmgolx/06cp14zw5.sdf

>  <i_m_source_file_index>  (37) 
13

>  <i_lp_mmshare_version>  (37) 
48012

>  <i_f3d_flags>  (37) 
0

>  <s_epik_input>  (37) 
W0NIM10vW0NIXT1bQ0hdL2MoW2NIXVtjSF0xKVtjSF1jKFtDSDJdMiljMVtDSDJdQzMoW0NAXTI0W0NASF01W0NIXShbQ0gyXTUpQyg9TjQpW05IMl0pQyg9TylbTkhdQyg9TylbTkhdQzM9Tw==

>  <s_epik_cmdline>  (37) 
J2VwaWtfcHl0aG9uJywgJy1waHQnLCAnMi4wJywgJy1waCcsICc3LjAnLCAnLXRuJywgJzgnLCAnLW1hJywgJzIwMCcsICctaW1hZScsICc8aW5maWxlLm1hZT4nLCAnLW9tYWUnLCAnPG91dGZpbGUubWFlPic=

>  <r_epik_Ionization_Penalty>  (37) 
2.17434

>  <r_epik_Ionization_Penalty_Charging>  (37) 
0.724193

>  <r_epik_Ionization_Penalty_Neutral>  (37) 
1.45015

>  <r_epik_State_Penalty>  (37) 
2.23526

>  <r_epik_Charging_Adjusted_Penalty>  (37) 
2.95945

>  <i_epik_Tot_Q>  (37) 
-1

>  <i_epik_Tot_abs_Q>  (37) 
1

>  <s_epik_Chemistry_Notes>  (37) 
This compound has an imine and may undergo hydrolysis.

>  <s_lp_Force_Field>  (37) 
OPLS3e

>  <r_lp_Energy>  (37) 
31.7379

>  <b_lp_Chiralities_Consistent>  (37) 
1

>  <s_lp_Variant>  (37) 
1:0-11

>  <s_i_glide_gridfile>  (37) 
pfpi4k_grid

>  <i_i_glide_lignum>  (37) 
13

>  <i_i_glide_rotatable_bonds>  (37) 
1

>  <r_i_docking_score>  (37) 
-2.80039

>  <r_i_glide_ligand_efficiency>  (37) 
-0.103718

>  <r_i_glide_ligand_efficiency_sa>  (37) 
-0.311154

>  <r_i_glide_ligand_efficiency_ln>  (37) 
-0.651884

>  <r_i_glide_gscore>  (37) 
-2.80039

>  <r_i_glide_lipo>  (37) 
-0.274496

>  <r_i_glide_hbond>  (37) 
-0.156127

>  <r_i_glide_metal>  (37) 
-0

>  <r_i_glide_rewards>  (37) 
-0.962042

>  <r_i_glide_evdw>  (37) 
-20.8611

>  <r_i_glide_ecoul>  (37) 
-3.03921

>  <r_i_glide_erotb>  (37) 
0.145495

>  <r_i_glide_esite>  (37) 
-0.0542817

>  <r_i_glide_emodel>  (37) 
-28.858

>  <r_i_glide_energy>  (37) 
-23.9003

>  <r_i_glide_einternal>  (37) 
2.03651

>  <r_i_glide_intrahb_reward>  (37) 
-0

>  <i_i_glide_confnum>  (37) 
5

>  <i_i_glide_posenum>  (37) 
22

>  <r_i_glide_eff_state_penalty>  (37) 
0

>  <ligand_id>  (37) 
1

>  <original_smiles>  (37) 
CC=Cc1ccc2c(c1)CC1(N=C(N)C3CC31)C1(C2)C(=O)NC(=O)NC1=O

>  <smiles>  (37) 
[H]C(=C([H])C([H])([H])[H])c1c([H])c([H])c2c(c1[H])C([H])([H])C1(N=C(N([H])[H])C3([H])C([H])([H])C31[H])C1(C(=O)[N-]C(=O)N([H])C1=O)C2([H])[H]

$$$$
1:10:1
     RDKit          3D

 46 50  0  0  1  0  0  0  0  0999 V2000
    1.2317    4.4692    4.3318 C   0  0  0  0  0  0  0  0  0  0  0  0
    1.3282    2.9940    4.0536 C   0  0  0  0  0  0  0  0  0  0  0  0
    2.2190    2.4354    3.2193 C   0  0  0  0  0  0  0  0  0  0  0  0
    2.3119    0.9906    2.9391 C   0  0  0  0  0  0  0  0  0  0  0  0
    1.5493    0.0202    3.6369 C   0  0  0  0  0  0  0  0  0  0  0  0
    1.6662   -1.3441    3.2994 C   0  0  0  0  0  0  0  0  0  0  0  0
    2.5523   -1.7611    2.2871 C   0  0  0  0  0  0  0  0  0  0  0  0
    3.3179   -0.8007    1.5841 C   0  0  0  0  0  0  0  0  0  0  0  0
    3.1761    0.5691    1.9053 C   0  0  0  0  0  0  0  0  0  0  0  0
    4.3427   -1.1822    0.5149 C   0  0  0  0  0  0  0  0  0  0  0  0
    4.1964   -2.6545    0.0268 C   0  0  1  0  0  0  0  0  0  0  0  0
    3.0136   -2.6462   -0.8628 N   0  0  0  0  0  0  0  0  0  0  0  0
    3.3128   -3.0235   -2.0571 C   0  0  0  0  0  0  0  0  0  0  0  0
    2.4704   -3.1853   -3.1373 N   0  0  0  0  0  0  0  0  0  0  0  0
    4.7595   -3.3575   -2.2185 C   0  0  1  0  0  0  0  0  0  0  0  0
    5.8279   -2.3170   -2.0930 C   0  0  0  0  0  0  0  0  0  0  0  0
    5.3636   -3.0709   -0.8793 C   0  0  1  0  0  0  0  0  0  0  0  0
    3.9868   -3.6739    1.2481 C   0  0  1  0  0  0  0  0  0  0  0  0
    2.6982   -3.2545    2.0309 C   0  0  0  0  0  0  0  0  0  0  0  0
    3.8177   -5.1851    0.7927 C   0  0  0  0  0  0  0  0  0  0  0  0
    2.7157   -5.5169    0.3688 O   0  0  0  0  0  0  0  0  0  0  0  0
    4.8885   -6.0474    0.9575 N   0  0  0  0  0  0  0  0  0  0  0  0
    6.0021   -5.7690    1.6931 C   0  0  0  0  0  0  0  0  0  0  0  0
    6.9747   -6.5325    1.8038 O   0  0  0  0  0  0  0  0  0  0  0  0
    6.0665   -4.6186    2.3538 N   0  0  0  0  0  0  0  0  0  0  0  0
    5.1749   -3.6188    2.2746 C   0  0  0  0  0  0  0  0  0  0  0  0
    5.3255   -2.6408    3.0196 O   0  0  0  0  0  0  0  0  0  0  0  0
    0.2420    4.8222    4.0411 H   0  0  0  0  0  0  0  0  0  0  0  0
    1.9853    5.0160    3.7651 H   0  0  0  0  0  0  0  0  0  0  0  0
    1.3785    4.6460    5.3976 H   0  0  0  0  0  0  0  0  0  0  0  0
    0.6076    2.3878    4.5734 H   0  0  0  0  0  0  0  0  0  0  0  0
    2.9252    3.0730    2.7000 H   0  0  0  0  0  0  0  0  0  0  0  0
    0.8692    0.2729    4.4442 H   0  0  0  0  0  0  0  0  0  0  0  0
    1.1065   -2.0723    3.8639 H   0  0  0  0  0  0  0  0  0  0  0  0
    3.7764    1.2899    1.3638 H   0  0  0  0  0  0  0  0  0  0  0  0
    4.2589   -0.4788   -0.3155 H   0  0  0  0  0  0  0  0  0  0  0  0
    5.3403   -1.0071    0.9152 H   0  0  0  0  0  0  0  0  0  0  0  0
    1.4685   -3.2253   -2.9860 H   0  0  0  0  0  0  0  0  0  0  0  0
    2.7173   -3.7205   -3.9518 H   0  0  0  0  0  0  0  0  0  0  0  0
    4.9403   -4.3537   -2.6182 H   0  0  0  0  0  0  0  0  0  0  0  0
    6.8239   -2.5723   -2.4513 H   0  0  0  0  0  0  0  0  0  0  0  0
    5.5216   -1.2760   -2.1870 H   0  0  0  0  0  0  0  0  0  0  0  0
    6.0954   -3.7825   -0.4901 H   0  0  0  0  0  0  0  0  0  0  0  0
    2.5852   -3.7665    2.9866 H   0  0  0  0  0  0  0  0  0  0  0  0
    1.8013   -3.5341    1.4634 H   0  0  0  0  0  0  0  0  0  0  0  0
    6.8588   -4.4288    2.9448 H   0  0  0  0  0  0  0  0  0  0  0  0
  1  2  1  0
  1 28  1  0
  1 29  1  0
  1 30  1  0
  2  3  2  3
  2 31  1  0
  3  4  1  0
  3 32  1  0
  4  9  2  0
  4  5  1  0
  5  6  2  0
  5 33  1  0
  6  7  1  0
  6 34  1  0
  7 19  1  0
  7  8  2  0
  8  9  1  0
  8 10  1  0
  9 35  1  0
 11 10  1  1
 10 36  1  0
 10 37  1  0
 11 17  1  0
 11 12  1  0
 11 18  1  0
 12 13  2  0
 13 14  1  0
 13 15  1  0
 14 38  1  0
 14 39  1  0
 15 17  1  0
 15 16  1  0
 15 40  1  6
 16 17  1  0
 16 41  1  0
 16 42  1  0
 17 43  1  1
 18 26  1  0
 18 19  1  1
 18 20  1  0
 19 44  1  0
 19 45  1  0
 20 21  2  0
 20 22  1  0
 22 23  1  0
 23 24  2  0
 23 25  1  0
 25 26  1  0
 25 46  1  0
 26 27  2  0
M  CHG  1  22  -1
M  END
>  <i_m_ct_stereo_status>  (38) 
1

>  <s_m_source_file>  (38) 
/var/tmp/pbs.5076255.sched01/tmp6mrmgolx/06cp14zw5.sdf

>  <i_m_source_file_index>  (38) 
13

>  <i_lp_mmshare_version>  (38) 
48012

>  <i_f3d_flags>  (38) 
0

>  <s_epik_input>  (38) 
W0NIM10vW0NIXT1bQ0hdL2MoW2NIXVtjSF0xKVtjSF1jKFtDSDJdMiljMVtDSDJdQzMoW0NAXTI0W0NASF01W0NIXShbQ0gyXTUpQyg9TjQpW05IMl0pQyg9TylbTkhdQyg9TylbTkhdQzM9Tw==

>  <s_epik_cmdline>  (38) 
J2VwaWtfcHl0aG9uJywgJy1waHQnLCAnMi4wJywgJy1waCcsICc3LjAnLCAnLXRuJywgJzgnLCAnLW1hJywgJzIwMCcsICctaW1hZScsICc8aW5maWxlLm1hZT4nLCAnLW9tYWUnLCAnPG91dGZpbGUubWFlPic=

>  <r_epik_Ionization_Penalty>  (38) 
2.17434

>  <r_epik_Ionization_Penalty_Charging>  (38) 
0.724193

>  <r_epik_Ionization_Penalty_Neutral>  (38) 
1.45015

>  <r_epik_State_Penalty>  (38) 
2.23526

>  <r_epik_Charging_Adjusted_Penalty>  (38) 
2.95945

>  <i_epik_Tot_Q>  (38) 
-1

>  <i_epik_Tot_abs_Q>  (38) 
1

>  <s_epik_Chemistry_Notes>  (38) 
This compound has an imine and may undergo hydrolysis.

>  <s_lp_Force_Field>  (38) 
OPLS3e

>  <r_lp_Energy>  (38) 
31.7379

>  <b_lp_Chiralities_Consistent>  (38) 
1

>  <s_lp_Variant>  (38) 
1:0-11

>  <s_i_glide_gridfile>  (38) 
pfpi4k_grid

>  <i_i_glide_lignum>  (38) 
13

>  <i_i_glide_rotatable_bonds>  (38) 
1

>  <r_i_docking_score>  (38) 
-2.53911

>  <r_i_glide_ligand_efficiency>  (38) 
-0.0940412

>  <r_i_glide_ligand_efficiency_sa>  (38) 
-0.282124

>  <r_i_glide_ligand_efficiency_ln>  (38) 
-0.591063

>  <r_i_glide_gscore>  (38) 
-2.53911

>  <r_i_glide_lipo>  (38) 
-0.238453

>  <r_i_glide_hbond>  (38) 
-0.0300227

>  <r_i_glide_metal>  (38) 
-0

>  <r_i_glide_rewards>  (38) 
-1.09054

>  <r_i_glide_evdw>  (38) 
-28.6895

>  <r_i_glide_ecoul>  (38) 
0.837912

>  <r_i_glide_erotb>  (38) 
0.145495

>  <r_i_glide_esite>  (38) 
-0.0168018

>  <r_i_glide_emodel>  (38) 
-32.0103

>  <r_i_glide_energy>  (38) 
-27.8516

>  <r_i_glide_einternal>  (38) 
0.0474792

>  <r_i_glide_intrahb_reward>  (38) 
-0

>  <i_i_glide_confnum>  (38) 
3

>  <i_i_glide_posenum>  (38) 
1

>  <r_i_glide_eff_state_penalty>  (38) 
0

>  <ligand_id>  (38) 
1

>  <original_smiles>  (38) 
CC=Cc1ccc2c(c1)CC1(N=C(N)C3CC31)C1(C2)C(=O)NC(=O)NC1=O

>  <smiles>  (38) 
[H]C(=C([H])C([H])([H])[H])c1c([H])c([H])c2c(c1[H])C([H])([H])C1(N=C(N([H])[H])C3([H])C([H])([H])C31[H])C1(C(=O)[N-]C(=O)N([H])C1=O)C2([H])[H]

$$$$
1:10:2
     RDKit          3D

 46 50  0  0  1  0  0  0  0  0999 V2000
   -3.5172    3.3544    9.6892 C   0  0  0  0  0  0  0  0  0  0  0  0
   -2.9473    2.6507    8.4909 C   0  0  0  0  0  0  0  0  0  0  0  0
   -1.7824    1.9832    8.4993 C   0  0  0  0  0  0  0  0  0  0  0  0
   -1.1868    1.3082    7.3391 C   0  0  0  0  0  0  0  0  0  0  0  0
   -1.7309    1.4329    6.0403 C   0  0  0  0  0  0  0  0  0  0  0  0
   -1.1386    0.7680    4.9555 C   0  0  0  0  0  0  0  0  0  0  0  0
    0.0039   -0.0302    5.1476 C   0  0  0  0  0  0  0  0  0  0  0  0
    0.5503   -0.1728    6.4524 C   0  0  0  0  0  0  0  0  0  0  0  0
   -0.0496    0.4959    7.5357 C   0  0  0  0  0  0  0  0  0  0  0  0
    1.7557   -1.0654    6.7314 C   0  0  0  0  0  0  0  0  0  0  0  0
    2.5216   -1.4837    5.4549 C   0  0  1  0  0  0  0  0  0  0  0  0
    3.2910   -0.3031    5.0232 N   0  0  0  0  0  0  0  0  0  0  0  0
    4.5458   -0.5781    4.9637 C   0  0  0  0  0  0  0  0  0  0  0  0
    5.5605    0.2404    4.5307 N   0  0  0  0  0  0  0  0  0  0  0  0
    4.8879   -1.9598    5.4164 C   0  0  1  0  0  0  0  0  0  0  0  0
    4.6351   -2.4407    6.8219 C   0  0  0  0  0  0  0  0  0  0  0  0
    3.5667   -2.5604    5.7665 C   0  0  1  0  0  0  0  0  0  0  0  0
    1.5249   -1.9334    4.3152 C   0  0  1  0  0  0  0  0  0  0  0  0
    0.6053   -0.7400    3.9385 C   0  0  0  0  0  0  0  0  0  0  0  0
    2.3007   -2.4030    3.0181 C   0  0  0  0  0  0  0  0  0  0  0  0
    2.8356   -1.5377    2.3239 O   0  0  0  0  0  0  0  0  0  0  0  0
    2.3483   -3.7379    2.7305 N   0  0  0  0  0  0  0  0  0  0  0  0
    1.6402   -4.6963    3.3838 C   0  0  0  0  0  0  0  0  0  0  0  0
    1.6991   -5.8914    3.1160 O   0  0  0  0  0  0  0  0  0  0  0  0
    0.7890   -4.3411    4.3551 N   0  0  0  0  0  0  0  0  0  0  0  0
    0.5862   -3.1057    4.8000 C   0  0  0  0  0  0  0  0  0  0  0  0
   -0.3447   -2.9077    5.5933 O   0  0  0  0  0  0  0  0  0  0  0  0
   -3.6349    4.4150    9.4629 H   0  0  0  0  0  0  0  0  0  0  0  0
   -2.8643    3.2554   10.5599 H   0  0  0  0  0  0  0  0  0  0  0  0
   -4.4953    2.9454    9.9383 H   0  0  0  0  0  0  0  0  0  0  0  0
   -3.5476    2.7160    7.5976 H   0  0  0  0  0  0  0  0  0  0  0  0
   -1.2161    1.9420    9.4181 H   0  0  0  0  0  0  0  0  0  0  0  0
   -2.5980    2.0453    5.8416 H   0  0  0  0  0  0  0  0  0  0  0  0
   -1.5728    0.8647    3.9708 H   0  0  0  0  0  0  0  0  0  0  0  0
    0.3648    0.3666    8.5302 H   0  0  0  0  0  0  0  0  0  0  0  0
    2.4216   -0.5655    7.4319 H   0  0  0  0  0  0  0  0  0  0  0  0
    1.4081   -1.9566    7.2578 H   0  0  0  0  0  0  0  0  0  0  0  0
    5.3573    1.1474    4.1323 H   0  0  0  0  0  0  0  0  0  0  0  0
    6.5274   -0.0339    4.4698 H   0  0  0  0  0  0  0  0  0  0  0  0
    5.5127   -2.5096    4.7159 H   0  0  0  0  0  0  0  0  0  0  0  0
    5.1082   -3.3679    7.1333 H   0  0  0  0  0  0  0  0  0  0  0  0
    4.4815   -1.7001    7.6024 H   0  0  0  0  0  0  0  0  0  0  0  0
    3.3635   -3.5722    5.4161 H   0  0  0  0  0  0  0  0  0  0  0  0
   -0.2091   -1.0773    3.2962 H   0  0  0  0  0  0  0  0  0  0  0  0
    1.1238    0.0218    3.3485 H   0  0  0  0  0  0  0  0  0  0  0  0
    0.2324   -5.0634    4.7663 H   0  0  0  0  0  0  0  0  0  0  0  0
  1  2  1  0
  1 28  1  0
  1 29  1  0
  1 30  1  0
  2  3  2  3
  2 31  1  0
  3  4  1  0
  3 32  1  0
  4  9  2  0
  4  5  1  0
  5  6  2  0
  5 33  1  0
  6  7  1  0
  6 34  1  0
  7 19  1  0
  7  8  2  0
  8  9  1  0
  8 10  1  0
  9 35  1  0
 11 10  1  1
 10 36  1  0
 10 37  1  0
 11 17  1  0
 11 12  1  0
 11 18  1  0
 12 13  2  0
 13 14  1  0
 13 15  1  0
 14 38  1  0
 14 39  1  0
 15 17  1  0
 15 16  1  0
 15 40  1  6
 16 17  1  0
 16 41  1  0
 16 42  1  0
 17 43  1  6
 18 26  1  0
 18 19  1  6
 18 20  1  0
 19 44  1  0
 19 45  1  0
 20 21  2  0
 20 22  1  0
 22 23  1  0
 23 24  2  0
 23 25  1  0
 25 26  1  0
 25 46  1  0
 26 27  2  0
M  CHG  1  22  -1
M  END
>  <i_m_ct_stereo_status>  (39) 
1

>  <s_m_source_file>  (39) 
/var/tmp/pbs.5076255.sched01/tmp6mrmgolx/06cp14zw5.sdf

>  <i_m_source_file_index>  (39) 
13

>  <i_lp_mmshare_version>  (39) 
48012

>  <i_f3d_flags>  (39) 
0

>  <s_epik_input>  (39) 
W0NIM10vW0NIXT1bQ0hdL2MoW2NIXVtjSF0xKVtjSF1jKFtDSDJdMiljMVtDSDJdQzMoW0NAXTI0W0NASF01W0NIXShbQ0gyXTUpQyg9TjQpW05IMl0pQyg9TylbTkhdQyg9TylbTkhdQzM9Tw==

>  <s_epik_cmdline>  (39) 
J2VwaWtfcHl0aG9uJywgJy1waHQnLCAnMi4wJywgJy1waCcsICc3LjAnLCAnLXRuJywgJzgnLCAnLW1hJywgJzIwMCcsICctaW1hZScsICc8aW5maWxlLm1hZT4nLCAnLW9tYWUnLCAnPG91dGZpbGUubWFlPic=

>  <r_epik_Ionization_Penalty>  (39) 
2.17434

>  <r_epik_Ionization_Penalty_Charging>  (39) 
0.724193

>  <r_epik_Ionization_Penalty_Neutral>  (39) 
1.45015

>  <r_epik_State_Penalty>  (39) 
2.23526

>  <r_epik_Charging_Adjusted_Penalty>  (39) 
2.95945

>  <i_epik_Tot_Q>  (39) 
-1

>  <i_epik_Tot_abs_Q>  (39) 
1

>  <s_epik_Chemistry_Notes>  (39) 
This compound has an imine and may undergo hydrolysis.

>  <s_lp_Force_Field>  (39) 
OPLS3e

>  <r_lp_Energy>  (39) 
31.7379

>  <b_lp_Chiralities_Consistent>  (39) 
1

>  <s_lp_Variant>  (39) 
1:0-11

>  <s_i_glide_gridfile>  (39) 
pfpi4k_grid

>  <i_i_glide_lignum>  (39) 
13

>  <i_i_glide_rotatable_bonds>  (39) 
1

>  <r_i_docking_score>  (39) 
-2.26544

>  <r_i_glide_ligand_efficiency>  (39) 
-0.0839052

>  <r_i_glide_ligand_efficiency_sa>  (39) 
-0.251716

>  <r_i_glide_ligand_efficiency_ln>  (39) 
-0.527357

>  <r_i_glide_gscore>  (39) 
-2.26544

>  <r_i_glide_lipo>  (39) 
-0.0887771

>  <r_i_glide_hbond>  (39) 
0

>  <r_i_glide_metal>  (39) 
-0

>  <r_i_glide_rewards>  (39) 
-0.978096

>  <r_i_glide_evdw>  (39) 
-21.7762

>  <r_i_glide_ecoul>  (39) 
-1.62119

>  <r_i_glide_erotb>  (39) 
0.145495

>  <r_i_glide_esite>  (39) 
-0.012072

>  <r_i_glide_emodel>  (39) 
-28.1423

>  <r_i_glide_energy>  (39) 
-23.3974

>  <r_i_glide_einternal>  (39) 
0.0600069

>  <r_i_glide_intrahb_reward>  (39) 
-0

>  <i_i_glide_confnum>  (39) 
3

>  <i_i_glide_posenum>  (39) 
19

>  <r_i_glide_eff_state_penalty>  (39) 
0

>  <ligand_id>  (39) 
1

>  <original_smiles>  (39) 
CC=Cc1ccc2c(c1)CC1(N=C(N)C3CC31)C1(C2)C(=O)NC(=O)NC1=O

>  <smiles>  (39) 
[H]C(=C([H])C([H])([H])[H])c1c([H])c([H])c2c(c1[H])C([H])([H])C1(N=C(N([H])[H])C3([H])C([H])([H])C31[H])C1(C(=O)[N-]C(=O)N([H])C1=O)C2([H])[H]

$$$$
1:11:0
     RDKit          3D

 46 50  0  0  1  0  0  0  0  0999 V2000
   -1.3124   -8.7078    2.9120 C   0  0  0  0  0  0  0  0  0  0  0  0
   -1.1023   -7.7173    4.0455 C   0  0  0  0  0  0  0  0  0  0  0  0
   -0.1895   -6.7275    4.1249 C   0  0  0  0  0  0  0  0  0  0  0  0
    0.8886   -6.4170    3.1772 C   0  0  0  0  0  0  0  0  0  0  0  0
    1.5484   -7.4303    2.4505 C   0  0  0  0  0  0  0  0  0  0  0  0
    2.5562   -7.1078    1.5329 C   0  0  0  0  0  0  0  0  0  0  0  0
    2.9307   -5.7720    1.3292 C   0  0  0  0  0  0  0  0  0  0  0  0
    2.2859   -4.7444    2.0660 C   0  0  0  0  0  0  0  0  0  0  0  0
    1.2689   -5.0741    2.9817 C   0  0  0  0  0  0  0  0  0  0  0  0
    2.6256   -3.2728    1.8617 C   0  0  0  0  0  0  0  0  0  0  0  0
    3.9655   -3.0570    1.1249 C   0  0  1  0  0  0  0  0  0  0  0  0
    4.0414   -1.6517    0.6892 N   0  0  0  0  0  0  0  0  0  0  0  0
    5.1009   -1.1013    1.1588 C   0  0  0  0  0  0  0  0  0  0  0  0
    5.6026    0.1364    0.8917 N   0  0  0  0  0  0  0  0  0  0  0  0
    5.8706   -1.9712    2.1018 C   0  0  1  0  0  0  0  0  0  0  0  0
    5.2797   -2.4851    3.3986 C   0  0  0  0  0  0  0  0  0  0  0  0
    5.1221   -3.2514    2.1112 C   0  0  1  0  0  0  0  0  0  0  0  0
    4.1049   -3.9881   -0.1355 C   0  0  1  0  0  0  0  0  0  0  0  0
    4.0195   -5.4828    0.3118 C   0  0  0  0  0  0  0  0  0  0  0  0
    2.9417   -3.6956   -1.1518 C   0  0  0  0  0  0  0  0  0  0  0  0
    1.8129   -4.1113   -0.8896 O   0  0  0  0  0  0  0  0  0  0  0  0
    3.2399   -3.0215   -2.3036 N   0  0  0  0  0  0  0  0  0  0  0  0
    4.4859   -2.7460   -2.7444 C   0  0  0  0  0  0  0  0  0  0  0  0
    4.6934   -2.1135   -3.7707 O   0  0  0  0  0  0  0  0  0  0  0  0
    5.5507   -3.1862   -2.0403 N   0  0  0  0  0  0  0  0  0  0  0  0
    5.4918   -3.8041   -0.8540 C   0  0  0  0  0  0  0  0  0  0  0  0
    6.5362   -4.2165   -0.3292 O   0  0  0  0  0  0  0  0  0  0  0  0
   -2.3740   -8.7823    2.6795 H   0  0  0  0  0  0  0  0  0  0  0  0
   -0.9643   -9.6959    3.2167 H   0  0  0  0  0  0  0  0  0  0  0  0
   -0.8083   -8.4290    1.9869 H   0  0  0  0  0  0  0  0  0  0  0  0
   -1.7803   -7.8427    4.8752 H   0  0  0  0  0  0  0  0  0  0  0  0
   -0.2121   -6.0972    5.0021 H   0  0  0  0  0  0  0  0  0  0  0  0
    1.3063   -8.4753    2.5909 H   0  0  0  0  0  0  0  0  0  0  0  0
    3.0433   -7.8921    0.9737 H   0  0  0  0  0  0  0  0  0  0  0  0
    0.7570   -4.2788    3.5131 H   0  0  0  0  0  0  0  0  0  0  0  0
    1.8271   -2.8018    1.2899 H   0  0  0  0  0  0  0  0  0  0  0  0
    2.6072   -2.7477    2.8130 H   0  0  0  0  0  0  0  0  0  0  0  0
    5.1646    0.7767    0.2247 H   0  0  0  0  0  0  0  0  0  0  0  0
    6.4898    0.4705    1.2481 H   0  0  0  0  0  0  0  0  0  0  0  0
    6.9273   -2.0391    1.8476 H   0  0  0  0  0  0  0  0  0  0  0  0
    5.9109   -2.9682    4.1276 H   0  0  0  0  0  0  0  0  0  0  0  0
    4.3992   -1.9904    3.8028 H   0  0  0  0  0  0  0  0  0  0  0  0
    5.6861   -4.1840    2.0632 H   0  0  0  0  0  0  0  0  0  0  0  0
    4.9420   -5.8451    0.7729 H   0  0  0  0  0  0  0  0  0  0  0  0
    3.8811   -6.1362   -0.5514 H   0  0  0  0  0  0  0  0  0  0  0  0
    6.4692   -3.0168   -2.4128 H   0  0  0  0  0  0  0  0  0  0  0  0
  1  2  1  0
  1 28  1  0
  1 29  1  0
  1 30  1  0
  2  3  2  3
  2 31  1  0
  3  4  1  0
  3 32  1  0
  4  9  2  0
  4  5  1  0
  5  6  2  0
  5 33  1  0
  6  7  1  0
  6 34  1  0
  7 19  1  0
  7  8  2  0
  8  9  1  0
  8 10  1  0
  9 35  1  0
 11 10  1  1
 10 36  1  0
 10 37  1  0
 11 17  1  0
 11 12  1  0
 11 18  1  0
 12 13  2  0
 13 14  1  0
 13 15  1  0
 14 38  1  0
 14 39  1  0
 15 17  1  0
 15 16  1  0
 15 40  1  1
 16 17  1  0
 16 41  1  0
 16 42  1  0
 17 43  1  1
 18 26  1  0
 18 19  1  1
 18 20  1  0
 19 44  1  0
 19 45  1  0
 20 21  2  0
 20 22  1  0
 22 23  1  0
 23 24  2  0
 23 25  1  0
 25 26  1  0
 25 46  1  0
 26 27  2  0
M  CHG  1  22  -1
M  END
>  <i_m_ct_stereo_status>  (40) 
1

>  <s_m_source_file>  (40) 
/var/tmp/pbs.5076255.sched01/tmp6mrmgolx/06cp14zw5.sdf

>  <i_m_source_file_index>  (40) 
14

>  <i_lp_mmshare_version>  (40) 
48012

>  <i_f3d_flags>  (40) 
0

>  <s_epik_input>  (40) 
W0NIM10vW0NIXT1bQ0hdL2MoW2NIXVtjSF0xKVtjSF1jKFtDSDJdMiljMVtDSDJdQzMoW0NAXTI0W0NASF01W0NIXShbQ0gyXTUpQyg9TjQpW05IMl0pQyg9TylbTkhdQyg9TylbTkhdQzM9Tw==

>  <s_epik_cmdline>  (40) 
J2VwaWtfcHl0aG9uJywgJy1waHQnLCAnMi4wJywgJy1waCcsICc3LjAnLCAnLXRuJywgJzgnLCAnLW1hJywgJzIwMCcsICctaW1hZScsICc8aW5maWxlLm1hZT4nLCAnLW9tYWUnLCAnPG91dGZpbGUubWFlPic=

>  <r_epik_Ionization_Penalty>  (40) 
2.17434

>  <r_epik_Ionization_Penalty_Charging>  (40) 
0.724193

>  <r_epik_Ionization_Penalty_Neutral>  (40) 
1.45015

>  <r_epik_State_Penalty>  (40) 
2.23526

>  <r_epik_Charging_Adjusted_Penalty>  (40) 
2.95945

>  <i_epik_Tot_Q>  (40) 
-1

>  <i_epik_Tot_abs_Q>  (40) 
1

>  <s_epik_Chemistry_Notes>  (40) 
This compound has an imine and may undergo hydrolysis.

>  <s_lp_Force_Field>  (40) 
OPLS3e

>  <r_lp_Energy>  (40) 
33.9557

>  <b_lp_Chiralities_Consistent>  (40) 
1

>  <s_lp_Variant>  (40) 
1:0-12

>  <s_i_glide_gridfile>  (40) 
pfpi4k_grid

>  <i_i_glide_lignum>  (40) 
14

>  <i_i_glide_rotatable_bonds>  (40) 
1

>  <r_i_docking_score>  (40) 
-4.30287

>  <r_i_glide_ligand_efficiency>  (40) 
-0.159365

>  <r_i_glide_ligand_efficiency_sa>  (40) 
-0.478096

>  <r_i_glide_ligand_efficiency_ln>  (40) 
-1.00164

>  <r_i_glide_gscore>  (40) 
-4.30287

>  <r_i_glide_lipo>  (40) 
-0.209918

>  <r_i_glide_hbond>  (40) 
-0.572093

>  <r_i_glide_metal>  (40) 
-0

>  <r_i_glide_rewards>  (40) 
-1.29101

>  <r_i_glide_evdw>  (40) 
-20.8091

>  <r_i_glide_ecoul>  (40) 
-8.89924

>  <r_i_glide_erotb>  (40) 
0.145495

>  <r_i_glide_esite>  (40) 
0

>  <r_i_glide_emodel>  (40) 
-39.7867

>  <r_i_glide_energy>  (40) 
-29.7083

>  <r_i_glide_einternal>  (40) 
0.261759

>  <r_i_glide_intrahb_reward>  (40) 
-0

>  <i_i_glide_confnum>  (40) 
1

>  <i_i_glide_posenum>  (40) 
33

>  <r_i_glide_eff_state_penalty>  (40) 
0

>  <ligand_id>  (40) 
1

>  <original_smiles>  (40) 
CC=Cc1ccc2c(c1)CC1(N=C(N)C3CC31)C1(C2)C(=O)NC(=O)NC1=O

>  <smiles>  (40) 
[H]C(=C([H])C([H])([H])[H])c1c([H])c([H])c2c(c1[H])C([H])([H])C1(N=C(N([H])[H])C3([H])C([H])([H])C31[H])C1(C(=O)[N-]C(=O)N([H])C1=O)C2([H])[H]

$$$$
1:11:1
     RDKit          3D

 46 50  0  0  1  0  0  0  0  0999 V2000
    7.1266   -4.0372    0.8867 C   0  0  0  0  0  0  0  0  0  0  0  0
    6.4009   -2.7083    0.7245 C   0  0  0  0  0  0  0  0  0  0  0  0
    5.1583   -2.3739    1.1341 C   0  0  0  0  0  0  0  0  0  0  0  0
    4.1479   -3.2259    1.7771 C   0  0  0  0  0  0  0  0  0  0  0  0
    3.1925   -2.6421    2.6416 C   0  0  0  0  0  0  0  0  0  0  0  0
    2.2335   -3.4457    3.2857 C   0  0  0  0  0  0  0  0  0  0  0  0
    2.2285   -4.8391    3.0933 C   0  0  0  0  0  0  0  0  0  0  0  0
    3.1929   -5.4273    2.2350 C   0  0  0  0  0  0  0  0  0  0  0  0
    4.1175   -4.6195    1.5643 C   0  0  0  0  0  0  0  0  0  0  0  0
    3.2432   -6.9202    1.9679 C   0  0  0  0  0  0  0  0  0  0  0  0
    2.4165   -7.7517    2.9784 C   0  0  1  0  0  0  0  0  0  0  0  0
    2.2471   -9.1154    2.4551 N   0  0  0  0  0  0  0  0  0  0  0  0
    2.7007   -9.9784    3.2995 C   0  0  0  0  0  0  0  0  0  0  0  0
    2.6260  -11.3467    3.2175 N   0  0  0  0  0  0  0  0  0  0  0  0
    3.3644   -9.3804    4.4973 C   0  0  1  0  0  0  0  0  0  0  0  0
    4.5931   -8.5076    4.3927 C   0  0  0  0  0  0  0  0  0  0  0  0
    3.2090   -7.9082    4.2870 C   0  0  1  0  0  0  0  0  0  0  0  0
    0.9984   -7.1048    3.2342 C   0  0  1  0  0  0  0  0  0  0  0  0
    1.1673   -5.6649    3.7927 C   0  0  0  0  0  0  0  0  0  0  0  0
    0.1789   -7.0337    1.8778 C   0  0  0  0  0  0  0  0  0  0  0  0
    0.5095   -6.2257    1.0060 O   0  0  0  0  0  0  0  0  0  0  0  0
   -0.8756   -7.8465    1.7182 N   0  0  0  0  0  0  0  0  0  0  0  0
   -1.3443   -8.6751    2.6629 C   0  0  0  0  0  0  0  0  0  0  0  0
   -2.2420   -9.4535    2.4349 O   0  0  0  0  0  0  0  0  0  0  0  0
   -0.8452   -8.6471    3.9104 N   0  0  0  0  0  0  0  0  0  0  0  0
    0.1723   -7.9011    4.3125 C   0  0  0  0  0  0  0  0  0  0  0  0
    0.4569   -7.8323    5.5144 O   0  0  0  0  0  0  0  0  0  0  0  0
    8.1529   -3.8585    1.2109 H   0  0  0  0  0  0  0  0  0  0  0  0
    7.1555   -4.5628   -0.0676 H   0  0  0  0  0  0  0  0  0  0  0  0
    6.6769   -4.6932    1.6341 H   0  0  0  0  0  0  0  0  0  0  0  0
    6.9730   -1.9467    0.2178 H   0  0  0  0  0  0  0  0  0  0  0  0
    4.8366   -1.3573    0.9544 H   0  0  0  0  0  0  0  0  0  0  0  0
    3.1797   -1.5715    2.8052 H   0  0  0  0  0  0  0  0  0  0  0  0
    1.4896   -2.9915    3.9252 H   0  0  0  0  0  0  0  0  0  0  0  0
    4.7892   -5.0993    0.8649 H   0  0  0  0  0  0  0  0  0  0  0  0
    2.8761   -7.0919    0.9574 H   0  0  0  0  0  0  0  0  0  0  0  0
    4.2763   -7.2656    1.9334 H   0  0  0  0  0  0  0  0  0  0  0  0
    2.1772  -11.8082    2.4373 H   0  0  0  0  0  0  0  0  0  0  0  0
    3.0028  -11.9802    3.9072 H   0  0  0  0  0  0  0  0  0  0  0  0
    3.0023   -9.7780    5.4452 H   0  0  0  0  0  0  0  0  0  0  0  0
    5.1331   -8.2672    5.3037 H   0  0  0  0  0  0  0  0  0  0  0  0
    5.1892   -8.5482    3.4836 H   0  0  0  0  0  0  0  0  0  0  0  0
    2.9122   -7.2929    5.1392 H   0  0  0  0  0  0  0  0  0  0  0  0
    1.4511   -5.6568    4.8469 H   0  0  0  0  0  0  0  0  0  0  0  0
    0.2185   -5.1239    3.7491 H   0  0  0  0  0  0  0  0  0  0  0  0
   -1.2842   -9.2757    4.5720 H   0  0  0  0  0  0  0  0  0  0  0  0
  1  2  1  0
  1 28  1  0
  1 29  1  0
  1 30  1  0
  2  3  2  3
  2 31  1  0
  3  4  1  0
  3 32  1  0
  4  9  2  0
  4  5  1  0
  5  6  2  0
  5 33  1  0
  6  7  1  0
  6 34  1  0
  7 19  1  0
  7  8  2  0
  8  9  1  0
  8 10  1  0
  9 35  1  0
 11 10  1  6
 10 36  1  0
 10 37  1  0
 11 17  1  0
 11 12  1  0
 11 18  1  0
 12 13  2  0
 13 14  1  0
 13 15  1  0
 14 38  1  0
 14 39  1  0
 15 17  1  0
 15 16  1  0
 15 40  1  1
 16 17  1  0
 16 41  1  0
 16 42  1  0
 17 43  1  1
 18 26  1  0
 18 19  1  1
 18 20  1  0
 19 44  1  0
 19 45  1  0
 20 21  2  0
 20 22  1  0
 22 23  1  0
 23 24  2  0
 23 25  1  0
 25 26  1  0
 25 46  1  0
 26 27  2  0
M  CHG  1  22  -1
M  END
>  <i_m_ct_stereo_status>  (41) 
1

>  <s_m_source_file>  (41) 
/var/tmp/pbs.5076255.sched01/tmp6mrmgolx/06cp14zw5.sdf

>  <i_m_source_file_index>  (41) 
14

>  <i_lp_mmshare_version>  (41) 
48012

>  <i_f3d_flags>  (41) 
0

>  <s_epik_input>  (41) 
W0NIM10vW0NIXT1bQ0hdL2MoW2NIXVtjSF0xKVtjSF1jKFtDSDJdMiljMVtDSDJdQzMoW0NAXTI0W0NASF01W0NIXShbQ0gyXTUpQyg9TjQpW05IMl0pQyg9TylbTkhdQyg9TylbTkhdQzM9Tw==

>  <s_epik_cmdline>  (41) 
J2VwaWtfcHl0aG9uJywgJy1waHQnLCAnMi4wJywgJy1waCcsICc3LjAnLCAnLXRuJywgJzgnLCAnLW1hJywgJzIwMCcsICctaW1hZScsICc8aW5maWxlLm1hZT4nLCAnLW9tYWUnLCAnPG91dGZpbGUubWFlPic=

>  <r_epik_Ionization_Penalty>  (41) 
2.17434

>  <r_epik_Ionization_Penalty_Charging>  (41) 
0.724193

>  <r_epik_Ionization_Penalty_Neutral>  (41) 
1.45015

>  <r_epik_State_Penalty>  (41) 
2.23526

>  <r_epik_Charging_Adjusted_Penalty>  (41) 
2.95945

>  <i_epik_Tot_Q>  (41) 
-1

>  <i_epik_Tot_abs_Q>  (41) 
1

>  <s_epik_Chemistry_Notes>  (41) 
This compound has an imine and may undergo hydrolysis.

>  <s_lp_Force_Field>  (41) 
OPLS3e

>  <r_lp_Energy>  (41) 
33.9557

>  <b_lp_Chiralities_Consistent>  (41) 
1

>  <s_lp_Variant>  (41) 
1:0-12

>  <s_i_glide_gridfile>  (41) 
pfpi4k_grid

>  <i_i_glide_lignum>  (41) 
14

>  <i_i_glide_rotatable_bonds>  (41) 
1

>  <r_i_docking_score>  (41) 
-4.03862

>  <r_i_glide_ligand_efficiency>  (41) 
-0.149579

>  <r_i_glide_ligand_efficiency_sa>  (41) 
-0.448736

>  <r_i_glide_ligand_efficiency_ln>  (41) 
-0.940125

>  <r_i_glide_gscore>  (41) 
-4.03862

>  <r_i_glide_lipo>  (41) 
-0.290965

>  <r_i_glide_hbond>  (41) 
-0.305438

>  <r_i_glide_metal>  (41) 
-0

>  <r_i_glide_rewards>  (41) 
-0.935226

>  <r_i_glide_evdw>  (41) 
-26.9084

>  <r_i_glide_ecoul>  (41) 
-7.26527

>  <r_i_glide_erotb>  (41) 
0.145495

>  <r_i_glide_esite>  (41) 
-0.21728

>  <r_i_glide_emodel>  (41) 
-43.5592

>  <r_i_glide_energy>  (41) 
-34.1736

>  <r_i_glide_einternal>  (41) 
0.0318761

>  <r_i_glide_intrahb_reward>  (41) 
-0

>  <i_i_glide_confnum>  (41) 
3

>  <i_i_glide_posenum>  (41) 
14

>  <r_i_glide_eff_state_penalty>  (41) 
0

>  <ligand_id>  (41) 
1

>  <original_smiles>  (41) 
CC=Cc1ccc2c(c1)CC1(N=C(N)C3CC31)C1(C2)C(=O)NC(=O)NC1=O

>  <smiles>  (41) 
[H]C(=C([H])C([H])([H])[H])c1c([H])c([H])c2c(c1[H])C([H])([H])C1(N=C(N([H])[H])C3([H])C([H])([H])C31[H])C1(C(=O)[N-]C(=O)N([H])C1=O)C2([H])[H]

$$$$
1:11:2
     RDKit          3D

 46 50  0  0  1  0  0  0  0  0999 V2000
    3.7658    0.0374    1.7651 C   0  0  0  0  0  0  0  0  0  0  0  0
    5.0085   -0.8374    1.6821 C   0  0  0  0  0  0  0  0  0  0  0  0
    5.1261   -2.1464    1.9890 C   0  0  0  0  0  0  0  0  0  0  0  0
    4.1093   -3.0390    2.5640 C   0  0  0  0  0  0  0  0  0  0  0  0
    3.0957   -2.5546    3.4188 C   0  0  0  0  0  0  0  0  0  0  0  0
    2.1116   -3.4135    3.9235 C   0  0  0  0  0  0  0  0  0  0  0  0
    2.1422   -4.7817    3.6134 C   0  0  0  0  0  0  0  0  0  0  0  0
    3.1728   -5.2897    2.7779 C   0  0  0  0  0  0  0  0  0  0  0  0
    4.1386   -4.4157    2.2478 C   0  0  0  0  0  0  0  0  0  0  0  0
    3.2427   -6.7644    2.4058 C   0  0  0  0  0  0  0  0  0  0  0  0
    2.3726   -7.6691    3.3173 C   0  0  1  0  0  0  0  0  0  0  0  0
    2.2469   -8.9898    2.6884 N   0  0  0  0  0  0  0  0  0  0  0  0
    2.6652   -9.9098    3.4858 C   0  0  0  0  0  0  0  0  0  0  0  0
    2.6157  -11.2707    3.2961 N   0  0  0  0  0  0  0  0  0  0  0  0
    3.2609   -9.3974    4.7582 C   0  0  1  0  0  0  0  0  0  0  0  0
    4.4838   -8.5081    4.7777 C   0  0  0  0  0  0  0  0  0  0  0  0
    3.1001   -7.9143    4.6481 C   0  0  1  0  0  0  0  0  0  0  0  0
    0.9325   -7.0581    3.5430 C   0  0  1  0  0  0  0  0  0  0  0  0
    1.0581   -5.6598    4.2024 C   0  0  0  0  0  0  0  0  0  0  0  0
    0.1853   -6.8990    2.1625 C   0  0  0  0  0  0  0  0  0  0  0  0
    0.5523   -6.0115    1.3866 O   0  0  0  0  0  0  0  0  0  0  0  0
   -0.8468   -7.7313    1.8838 N   0  0  0  0  0  0  0  0  0  0  0  0
   -1.3524   -8.6416    2.7472 C   0  0  0  0  0  0  0  0  0  0  0  0
   -2.1909   -9.4665    2.4238 O   0  0  0  0  0  0  0  0  0  0  0  0
   -0.9449   -8.6513    4.0204 N   0  0  0  0  0  0  0  0  0  0  0  0
    0.0554   -7.9281    4.5220 C   0  0  0  0  0  0  0  0  0  0  0  0
    0.2883   -7.9439    5.7376 O   0  0  0  0  0  0  0  0  0  0  0  0
    3.6767    0.6347    0.8587 H   0  0  0  0  0  0  0  0  0  0  0  0
    3.8403    0.7187    2.6136 H   0  0  0  0  0  0  0  0  0  0  0  0
    2.8365   -0.5256    1.8458 H   0  0  0  0  0  0  0  0  0  0  0  0
    5.8933   -0.3296    1.3266 H   0  0  0  0  0  0  0  0  0  0  0  0
    6.0909   -2.6070    1.8283 H   0  0  0  0  0  0  0  0  0  0  0  0
    3.0525   -1.5183    3.7176 H   0  0  0  0  0  0  0  0  0  0  0  0
    1.3299   -3.0215    4.5542 H   0  0  0  0  0  0  0  0  0  0  0  0
    4.9042   -4.8065    1.5881 H   0  0  0  0  0  0  0  0  0  0  0  0
    2.9219   -6.8641    1.3675 H   0  0  0  0  0  0  0  0  0  0  0  0
    4.2801   -7.0984    2.3938 H   0  0  0  0  0  0  0  0  0  0  0  0
    2.2005  -11.6832    2.4721 H   0  0  0  0  0  0  0  0  0  0  0  0
    2.9541  -11.9488    3.9629 H   0  0  0  0  0  0  0  0  0  0  0  0
    2.8580   -9.8626    5.6569 H   0  0  0  0  0  0  0  0  0  0  0  0
    4.9758   -8.3267    5.7283 H   0  0  0  0  0  0  0  0  0  0  0  0
    5.1227   -8.4782    3.8989 H   0  0  0  0  0  0  0  0  0  0  0  0
    2.7596   -7.3650    5.5250 H   0  0  0  0  0  0  0  0  0  0  0  0
    1.2885   -5.7159    5.2700 H   0  0  0  0  0  0  0  0  0  0  0  0
    0.1057   -5.1267    4.1561 H   0  0  0  0  0  0  0  0  0  0  0  0
   -1.3911   -9.3284    4.6268 H   0  0  0  0  0  0  0  0  0  0  0  0
  1  2  1  0
  1 28  1  0
  1 29  1  0
  1 30  1  0
  2  3  2  3
  2 31  1  0
  3  4  1  0
  3 32  1  0
  4  9  2  0
  4  5  1  0
  5  6  2  0
  5 33  1  0
  6  7  1  0
  6 34  1  0
  7 19  1  0
  7  8  2  0
  8  9  1  0
  8 10  1  0
  9 35  1  0
 11 10  1  6
 10 36  1  0
 10 37  1  0
 11 17  1  0
 11 12  1  0
 11 18  1  0
 12 13  2  0
 13 14  1  0
 13 15  1  0
 14 38  1  0
 14 39  1  0
 15 17  1  0
 15 16  1  0
 15 40  1  1
 16 17  1  0
 16 41  1  0
 16 42  1  0
 17 43  1  1
 18 26  1  0
 18 19  1  1
 18 20  1  0
 19 44  1  0
 19 45  1  0
 20 21  2  0
 20 22  1  0
 22 23  1  0
 23 24  2  0
 23 25  1  0
 25 26  1  0
 25 46  1  0
 26 27  2  0
M  CHG  1  22  -1
M  END
>  <i_m_ct_stereo_status>  (42) 
1

>  <s_m_source_file>  (42) 
/var/tmp/pbs.5076255.sched01/tmp6mrmgolx/06cp14zw5.sdf

>  <i_m_source_file_index>  (42) 
14

>  <i_lp_mmshare_version>  (42) 
48012

>  <i_f3d_flags>  (42) 
0

>  <s_epik_input>  (42) 
W0NIM10vW0NIXT1bQ0hdL2MoW2NIXVtjSF0xKVtjSF1jKFtDSDJdMiljMVtDSDJdQzMoW0NAXTI0W0NASF01W0NIXShbQ0gyXTUpQyg9TjQpW05IMl0pQyg9TylbTkhdQyg9TylbTkhdQzM9Tw==

>  <s_epik_cmdline>  (42) 
J2VwaWtfcHl0aG9uJywgJy1waHQnLCAnMi4wJywgJy1waCcsICc3LjAnLCAnLXRuJywgJzgnLCAnLW1hJywgJzIwMCcsICctaW1hZScsICc8aW5maWxlLm1hZT4nLCAnLW9tYWUnLCAnPG91dGZpbGUubWFlPic=

>  <r_epik_Ionization_Penalty>  (42) 
2.17434

>  <r_epik_Ionization_Penalty_Charging>  (42) 
0.724193

>  <r_epik_Ionization_Penalty_Neutral>  (42) 
1.45015

>  <r_epik_State_Penalty>  (42) 
2.23526

>  <r_epik_Charging_Adjusted_Penalty>  (42) 
2.95945

>  <i_epik_Tot_Q>  (42) 
-1

>  <i_epik_Tot_abs_Q>  (42) 
1

>  <s_epik_Chemistry_Notes>  (42) 
This compound has an imine and may undergo hydrolysis.

>  <s_lp_Force_Field>  (42) 
OPLS3e

>  <r_lp_Energy>  (42) 
33.9557

>  <b_lp_Chiralities_Consistent>  (42) 
1

>  <s_lp_Variant>  (42) 
1:0-12

>  <s_i_glide_gridfile>  (42) 
pfpi4k_grid

>  <i_i_glide_lignum>  (42) 
14

>  <i_i_glide_rotatable_bonds>  (42) 
1

>  <r_i_docking_score>  (42) 
-3.93668

>  <r_i_glide_ligand_efficiency>  (42) 
-0.145803

>  <r_i_glide_ligand_efficiency_sa>  (42) 
-0.437409

>  <r_i_glide_ligand_efficiency_ln>  (42) 
-0.916395

>  <r_i_glide_gscore>  (42) 
-3.93668

>  <r_i_glide_lipo>  (42) 
-0.223847

>  <r_i_glide_hbond>  (42) 
-0.332111

>  <r_i_glide_metal>  (42) 
-0

>  <r_i_glide_rewards>  (42) 
-0.931433

>  <r_i_glide_evdw>  (42) 
-23.6821

>  <r_i_glide_ecoul>  (42) 
-7.8839

>  <r_i_glide_erotb>  (42) 
0.145495

>  <r_i_glide_esite>  (42) 
-0.2281

>  <r_i_glide_emodel>  (42) 
-40.8448

>  <r_i_glide_energy>  (42) 
-31.566

>  <r_i_glide_einternal>  (42) 
0.0486892

>  <r_i_glide_intrahb_reward>  (42) 
-0

>  <i_i_glide_confnum>  (42) 
4

>  <i_i_glide_posenum>  (42) 
29

>  <r_i_glide_eff_state_penalty>  (42) 
0

>  <ligand_id>  (42) 
1

>  <original_smiles>  (42) 
CC=Cc1ccc2c(c1)CC1(N=C(N)C3CC31)C1(C2)C(=O)NC(=O)NC1=O

>  <smiles>  (42) 
[H]C(=C([H])C([H])([H])[H])c1c([H])c([H])c2c(c1[H])C([H])([H])C1(N=C(N([H])[H])C3([H])C([H])([H])C31[H])C1(C(=O)[N-]C(=O)N([H])C1=O)C2([H])[H]

$$$$
2:0:0
     RDKit          3D

 38 42  0  0  1  0  0  0  0  0999 V2000
    2.1473   -1.3000    1.6707 N   0  0  0  0  0  0  0  0  0  0  0  0
    2.6602   -2.6435    1.3996 C   0  0  0  0  0  0  0  0  0  0  0  0
    3.9017   -2.6444    0.4847 C   0  0  2  0  0  0  0  0  0  0  0  0
    4.3859   -4.1231    0.2067 C   0  0  0  0  0  0  0  0  0  0  0  0
    5.9342   -4.1535    0.0912 C   0  0  2  0  0  0  0  0  0  0  0  0
    6.4000   -3.9188    1.5079 C   0  0  0  0  0  0  0  0  0  0  0  0
    5.8939   -2.8132    2.0773 C   0  0  0  0  0  0  0  0  0  0  0  0
    5.0961   -1.9066    1.1735 C   0  0  1  0  0  0  0  0  0  0  0  0
    5.9236   -1.5834   -0.0835 C   0  0  2  0  0  0  0  0  0  0  0  0
    4.8737   -0.8577   -0.8960 C   0  0  0  0  0  0  0  0  0  0  0  0
    3.6889   -1.8216   -0.8520 C   0  0  1  0  0  0  0  0  0  0  0  0
    3.5318   -2.6544   -2.1115 C   0  0  1  0  0  0  0  0  0  0  0  0
    3.9541   -2.2241   -3.4968 C   0  0  0  0  0  0  0  0  0  0  0  0
    4.7393   -3.3080   -2.7570 C   0  0  1  0  0  0  0  0  0  0  0  0
    6.1654   -3.0733   -2.2678 C   0  0  0  0  0  0  0  0  0  0  0  0
    6.4186   -2.9323   -0.7433 C   0  0  2  0  0  0  0  0  0  0  0  0
    1.3398   -1.3306    2.2742 H   0  0  0  0  0  0  0  0  0  0  0  0
    1.8565   -0.8766    0.7883 H   0  0  0  0  0  0  0  0  0  0  0  0
    2.9006   -3.1284    2.3501 H   0  0  0  0  0  0  0  0  0  0  0  0
    1.8914   -3.2374    0.9090 H   0  0  0  0  0  0  0  0  0  0  0  0
    4.1028   -4.7709    1.0437 H   0  0  0  0  0  0  0  0  0  0  0  0
    3.9064   -4.6016   -0.6511 H   0  0  0  0  0  0  0  0  0  0  0  0
    6.3169   -5.1005   -0.2913 H   0  0  0  0  0  0  0  0  0  0  0  0
    7.0464   -4.6358    1.9852 H   0  0  0  0  0  0  0  0  0  0  0  0
    6.0611   -2.5008    3.0987 H   0  0  0  0  0  0  0  0  0  0  0  0
    4.8186   -0.9949    1.7094 H   0  0  0  0  0  0  0  0  0  0  0  0
    6.7614   -0.9216    0.1503 H   0  0  0  0  0  0  0  0  0  0  0  0
    4.5926    0.0543   -0.3628 H   0  0  0  0  0  0  0  0  0  0  0  0
    5.2179   -0.5324   -1.8738 H   0  0  0  0  0  0  0  0  0  0  0  0
    2.8011   -1.2013   -0.8204 H   0  0  0  0  0  0  0  0  0  0  0  0
    2.6269   -3.2602   -2.1006 H   0  0  0  0  0  0  0  0  0  0  0  0
    3.3132   -2.5534   -4.3030 H   0  0  0  0  0  0  0  0  0  0  0  0
    4.4326   -1.2600   -3.6598 H   0  0  0  0  0  0  0  0  0  0  0  0
    4.5739   -4.3245   -3.1250 H   0  0  0  0  0  0  0  0  0  0  0  0
    6.7808   -3.8667   -2.6750 H   0  0  0  0  0  0  0  0  0  0  0  0
    6.5939   -2.2346   -2.7453 H   0  0  0  0  0  0  0  0  0  0  0  0
    7.5051   -2.9080   -0.6538 H   0  0  0  0  0  0  0  0  0  0  0  0
    2.8516   -0.7140    2.1012 H   0  0  0  0  0  0  0  0  0  0  0  0
  1  2  1  0
  1 17  1  0
  1 18  1  0
  1 38  1  0
  3  2  1  1
  2 19  1  0
  2 20  1  0
  3  8  1  0
  3 11  1  0
  3  4  1  0
  4  5  1  0
  4 21  1  0
  4 22  1  0
  5 16  1  0
  5  6  1  0
  5 23  1  6
  6  7  2  0
  6 24  1  0
  7  8  1  0
  7 25  1  0
  8  9  1  0
  8 26  1  1
  9 16  1  0
  9 10  1  0
  9 27  1  1
 10 11  1  0
 10 28  1  0
 10 29  1  0
 11 12  1  0
 11 30  1  1
 12 14  1  0
 12 13  1  0
 12 31  1  6
 13 14  1  0
 13 32  1  0
 13 33  1  0
 14 15  1  0
 14 34  1  6
 15 16  1  0
 15 35  1  0
 15 36  1  0
 16 37  1  6
M  CHG  1   1   1
M  END
>  <i_m_ct_stereo_status>  (43) 
1

>  <s_m_source_file>  (43) 
/var/tmp/pbs.5076255.sched01/tmp6mrmgolx/06cp14zw5.sdf

>  <i_m_source_file_index>  (43) 
15

>  <i_lp_mmshare_version>  (43) 
48012

>  <i_f3d_flags>  (43) 
0

>  <s_epik_input>  (43) 
W05IMl1bQ0gyXVtDQEBdMTJbQ0BASF0zW0NASF00W0NAQEhdKFtDQEhdKFtDSDJdMSlbQ0hdPVtDSF0zKVtDSDJdW0NASF01W0NASF0oW0NIMl01KVtDQEBIXTJbQ0gyXTQ=

>  <s_epik_cmdline>  (43) 
J2VwaWtfcHl0aG9uJywgJy1waHQnLCAnMi4wJywgJy1waCcsICc3LjAnLCAnLXRuJywgJzgnLCAnLW1hJywgJzIwMCcsICctaW1hZScsICc8aW5maWxlLm1hZT4nLCAnLW9tYWUnLCAnPG91dGZpbGUubWFlPic=

>  <r_epik_Ionization_Penalty>  (43) 
0.000306607

>  <r_epik_Ionization_Penalty_Charging>  (43) 
0.000306607

>  <r_epik_Ionization_Penalty_Neutral>  (43) 
0

>  <r_epik_State_Penalty>  (43) 
0.000184587

>  <r_epik_Charging_Adjusted_Penalty>  (43) 
0.000491194

>  <i_epik_Tot_Q>  (43) 
1

>  <i_epik_Tot_abs_Q>  (43) 
1

>  <s_lp_Force_Field>  (43) 
OPLS3e

>  <r_lp_Energy>  (43) 
66.0041

>  <b_lp_Chiralities_Consistent>  (43) 
1

>  <s_lp_Variant>  (43) 
2:0-1

>  <s_i_glide_gridfile>  (43) 
pfpi4k_grid

>  <i_i_glide_lignum>  (43) 
15

>  <i_i_glide_rotatable_bonds>  (43) 
1

>  <r_i_docking_score>  (43) 
-4.68182

>  <r_i_glide_ligand_efficiency>  (43) 
-0.292614

>  <r_i_glide_ligand_efficiency_sa>  (43) 
-0.73734

>  <r_i_glide_ligand_efficiency_ln>  (43) 
-1.24101

>  <r_i_glide_gscore>  (43) 
-4.68182

>  <r_i_glide_lipo>  (43) 
-0.748931

>  <r_i_glide_hbond>  (43) 
-0.189375

>  <r_i_glide_metal>  (43) 
-0

>  <r_i_glide_rewards>  (43) 
-1.93403

>  <r_i_glide_evdw>  (43) 
-16.8641

>  <r_i_glide_ecoul>  (43) 
-5.9335

>  <r_i_glide_erotb>  (43) 
0

>  <r_i_glide_esite>  (43) 
-0.0762519

>  <r_i_glide_emodel>  (43) 
-30.4384

>  <r_i_glide_energy>  (43) 
-22.7976

>  <r_i_glide_einternal>  (43) 
1.14361

>  <r_i_glide_intrahb_reward>  (43) 
-0

>  <i_i_glide_confnum>  (43) 
1

>  <i_i_glide_posenum>  (43) 
5

>  <r_i_glide_eff_state_penalty>  (43) 
0

>  <ligand_id>  (43) 
2

>  <original_smiles>  (43) 
NCC12CC3C=CC1C1CC2C2CC2CC31

>  <smiles>  (43) 
[H]C1=C([H])C2([H])C3([H])C([H])([H])C4([H])C5([H])C([H])([H])C5([H])C([H])([H])C3([H])C1([H])C([H])([H])C24C([H])([H])[N+]([H])([H])[H]

$$$$
2:0:1
     RDKit          3D

 38 42  0  0  1  0  0  0  0  0999 V2000
    2.6121   -0.8018    1.6468 N   0  0  0  0  0  0  0  0  0  0  0  0
    2.6523   -2.2016    1.2782 C   0  0  0  0  0  0  0  0  0  0  0  0
    3.7028   -2.5333    0.1848 C   0  0  2  0  0  0  0  0  0  0  0  0
    3.5874   -4.0342   -0.2797 C   0  0  0  0  0  0  0  0  0  0  0  0
    4.9985   -4.5796   -0.6543 C   0  0  2  0  0  0  0  0  0  0  0  0
    5.6977   -4.7175    0.6793 C   0  0  0  0  0  0  0  0  0  0  0  0
    5.7334   -3.5975    1.4062 C   0  0  0  0  0  0  0  0  0  0  0  0
    5.1657   -2.3634    0.7231 C   0  0  1  0  0  0  0  0  0  0  0  0
    5.8808   -2.1741   -0.6313 C   0  0  2  0  0  0  0  0  0  0  0  0
    5.0752   -1.0457   -1.2010 C   0  0  0  0  0  0  0  0  0  0  0  0
    3.6360   -1.5364   -1.0476 C   0  0  1  0  0  0  0  0  0  0  0  0
    3.0664   -2.0939   -2.3358 C   0  0  1  0  0  0  0  0  0  0  0  0
    3.4364   -1.6467   -3.7371 C   0  0  0  0  0  0  0  0  0  0  0  0
    3.8558   -3.0257   -3.2253 C   0  0  1  0  0  0  0  0  0  0  0  0
    5.3073   -3.3587   -2.9609 C   0  0  0  0  0  0  0  0  0  0  0  0
    5.7684   -3.5012   -1.4742 C   0  0  2  0  0  0  0  0  0  0  0  0
    1.9205   -0.6221    2.3541 H   0  0  0  0  0  0  0  0  0  0  0  0
    2.3524   -0.2625    0.8185 H   0  0  0  0  0  0  0  0  0  0  0  0
    2.8387   -2.8113    2.1681 H   0  0  0  0  0  0  0  0  0  0  0  0
    1.6612   -2.4732    0.9106 H   0  0  0  0  0  0  0  0  0  0  0  0
    3.1892   -4.6546    0.5277 H   0  0  0  0  0  0  0  0  0  0  0  0
    2.8712   -4.2065   -1.0900 H   0  0  0  0  0  0  0  0  0  0  0  0
    4.9635   -5.5482   -1.1632 H   0  0  0  0  0  0  0  0  0  0  0  0
    6.0893   -5.6768    0.9987 H   0  0  0  0  0  0  0  0  0  0  0  0
    6.1755   -3.5238    2.3885 H   0  0  0  0  0  0  0  0  0  0  0  0
    5.2829   -1.4843    1.3711 H   0  0  0  0  0  0  0  0  0  0  0  0
    6.9278   -1.8853   -0.4859 H   0  0  0  0  0  0  0  0  0  0  0  0
    5.2107   -0.1805   -0.5505 H   0  0  0  0  0  0  0  0  0  0  0  0
    5.3981   -0.7317   -2.1894 H   0  0  0  0  0  0  0  0  0  0  0  0
    3.0247   -0.6570   -0.8411 H   0  0  0  0  0  0  0  0  0  0  0  0
    2.0022   -2.3400   -2.2485 H   0  0  0  0  0  0  0  0  0  0  0  0
    2.6209   -1.6132   -4.4466 H   0  0  0  0  0  0  0  0  0  0  0  0
    4.2061   -0.9020   -3.8866 H   0  0  0  0  0  0  0  0  0  0  0  0
    3.2746   -3.8643   -3.6267 H   0  0  0  0  0  0  0  0  0  0  0  0
    5.4650   -4.3155   -3.4541 H   0  0  0  0  0  0  0  0  0  0  0  0
    5.9418   -2.6538   -3.4937 H   0  0  0  0  0  0  0  0  0  0  0  0
    6.8027   -3.8507   -1.5507 H   0  0  0  0  0  0  0  0  0  0  0  0
    3.5149   -0.4828    1.9751 H   0  0  0  0  0  0  0  0  0  0  0  0
  1  2  1  0
  1 17  1  0
  1 18  1  0
  1 38  1  0
  3  2  1  1
  2 19  1  0
  2 20  1  0
  3  8  1  0
  3 11  1  0
  3  4  1  0
  4  5  1  0
  4 21  1  0
  4 22  1  0
  5 16  1  0
  5  6  1  0
  5 23  1  6
  6  7  2  0
  6 24  1  0
  7  8  1  0
  7 25  1  0
  8  9  1  0
  8 26  1  1
  9 16  1  0
  9 10  1  0
  9 27  1  1
 10 11  1  0
 10 28  1  0
 10 29  1  0
 11 12  1  0
 11 30  1  1
 12 14  1  0
 12 13  1  0
 12 31  1  1
 13 14  1  0
 13 32  1  0
 13 33  1  0
 14 15  1  0
 14 34  1  6
 15 16  1  0
 15 35  1  0
 15 36  1  0
 16 37  1  6
M  CHG  1   1   1
M  END
>  <i_m_ct_stereo_status>  (44) 
1

>  <s_m_source_file>  (44) 
/var/tmp/pbs.5076255.sched01/tmp6mrmgolx/06cp14zw5.sdf

>  <i_m_source_file_index>  (44) 
15

>  <i_lp_mmshare_version>  (44) 
48012

>  <i_f3d_flags>  (44) 
0

>  <s_epik_input>  (44) 
W05IMl1bQ0gyXVtDQEBdMTJbQ0BASF0zW0NASF00W0NAQEhdKFtDQEhdKFtDSDJdMSlbQ0hdPVtDSF0zKVtDSDJdW0NASF01W0NASF0oW0NIMl01KVtDQEBIXTJbQ0gyXTQ=

>  <s_epik_cmdline>  (44) 
J2VwaWtfcHl0aG9uJywgJy1waHQnLCAnMi4wJywgJy1waCcsICc3LjAnLCAnLXRuJywgJzgnLCAnLW1hJywgJzIwMCcsICctaW1hZScsICc8aW5maWxlLm1hZT4nLCAnLW9tYWUnLCAnPG91dGZpbGUubWFlPic=

>  <r_epik_Ionization_Penalty>  (44) 
0.000306607

>  <r_epik_Ionization_Penalty_Charging>  (44) 
0.000306607

>  <r_epik_Ionization_Penalty_Neutral>  (44) 
0

>  <r_epik_State_Penalty>  (44) 
0.000184587

>  <r_epik_Charging_Adjusted_Penalty>  (44) 
0.000491194

>  <i_epik_Tot_Q>  (44) 
1

>  <i_epik_Tot_abs_Q>  (44) 
1

>  <s_lp_Force_Field>  (44) 
OPLS3e

>  <r_lp_Energy>  (44) 
66.0041

>  <b_lp_Chiralities_Consistent>  (44) 
1

>  <s_lp_Variant>  (44) 
2:0-1

>  <s_i_glide_gridfile>  (44) 
pfpi4k_grid

>  <i_i_glide_lignum>  (44) 
15

>  <i_i_glide_rotatable_bonds>  (44) 
1

>  <r_i_docking_score>  (44) 
-4.50826

>  <r_i_glide_ligand_efficiency>  (44) 
-0.281766

>  <r_i_glide_ligand_efficiency_sa>  (44) 
-0.710006

>  <r_i_glide_ligand_efficiency_ln>  (44) 
-1.195

>  <r_i_glide_gscore>  (44) 
-4.50826

>  <r_i_glide_lipo>  (44) 
-0.834455

>  <r_i_glide_hbond>  (44) 
-0.00879306

>  <r_i_glide_metal>  (44) 
-0

>  <r_i_glide_rewards>  (44) 
-1.93403

>  <r_i_glide_evdw>  (44) 
-20.8227

>  <r_i_glide_ecoul>  (44) 
-4.2342

>  <r_i_glide_erotb>  (44) 
0

>  <r_i_glide_esite>  (44) 
-0.0547145

>  <r_i_glide_emodel>  (44) 
-32.1896

>  <r_i_glide_energy>  (44) 
-25.0569

>  <r_i_glide_einternal>  (44) 
1.61856

>  <r_i_glide_intrahb_reward>  (44) 
-0

>  <i_i_glide_confnum>  (44) 
2

>  <i_i_glide_posenum>  (44) 
22

>  <r_i_glide_eff_state_penalty>  (44) 
0

>  <ligand_id>  (44) 
2

>  <original_smiles>  (44) 
NCC12CC3C=CC1C1CC2C2CC2CC31

>  <smiles>  (44) 
[H]C1=C([H])C2([H])C3([H])C([H])([H])C4([H])C5([H])C([H])([H])C5([H])C([H])([H])C3([H])C1([H])C([H])([H])C24C([H])([H])[N+]([H])([H])[H]

$$$$
2:0:2
     RDKit          3D

 38 42  0  0  1  0  0  0  0  0999 V2000
    2.2171   -0.1756    1.2827 N   0  0  0  0  0  0  0  0  0  0  0  0
    3.1342   -1.1030    1.9562 C   0  0  0  0  0  0  0  0  0  0  0  0
    3.9167   -1.9870    0.9537 C   0  0  2  0  0  0  0  0  0  0  0  0
    3.0431   -3.2269    0.5034 C   0  0  0  0  0  0  0  0  0  0  0  0
    3.9664   -4.4487    0.2436 C   0  0  2  0  0  0  0  0  0  0  0  0
    4.4205   -4.8710    1.6247 C   0  0  0  0  0  0  0  0  0  0  0  0
    5.0195   -3.9024    2.3342 C   0  0  0  0  0  0  0  0  0  0  0  0
    5.2243   -2.5858    1.5971 C   0  0  1  0  0  0  0  0  0  0  0  0
    6.0013   -2.8792    0.2937 C   0  0  2  0  0  0  0  0  0  0  0  0
    5.9756   -1.5100   -0.3384 C   0  0  0  0  0  0  0  0  0  0  0  0
    4.4937   -1.1444   -0.2599 C   0  0  1  0  0  0  0  0  0  0  0  0
    3.7520   -1.3715   -1.5788 C   0  0  1  0  0  0  0  0  0  0  0  0
    4.3421   -1.2897   -2.9533 C   0  0  0  0  0  0  0  0  0  0  0  0
    3.9400   -2.6405   -2.3920 C   0  0  1  0  0  0  0  0  0  0  0  0
    4.9955   -3.6920   -2.0496 C   0  0  0  0  0  0  0  0  0  0  0  0
    5.2376   -3.9893   -0.5378 C   0  0  2  0  0  0  0  0  0  0  0  0
    1.7071    0.3833    1.9469 H   0  0  0  0  0  0  0  0  0  0  0  0
    1.5501   -0.6481    0.6612 H   0  0  0  0  0  0  0  0  0  0  0  0
    3.8247   -0.5049    2.5425 H   0  0  0  0  0  0  0  0  0  0  0  0
    2.5768   -1.7162    2.6610 H   0  0  0  0  0  0  0  0  0  0  0  0
    2.3526   -3.5025    1.3042 H   0  0  0  0  0  0  0  0  0  0  0  0
    2.3860   -3.0236   -0.3400 H   0  0  0  0  0  0  0  0  0  0  0  0
    3.4474   -5.2729   -0.2455 H   0  0  0  0  0  0  0  0  0  0  0  0
    4.2465   -5.8718    1.9858 H   0  0  0  0  0  0  0  0  0  0  0  0
    5.4090   -4.0247    3.3342 H   0  0  0  0  0  0  0  0  0  0  0  0
    5.7553   -1.8684    2.2320 H   0  0  0  0  0  0  0  0  0  0  0  0
    7.0262   -3.1875    0.4963 H   0  0  0  0  0  0  0  0  0  0  0  0
    6.5522   -0.8133    0.2712 H   0  0  0  0  0  0  0  0  0  0  0  0
    6.4304   -1.5041   -1.3198 H   0  0  0  0  0  0  0  0  0  0  0  0
    4.4611   -0.0749   -0.0580 H   0  0  0  0  0  0  0  0  0  0  0  0
    2.7321   -1.0006   -1.5461 H   0  0  0  0  0  0  0  0  0  0  0  0
    3.7032   -0.8689   -3.7211 H   0  0  0  0  0  0  0  0  0  0  0  0
    5.4002   -1.0829   -3.0671 H   0  0  0  0  0  0  0  0  0  0  0  0
    3.0233   -3.0616   -2.8061 H   0  0  0  0  0  0  0  0  0  0  0  0
    4.6459   -4.6150   -2.5081 H   0  0  0  0  0  0  0  0  0  0  0  0
    5.9303   -3.4525   -2.5606 H   0  0  0  0  0  0  0  0  0  0  0  0
    5.9005   -4.8513   -0.5365 H   0  0  0  0  0  0  0  0  0  0  0  0
    2.7475    0.4412    0.6879 H   0  0  0  0  0  0  0  0  0  0  0  0
  1  2  1  0
  1 17  1  0
  1 18  1  0
  1 38  1  0
  3  2  1  1
  2 19  1  0
  2 20  1  0
  3  8  1  0
  3 11  1  0
  3  4  1  0
  4  5  1  0
  4 21  1  0
  4 22  1  0
  5 16  1  0
  5  6  1  0
  5 23  1  6
  6  7  2  0
  6 24  1  0
  7  8  1  0
  7 25  1  0
  8  9  1  0
  8 26  1  1
  9 16  1  0
  9 10  1  0
  9 27  1  1
 10 11  1  0
 10 28  1  0
 10 29  1  0
 11 12  1  0
 11 30  1  1
 12 14  1  0
 12 13  1  0
 12 31  1  6
 13 14  1  0
 13 32  1  0
 13 33  1  0
 14 15  1  0
 14 34  1  6
 15 16  1  0
 15 35  1  0
 15 36  1  0
 16 37  1  6
M  CHG  1   1   1
M  END
>  <i_m_ct_stereo_status>  (45) 
1

>  <s_m_source_file>  (45) 
/var/tmp/pbs.5076255.sched01/tmp6mrmgolx/06cp14zw5.sdf

>  <i_m_source_file_index>  (45) 
15

>  <i_lp_mmshare_version>  (45) 
48012

>  <i_f3d_flags>  (45) 
0

>  <s_epik_input>  (45) 
W05IMl1bQ0gyXVtDQEBdMTJbQ0BASF0zW0NASF00W0NAQEhdKFtDQEhdKFtDSDJdMSlbQ0hdPVtDSF0zKVtDSDJdW0NASF01W0NASF0oW0NIMl01KVtDQEBIXTJbQ0gyXTQ=

>  <s_epik_cmdline>  (45) 
J2VwaWtfcHl0aG9uJywgJy1waHQnLCAnMi4wJywgJy1waCcsICc3LjAnLCAnLXRuJywgJzgnLCAnLW1hJywgJzIwMCcsICctaW1hZScsICc8aW5maWxlLm1hZT4nLCAnLW9tYWUnLCAnPG91dGZpbGUubWFlPic=

>  <r_epik_Ionization_Penalty>  (45) 
0.000306607

>  <r_epik_Ionization_Penalty_Charging>  (45) 
0.000306607

>  <r_epik_Ionization_Penalty_Neutral>  (45) 
0

>  <r_epik_State_Penalty>  (45) 
0.000184587

>  <r_epik_Charging_Adjusted_Penalty>  (45) 
0.000491194

>  <i_epik_Tot_Q>  (45) 
1

>  <i_epik_Tot_abs_Q>  (45) 
1

>  <s_lp_Force_Field>  (45) 
OPLS3e

>  <r_lp_Energy>  (45) 
66.0041

>  <b_lp_Chiralities_Consistent>  (45) 
1

>  <s_lp_Variant>  (45) 
2:0-1

>  <s_i_glide_gridfile>  (45) 
pfpi4k_grid

>  <i_i_glide_lignum>  (45) 
15

>  <i_i_glide_rotatable_bonds>  (45) 
1

>  <r_i_docking_score>  (45) 
-4.23822

>  <r_i_glide_ligand_efficiency>  (45) 
-0.264889

>  <r_i_glide_ligand_efficiency_sa>  (45) 
-0.667478

>  <r_i_glide_ligand_efficiency_ln>  (45) 
-1.12342

>  <r_i_glide_gscore>  (45) 
-4.23822

>  <r_i_glide_lipo>  (45) 
-0.247924

>  <r_i_glide_hbond>  (45) 
-0.2

>  <r_i_glide_metal>  (45) 
-0

>  <r_i_glide_rewards>  (45) 
-1.93403

>  <r_i_glide_evdw>  (45) 
-17.9149

>  <r_i_glide_ecoul>  (45) 
-5.86319

>  <r_i_glide_erotb>  (45) 
0

>  <r_i_glide_esite>  (45) 
-0.0810365

>  <r_i_glide_emodel>  (45) 
-30.2475

>  <r_i_glide_energy>  (45) 
-23.7781

>  <r_i_glide_einternal>  (45) 
1.56763

>  <r_i_glide_intrahb_reward>  (45) 
-0

>  <i_i_glide_confnum>  (45) 
1

>  <i_i_glide_posenum>  (45) 
27

>  <r_i_glide_eff_state_penalty>  (45) 
0

>  <ligand_id>  (45) 
2

>  <original_smiles>  (45) 
NCC12CC3C=CC1C1CC2C2CC2CC31

>  <smiles>  (45) 
[H]C1=C([H])C2([H])C3([H])C([H])([H])C4([H])C5([H])C([H])([H])C5([H])C([H])([H])C3([H])C1([H])C([H])([H])C24C([H])([H])[N+]([H])([H])[H]

$$$$
3:0:0
     RDKit          3D

 21 23  0  0  1  0  0  0  0  0999 V2000
   -5.9412   -6.5429   -4.8169 F   0  0  0  0  0  0  0  0  0  0  0  0
   -5.8059   -7.6688   -5.5509 C   0  0  0  0  0  0  0  0  0  0  0  0
   -4.8277   -8.5845   -5.1195 C   0  0  0  0  0  0  0  0  0  0  0  0
   -4.5929   -9.7689   -5.8372 C   0  0  0  0  0  0  0  0  0  0  0  0
   -5.3422  -10.0262   -6.9962 C   0  0  0  0  0  0  0  0  0  0  0  0
   -6.3277   -9.1254   -7.4456 C   0  0  0  0  0  0  0  0  0  0  0  0
   -7.0050   -9.4173   -8.5736 N   0  0  0  0  0  0  0  0  0  0  0  0
   -7.9294   -8.5832   -9.0376 N   0  0  0  0  0  0  0  0  0  0  0  0
   -8.2239   -7.4471   -8.4111 N   0  0  0  0  0  0  0  0  0  0  0  0
   -7.5946   -7.0908   -7.2688 C   0  0  0  0  0  0  0  0  0  0  0  0
   -8.0952   -5.8042   -6.7515 C   0  0  0  0  0  0  0  0  0  0  0  0
   -8.6805   -4.8265   -7.4536 N   0  0  0  0  0  0  0  0  0  0  0  0
   -9.0192   -3.8535   -6.5334 C   0  0  0  0  0  0  0  0  0  0  0  0
   -8.5805   -4.2686   -5.3112 C   0  0  0  0  0  0  0  0  0  0  0  0
   -8.0396   -5.5119   -5.4263 O   0  0  0  0  0  0  0  0  0  0  0  0
   -6.5808   -7.9282   -6.7149 C   0  0  0  0  0  0  0  0  0  0  0  0
   -4.2505   -8.3873   -4.2262 H   0  0  0  0  0  0  0  0  0  0  0  0
   -3.8406  -10.4707   -5.5002 H   0  0  0  0  0  0  0  0  0  0  0  0
   -5.1533  -10.9284   -7.5572 H   0  0  0  0  0  0  0  0  0  0  0  0
   -9.5236   -2.9385   -6.8114 H   0  0  0  0  0  0  0  0  0  0  0  0
   -8.5937   -3.8531   -4.3186 H   0  0  0  0  0  0  0  0  0  0  0  0
  1  2  1  0
  2 16  2  0
  2  3  1  0
  3  4  2  0
  3 17  1  0
  4  5  1  0
  4 18  1  0
  5  6  2  0
  5 19  1  0
  6 16  1  0
  6  7  1  0
  7  8  2  0
  8  9  1  0
  9 10  2  0
 10 11  1  0
 10 16  1  0
 11 15  1  0
 11 12  2  0
 12 13  1  0
 13 14  2  0
 13 20  1  0
 14 15  1  0
 14 21  1  0
M  END
>  <i_m_ct_stereo_status>  (46) 
1

>  <s_m_source_file>  (46) 
/var/tmp/pbs.5076255.sched01/tmp6mrmgolx/06cp14zw5.sdf

>  <i_m_source_file_index>  (46) 
16

>  <i_lp_mmshare_version>  (46) 
48012

>  <i_f3d_flags>  (46) 
0

>  <s_epik_input>  (46) 
W2NIXTFbY0hdW2NIXWMoRiljKGMxMiljKG5ubjIpLWMzbltjSF1bY0hdbzM=

>  <s_epik_cmdline>  (46) 
J2VwaWtfcHl0aG9uJywgJy1waHQnLCAnMi4wJywgJy1waCcsICc3LjAnLCAnLXRuJywgJzgnLCAnLW1hJywgJzIwMCcsICctaW1hZScsICc8aW5maWxlLm1hZT4nLCAnLW9tYWUnLCAnPG91dGZpbGUubWFlPic=

>  <r_lp_tautomer_probability>  (46) 
1

>  <r_epik_Ionization_Penalty>  (46) 
2.64974e-07

>  <r_epik_Ionization_Penalty_Charging>  (46) 
0

>  <r_epik_Ionization_Penalty_Neutral>  (46) 
2.64974e-07

>  <r_epik_State_Penalty>  (46) 
-0

>  <r_epik_Charging_Adjusted_Penalty>  (46) 
0

>  <i_epik_Tot_Q>  (46) 
0

>  <i_epik_Tot_abs_Q>  (46) 
0

>  <s_lp_Force_Field>  (46) 
OPLS3e

>  <r_lp_Energy>  (46) 
31.8196

>  <b_lp_Chiralities_Consistent>  (46) 
1

>  <s_lp_Variant>  (46) 
3:0-1

>  <s_i_glide_gridfile>  (46) 
pfpi4k_grid

>  <i_i_glide_lignum>  (46) 
16

>  <i_i_glide_rotatable_bonds>  (46) 
1

>  <r_i_docking_score>  (46) 
-6.55752

>  <r_i_glide_ligand_efficiency>  (46) 
-0.409845

>  <r_i_glide_ligand_efficiency_sa>  (46) 
-1.03274

>  <r_i_glide_ligand_efficiency_ln>  (46) 
-1.7382

>  <r_i_glide_gscore>  (46) 
-6.55752

>  <r_i_glide_lipo>  (46) 
-2.25514

>  <r_i_glide_hbond>  (46) 
0

>  <r_i_glide_metal>  (46) 
-0

>  <r_i_glide_rewards>  (46) 
-3.1602

>  <r_i_glide_evdw>  (46) 
-26.6822

>  <r_i_glide_ecoul>  (46) 
-1.11028

>  <r_i_glide_erotb>  (46) 
0.358464

>  <r_i_glide_esite>  (46) 
0

>  <r_i_glide_emodel>  (46) 
-37.7537

>  <r_i_glide_energy>  (46) 
-27.7925

>  <r_i_glide_einternal>  (46) 
2.18711

>  <r_i_glide_intrahb_reward>  (46) 
-0

>  <i_i_glide_confnum>  (46) 
4

>  <i_i_glide_posenum>  (46) 
1

>  <r_i_glide_eff_state_penalty>  (46) 
0

>  <ligand_id>  (46) 
3

>  <original_smiles>  (46) 
Fc1cccc2nnnc(-c3ncco3)c12

>  <smiles>  (46) 
[H]c1nc(-c2nnnc3c([H])c([H])c([H])c(F)c23)oc1[H]

$$$$
3:0:1
     RDKit          3D

 21 23  0  0  1  0  0  0  0  0999 V2000
   -6.7159   -5.9258   -4.8236 F   0  0  0  0  0  0  0  0  0  0  0  0
   -6.4136   -6.9498   -5.6474 C   0  0  0  0  0  0  0  0  0  0  0  0
   -5.3601   -7.7918   -5.2370 C   0  0  0  0  0  0  0  0  0  0  0  0
   -4.9874   -8.8992   -6.0119 C   0  0  0  0  0  0  0  0  0  0  0  0
   -5.6655   -9.1517   -7.2138 C   0  0  0  0  0  0  0  0  0  0  0  0
   -6.7128   -8.3187   -7.6524 C   0  0  0  0  0  0  0  0  0  0  0  0
   -7.3204   -8.6170   -8.8178 N   0  0  0  0  0  0  0  0  0  0  0  0
   -8.3227   -7.8682   -9.2672 N   0  0  0  0  0  0  0  0  0  0  0  0
   -8.7571   -6.8080   -8.5925 N   0  0  0  0  0  0  0  0  0  0  0  0
   -8.1831   -6.4323   -7.4255 C   0  0  0  0  0  0  0  0  0  0  0  0
   -8.8218   -5.2272   -6.8660 C   0  0  0  0  0  0  0  0  0  0  0  0
   -8.4289   -4.3802   -5.9169 N   0  0  0  0  0  0  0  0  0  0  0  0
   -9.4264   -3.4323   -5.8150 C   0  0  0  0  0  0  0  0  0  0  0  0
  -10.3990   -3.7350   -6.7185 C   0  0  0  0  0  0  0  0  0  0  0  0
  -10.0301   -4.8620   -7.3929 O   0  0  0  0  0  0  0  0  0  0  0  0
   -7.1071   -7.1951   -6.8696 C   0  0  0  0  0  0  0  0  0  0  0  0
   -4.8301   -7.5979   -4.3164 H   0  0  0  0  0  0  0  0  0  0  0  0
   -4.1795   -9.5453   -5.6959 H   0  0  0  0  0  0  0  0  0  0  0  0
   -5.3720   -9.9960   -7.8189 H   0  0  0  0  0  0  0  0  0  0  0  0
   -9.3818   -2.6093   -5.1222 H   0  0  0  0  0  0  0  0  0  0  0  0
  -11.3473   -3.2817   -6.9607 H   0  0  0  0  0  0  0  0  0  0  0  0
  1  2  1  0
  2 16  2  0
  2  3  1  0
  3  4  2  0
  3 17  1  0
  4  5  1  0
  4 18  1  0
  5  6  2  0
  5 19  1  0
  6 16  1  0
  6  7  1  0
  7  8  2  0
  8  9  1  0
  9 10  2  0
 10 11  1  0
 10 16  1  0
 11 15  1  0
 11 12  2  0
 12 13  1  0
 13 14  2  0
 13 20  1  0
 14 15  1  0
 14 21  1  0
M  END
>  <i_m_ct_stereo_status>  (47) 
1

>  <s_m_source_file>  (47) 
/var/tmp/pbs.5076255.sched01/tmp6mrmgolx/06cp14zw5.sdf

>  <i_m_source_file_index>  (47) 
16

>  <i_lp_mmshare_version>  (47) 
48012

>  <i_f3d_flags>  (47) 
0

>  <s_epik_input>  (47) 
W2NIXTFbY0hdW2NIXWMoRiljKGMxMiljKG5ubjIpLWMzbltjSF1bY0hdbzM=

>  <s_epik_cmdline>  (47) 
J2VwaWtfcHl0aG9uJywgJy1waHQnLCAnMi4wJywgJy1waCcsICc3LjAnLCAnLXRuJywgJzgnLCAnLW1hJywgJzIwMCcsICctaW1hZScsICc8aW5maWxlLm1hZT4nLCAnLW9tYWUnLCAnPG91dGZpbGUubWFlPic=

>  <r_lp_tautomer_probability>  (47) 
1

>  <r_epik_Ionization_Penalty>  (47) 
2.64974e-07

>  <r_epik_Ionization_Penalty_Charging>  (47) 
0

>  <r_epik_Ionization_Penalty_Neutral>  (47) 
2.64974e-07

>  <r_epik_State_Penalty>  (47) 
-0

>  <r_epik_Charging_Adjusted_Penalty>  (47) 
0

>  <i_epik_Tot_Q>  (47) 
0

>  <i_epik_Tot_abs_Q>  (47) 
0

>  <s_lp_Force_Field>  (47) 
OPLS3e

>  <r_lp_Energy>  (47) 
31.8196

>  <b_lp_Chiralities_Consistent>  (47) 
1

>  <s_lp_Variant>  (47) 
3:0-1

>  <s_i_glide_gridfile>  (47) 
pfpi4k_grid

>  <i_i_glide_lignum>  (47) 
16

>  <i_i_glide_rotatable_bonds>  (47) 
1

>  <r_i_docking_score>  (47) 
-6.23308

>  <r_i_glide_ligand_efficiency>  (47) 
-0.389568

>  <r_i_glide_ligand_efficiency_sa>  (47) 
-0.981649

>  <r_i_glide_ligand_efficiency_ln>  (47) 
-1.6522

>  <r_i_glide_gscore>  (47) 
-6.23308

>  <r_i_glide_lipo>  (47) 
-2.18873

>  <r_i_glide_hbond>  (47) 
0

>  <r_i_glide_metal>  (47) 
-0

>  <r_i_glide_rewards>  (47) 
-3.16853

>  <r_i_glide_evdw>  (47) 
-27.1368

>  <r_i_glide_ecoul>  (47) 
0.817047

>  <r_i_glide_erotb>  (47) 
0.358464

>  <r_i_glide_esite>  (47) 
0

>  <r_i_glide_emodel>  (47) 
-36.9721

>  <r_i_glide_energy>  (47) 
-26.3198

>  <r_i_glide_einternal>  (47) 
0.286726

>  <r_i_glide_intrahb_reward>  (47) 
-0

>  <i_i_glide_confnum>  (47) 
2

>  <i_i_glide_posenum>  (47) 
13

>  <r_i_glide_eff_state_penalty>  (47) 
0

>  <ligand_id>  (47) 
3

>  <original_smiles>  (47) 
Fc1cccc2nnnc(-c3ncco3)c12

>  <smiles>  (47) 
[H]c1nc(-c2nnnc3c([H])c([H])c([H])c(F)c23)oc1[H]

$$$$
3:0:2
     RDKit          3D

 21 23  0  0  1  0  0  0  0  0999 V2000
   -9.3075   -4.7429   -6.8086 F   0  0  0  0  0  0  0  0  0  0  0  0
   -8.2109   -5.1622   -6.1439 C   0  0  0  0  0  0  0  0  0  0  0  0
   -7.7665   -4.3448   -5.0892 C   0  0  0  0  0  0  0  0  0  0  0  0
   -6.6004   -4.6759   -4.3774 C   0  0  0  0  0  0  0  0  0  0  0  0
   -5.8922   -5.8405   -4.7197 C   0  0  0  0  0  0  0  0  0  0  0  0
   -6.3287   -6.6825   -5.7626 C   0  0  0  0  0  0  0  0  0  0  0  0
   -5.6004   -7.7763   -6.0590 N   0  0  0  0  0  0  0  0  0  0  0  0
   -5.9677   -8.5746   -7.0567 N   0  0  0  0  0  0  0  0  0  0  0  0
   -7.0563   -8.3356   -7.7818 N   0  0  0  0  0  0  0  0  0  0  0  0
   -7.8455   -7.2612   -7.5387 C   0  0  0  0  0  0  0  0  0  0  0  0
   -8.9962   -7.2050   -8.4575 C   0  0  0  0  0  0  0  0  0  0  0  0
   -9.0827   -7.7653   -9.6696 N   0  0  0  0  0  0  0  0  0  0  0  0
  -10.3575   -7.4851  -10.1325 C   0  0  0  0  0  0  0  0  0  0  0  0
  -10.9836   -6.7274   -9.1850 C   0  0  0  0  0  0  0  0  0  0  0  0
  -10.1502   -6.5739   -8.1140 O   0  0  0  0  0  0  0  0  0  0  0  0
   -7.5085   -6.3507   -6.4916 C   0  0  0  0  0  0  0  0  0  0  0  0
   -8.3209   -3.4526   -4.8271 H   0  0  0  0  0  0  0  0  0  0  0  0
   -6.2488   -4.0403   -3.5742 H   0  0  0  0  0  0  0  0  0  0  0  0
   -4.9924   -6.0989   -4.1821 H   0  0  0  0  0  0  0  0  0  0  0  0
  -10.7100   -7.8404  -11.0890 H   0  0  0  0  0  0  0  0  0  0  0  0
  -11.9591   -6.2671   -9.1103 H   0  0  0  0  0  0  0  0  0  0  0  0
  1  2  1  0
  2 16  2  0
  2  3  1  0
  3  4  2  0
  3 17  1  0
  4  5  1  0
  4 18  1  0
  5  6  2  0
  5 19  1  0
  6 16  1  0
  6  7  1  0
  7  8  2  0
  8  9  1  0
  9 10  2  0
 10 11  1  0
 10 16  1  0
 11 15  1  0
 11 12  2  0
 12 13  1  0
 13 14  2  0
 13 20  1  0
 14 15  1  0
 14 21  1  0
M  END
>  <i_m_ct_stereo_status>  (48) 
1

>  <s_m_source_file>  (48) 
/var/tmp/pbs.5076255.sched01/tmp6mrmgolx/06cp14zw5.sdf

>  <i_m_source_file_index>  (48) 
16

>  <i_lp_mmshare_version>  (48) 
48012

>  <i_f3d_flags>  (48) 
0

>  <s_epik_input>  (48) 
W2NIXTFbY0hdW2NIXWMoRiljKGMxMiljKG5ubjIpLWMzbltjSF1bY0hdbzM=

>  <s_epik_cmdline>  (48) 
J2VwaWtfcHl0aG9uJywgJy1waHQnLCAnMi4wJywgJy1waCcsICc3LjAnLCAnLXRuJywgJzgnLCAnLW1hJywgJzIwMCcsICctaW1hZScsICc8aW5maWxlLm1hZT4nLCAnLW9tYWUnLCAnPG91dGZpbGUubWFlPic=

>  <r_lp_tautomer_probability>  (48) 
1

>  <r_epik_Ionization_Penalty>  (48) 
2.64974e-07

>  <r_epik_Ionization_Penalty_Charging>  (48) 
0

>  <r_epik_Ionization_Penalty_Neutral>  (48) 
2.64974e-07

>  <r_epik_State_Penalty>  (48) 
-0

>  <r_epik_Charging_Adjusted_Penalty>  (48) 
0

>  <i_epik_Tot_Q>  (48) 
0

>  <i_epik_Tot_abs_Q>  (48) 
0

>  <s_lp_Force_Field>  (48) 
OPLS3e

>  <r_lp_Energy>  (48) 
31.8196

>  <b_lp_Chiralities_Consistent>  (48) 
1

>  <s_lp_Variant>  (48) 
3:0-1

>  <s_i_glide_gridfile>  (48) 
pfpi4k_grid

>  <i_i_glide_lignum>  (48) 
16

>  <i_i_glide_rotatable_bonds>  (48) 
1

>  <r_i_docking_score>  (48) 
-5.37202

>  <r_i_glide_ligand_efficiency>  (48) 
-0.335751

>  <r_i_glide_ligand_efficiency_sa>  (48) 
-0.84604

>  <r_i_glide_ligand_efficiency_ln>  (48) 
-1.42396

>  <r_i_glide_gscore>  (48) 
-5.37202

>  <r_i_glide_lipo>  (48) 
-2.05667

>  <r_i_glide_hbond>  (48) 
0

>  <r_i_glide_metal>  (48) 
-0

>  <r_i_glide_rewards>  (48) 
-2.28254

>  <r_i_glide_evdw>  (48) 
-25.4123

>  <r_i_glide_ecoul>  (48) 
-0.80435

>  <r_i_glide_erotb>  (48) 
0.358464

>  <r_i_glide_esite>  (48) 
0

>  <r_i_glide_emodel>  (48) 
-34.0532

>  <r_i_glide_energy>  (48) 
-26.2167

>  <r_i_glide_einternal>  (48) 
2.16616

>  <r_i_glide_intrahb_reward>  (48) 
-0

>  <i_i_glide_confnum>  (48) 
1

>  <i_i_glide_posenum>  (48) 
32

>  <r_i_glide_eff_state_penalty>  (48) 
0

>  <ligand_id>  (48) 
3

>  <original_smiles>  (48) 
Fc1cccc2nnnc(-c3ncco3)c12

>  <smiles>  (48) 
[H]c1nc(-c2nnnc3c([H])c([H])c([H])c(F)c23)oc1[H]

$$$$
4:0:0
     RDKit          3D

 98104  0  0  1  0  0  0  0  0999 V2000
    0.6362   -7.2727    2.1197 C   0  0  0  0  0  0  0  0  0  0  0  0
    2.0128   -6.7224    2.5532 C   0  0  2  0  0  0  0  0  0  0  0  0
    2.0725   -6.6789    4.0881 C   0  0  0  0  0  0  0  0  0  0  0  0
    3.4577   -6.3695    4.7073 C   0  0  0  0  0  0  0  0  0  0  0  0
    3.8391   -4.8754    4.9526 C   0  0  2  0  0  0  0  0  0  0  0  0
    5.2632   -4.9132    5.5777 C   0  0  0  0  0  0  0  0  0  0  0  0
    2.8860   -4.3295    6.0462 C   0  0  0  0  0  0  0  0  0  0  0  0
    2.8620   -2.8105    6.1486 C   0  0  0  0  0  0  0  0  0  0  0  0
    2.3955   -2.1390    4.8390 C   0  0  1  0  0  0  0  0  0  0  0  0
    1.0074   -2.7326    4.4756 C   0  0  0  0  0  0  0  0  0  0  0  0
    2.2138   -0.5805    5.0306 C   0  0  1  0  0  0  0  0  0  0  0  0
    0.9913   -0.0438    5.8400 C   0  0  1  0  0  0  0  0  0  0  0  0
    1.1431   -0.1637    7.2400 O   0  0  0  0  0  0  0  0  0  0  0  0
    0.6307    1.4186    5.4526 C   0  0  0  0  0  0  0  0  0  0  0  0
    1.6703    2.1189    4.5245 C   0  0  2  0  0  0  0  0  0  0  0  0
    3.0401    1.7979    5.0696 C   0  0  0  0  0  0  0  0  0  0  0  0
    3.6076    2.8938    5.5941 C   0  0  0  0  0  0  0  0  0  0  0  0
    2.7525    4.1396    5.4800 C   0  0  2  0  0  0  0  0  0  0  0  0
    3.6505    5.3643    5.1437 C   0  0  0  0  0  0  0  0  0  0  0  0
    2.0392    4.3688    6.8430 C   0  0  1  0  0  0  0  0  0  0  0  0
    2.9270    4.8267    7.8449 O   0  0  0  0  0  0  0  0  0  0  0  0
    0.8600    5.3505    6.7525 C   0  0  0  0  0  0  0  0  0  0  0  0
   -0.1863    4.9053    5.7253 C   0  0  0  0  0  0  0  0  0  0  0  0
    0.3657    4.4885    4.3392 C   0  0  1  0  0  0  0  0  0  0  0  0
   -0.7908    3.7590    3.5976 C   0  0  0  0  0  0  0  0  0  0  0  0
    0.7266    5.7029    3.4117 C   0  0  1  0  0  0  0  0  0  0  0  0
    0.8058    6.9462    4.0816 O   0  0  0  0  0  0  0  0  0  0  0  0
    1.9288    5.3952    2.7795 O   0  0  0  0  0  0  0  0  0  0  0  0
    2.2416    4.0217    2.9720 C   0  0  0  0  0  0  0  0  0  0  0  0
    1.7103    3.6886    4.3807 C   0  0  2  0  0  0  0  0  0  0  0  0
    3.4980    0.3250    5.1806 C   0  0  1  0  0  0  0  0  0  0  0  0
    4.2883    0.1618    6.5131 C   0  0  0  0  0  0  0  0  0  0  0  0
    4.4411   -0.0296    4.0083 C   0  0  0  0  0  0  0  0  0  0  0  0
    4.6994   -1.5579    3.8719 C   0  0  0  0  0  0  0  0  0  0  0  0
    3.4275   -2.4578    3.6719 C   0  0  2  0  0  0  0  0  0  0  0  0
    2.8660   -2.0293    2.2745 C   0  0  0  0  0  0  0  0  0  0  0  0
    3.8859   -4.0023    3.6326 C   0  0  2  0  0  0  0  0  0  0  0  0
    3.7212   -4.8082    2.3015 C   0  0  0  0  0  0  0  0  0  0  0  0
    2.3249   -5.3514    1.9098 C   0  0  1  0  0  0  0  0  0  0  0  0
    2.2316   -5.4172    0.3713 C   0  0  0  0  0  0  0  0  0  0  0  0
   -0.1619   -6.5654    2.3408 H   0  0  0  0  0  0  0  0  0  0  0  0
    0.4015   -8.2025    2.6371 H   0  0  0  0  0  0  0  0  0  0  0  0
    0.6001   -7.5041    1.0567 H   0  0  0  0  0  0  0  0  0  0  0  0
    2.7632   -7.4393    2.2207 H   0  0  0  0  0  0  0  0  0  0  0  0
    1.2875   -6.0314    4.4672 H   0  0  0  0  0  0  0  0  0  0  0  0
    1.7971   -7.6698    4.4478 H   0  0  0  0  0  0  0  0  0  0  0  0
    3.4777   -6.8623    5.6788 H   0  0  0  0  0  0  0  0  0  0  0  0
    4.2346   -6.8894    4.1452 H   0  0  0  0  0  0  0  0  0  0  0  0
    5.6260   -3.9157    5.8298 H   0  0  0  0  0  0  0  0  0  0  0  0
    5.9978   -5.3615    4.9050 H   0  0  0  0  0  0  0  0  0  0  0  0
    5.2892   -5.4999    6.4969 H   0  0  0  0  0  0  0  0  0  0  0  0
    1.8698   -4.6992    5.9422 H   0  0  0  0  0  0  0  0  0  0  0  0
    3.2045   -4.7181    7.0128 H   0  0  0  0  0  0  0  0  0  0  0  0
    2.2212   -2.5218    6.9812 H   0  0  0  0  0  0  0  0  0  0  0  0
    3.8607   -2.5089    6.4309 H   0  0  0  0  0  0  0  0  0  0  0  0
    0.4879   -2.1506    3.7132 H   0  0  0  0  0  0  0  0  0  0  0  0
    0.3643   -2.7906    5.3545 H   0  0  0  0  0  0  0  0  0  0  0  0
    1.0917   -3.7454    4.0981 H   0  0  0  0  0  0  0  0  0  0  0  0
    1.8610   -0.3467    4.0351 H   0  0  0  0  0  0  0  0  0  0  0  0
    0.1086   -0.6295    5.5995 H   0  0  0  0  0  0  0  0  0  0  0  0
    1.9131    0.3221    7.4964 H   0  0  0  0  0  0  0  0  0  0  0  0
   -0.3185    1.3550    4.9342 H   0  0  0  0  0  0  0  0  0  0  0  0
    0.4175    1.9837    6.3545 H   0  0  0  0  0  0  0  0  0  0  0  0
    1.5773    1.6738    3.5332 H   0  0  0  0  0  0  0  0  0  0  0  0
    4.5556    2.9305    6.1038 H   0  0  0  0  0  0  0  0  0  0  0  0
    3.0858    6.2913    5.0915 H   0  0  0  0  0  0  0  0  0  0  0  0
    4.1935    5.2728    4.2075 H   0  0  0  0  0  0  0  0  0  0  0  0
    4.4165    5.5174    5.9001 H   0  0  0  0  0  0  0  0  0  0  0  0
    1.6641    3.4213    7.2232 H   0  0  0  0  0  0  0  0  0  0  0  0
    2.4562    4.8857    8.6628 H   0  0  0  0  0  0  0  0  0  0  0  0
    0.3689    5.4194    7.7230 H   0  0  0  0  0  0  0  0  0  0  0  0
    1.2220    6.3560    6.5272 H   0  0  0  0  0  0  0  0  0  0  0  0
   -0.6906    4.0395    6.1528 H   0  0  0  0  0  0  0  0  0  0  0  0
   -0.9601    5.6645    5.6086 H   0  0  0  0  0  0  0  0  0  0  0  0
   -0.4656    3.2953    2.6679 H   0  0  0  0  0  0  0  0  0  0  0  0
   -1.5773    4.4612    3.3281 H   0  0  0  0  0  0  0  0  0  0  0  0
   -1.2930    2.9984    4.1811 H   0  0  0  0  0  0  0  0  0  0  0  0
   -0.0236    5.8555    2.6408 H   0  0  0  0  0  0  0  0  0  0  0  0
    0.6852    7.6269    3.4056 H   0  0  0  0  0  0  0  0  0  0  0  0
    1.7452    3.4172    2.2121 H   0  0  0  0  0  0  0  0  0  0  0  0
    3.3089    3.8274    2.8408 H   0  0  0  0  0  0  0  0  0  0  0  0
    4.8817   -0.7424    6.5561 H   0  0  0  0  0  0  0  0  0  0  0  0
    3.6465    0.1804    7.3885 H   0  0  0  0  0  0  0  0  0  0  0  0
    5.0278    0.9493    6.6548 H   0  0  0  0  0  0  0  0  0  0  0  0
    4.0357    0.3653    3.0752 H   0  0  0  0  0  0  0  0  0  0  0  0
    5.3967    0.4862    4.1404 H   0  0  0  0  0  0  0  0  0  0  0  0
    5.3824   -1.6957    3.0300 H   0  0  0  0  0  0  0  0  0  0  0  0
    5.2658   -1.8999    4.7363 H   0  0  0  0  0  0  0  0  0  0  0  0
    3.6186   -2.1270    1.4911 H   0  0  0  0  0  0  0  0  0  0  0  0
    2.5523   -0.9878    2.2187 H   0  0  0  0  0  0  0  0  0  0  0  0
    1.9956   -2.6026    1.9675 H   0  0  0  0  0  0  0  0  0  0  0  0
    4.9587   -3.8726    3.5116 H   0  0  0  0  0  0  0  0  0  0  0  0
    4.1067   -4.1993    1.4890 H   0  0  0  0  0  0  0  0  0  0  0  0
    4.4241   -5.6407    2.2942 H   0  0  0  0  0  0  0  0  0  0  0  0
    1.5623   -4.6580    2.2409 H   0  0  0  0  0  0  0  0  0  0  0  0
    2.9132   -6.1704   -0.0271 H   0  0  0  0  0  0  0  0  0  0  0  0
    2.4993   -4.4597   -0.0801 H   0  0  0  0  0  0  0  0  0  0  0  0
    1.2297   -5.6519    0.0157 H   0  0  0  0  0  0  0  0  0  0  0  0
  1  2  1  0
  1 41  1  0
  1 42  1  0
  1 43  1  0
  2 39  1  0
  2  3  1  0
  2 44  1  6
  3  4  1  0
  3 45  1  0
  3 46  1  0
  4  5  1  0
  4 47  1  0
  4 48  1  0
  5 37  1  0
  5  6  1  1
  5  7  1  0
  6 49  1  0
  6 50  1  0
  6 51  1  0
  7  8  1  0
  7 52  1  0
  7 53  1  0
  8  9  1  0
  8 54  1  0
  8 55  1  0
  9 35  1  0
  9 10  1  6
  9 11  1  0
 10 56  1  0
 10 57  1  0
 10 58  1  0
 11 31  1  0
 11 12  1  0
 11 59  1  6
 12 13  1  0
 12 14  1  0
 12 60  1  6
 13 61  1  0
 14 15  1  0
 14 62  1  0
 14 63  1  0
 15 30  1  0
 15 16  1  0
 15 64  1  6
 16 17  2  0
 16 31  1  0
 17 18  1  0
 17 65  1  0
 18 30  1  0
 18 19  1  6
 18 20  1  0
 19 66  1  0
 19 67  1  0
 19 68  1  0
 20 21  1  0
 20 22  1  0
 20 69  1  1
 21 70  1  0
 22 23  1  0
 22 71  1  0
 22 72  1  0
 23 24  1  0
 23 73  1  0
 23 74  1  0
 24 30  1  0
 24 25  1  6
 24 26  1  0
 25 75  1  0
 25 76  1  0
 25 77  1  0
 26 27  1  0
 26 28  1  0
 26 78  1  6
 27 79  1  0
 28 29  1  0
 30 29  1  6
 29 80  1  0
 29 81  1  0
 31 32  1  1
 31 33  1  0
 32 82  1  0
 32 83  1  0
 32 84  1  0
 33 34  1  0
 33 85  1  0
 33 86  1  0
 34 35  1  0
 34 87  1  0
 34 88  1  0
 35 36  1  6
 35 37  1  0
 36 89  1  0
 36 90  1  0
 36 91  1  0
 37 38  1  0
 37 92  1  6
 38 39  1  0
 38 93  1  0
 38 94  1  0
 39 40  1  0
 39 95  1  1
 40 96  1  0
 40 97  1  0
 40 98  1  0
M  END
>  <i_m_ct_stereo_status>  (49) 
1

>  <s_m_source_file>  (49) 
/var/tmp/pbs.5076255.sched01/tmp6mrmgolx/06cp14zw5.sdf

>  <i_m_source_file_index>  (49) 
17

>  <i_lp_mmshare_version>  (49) 
48012

>  <i_f3d_flags>  (49) 
0

>  <s_epik_input>  (49) 
W0NIMl0xW0NAQEhdKFtDSDNdKVtDQEhdKFtDSDNdKVtDSDJdW0NIMl1bQ0BdKFtDSDNdKShbQ0gyXVtDSDJdMilbQ0BASF0xW0NAXShbQ0gzXSkoW0NIMl1bQ0gyXTMpW0NAXTIoW0NIM10pW0NAQEhdKFtDQEBIXShbT0hdKVtDSDJdNClbQ0BdMyhbQ0gzXSlDKFtDQEBIXTRbQ0BdNTY3KT1bQ0hdW0NAXTUoW0NIM10pW0NAQEhdKFtPSF0pW0NIMl1bQ0gyXVtDQEBdNihbQ0gzXSlbQ0BASF0oW09IXSlPW0NIMl03

>  <s_epik_cmdline>  (49) 
J2VwaWtfcHl0aG9uJywgJy1waHQnLCAnMi4wJywgJy1waCcsICc3LjAnLCAnLXRuJywgJzgnLCAnLW1hJywgJzIwMCcsICctaW1hZScsICc8aW5maWxlLm1hZT4nLCAnLW9tYWUnLCAnPG91dGZpbGUubWFlPic=

>  <r_lp_tautomer_probability>  (49) 
1

>  <r_epik_Ionization_Penalty>  (49) 
1.89852e-06

>  <r_epik_Ionization_Penalty_Charging>  (49) 
0

>  <r_epik_Ionization_Penalty_Neutral>  (49) 
1.89852e-06

>  <r_epik_State_Penalty>  (49) 
-0

>  <r_epik_Charging_Adjusted_Penalty>  (49) 
0

>  <i_epik_Tot_Q>  (49) 
0

>  <i_epik_Tot_abs_Q>  (49) 
0

>  <s_epik_Chemistry_Notes>  (49) 
This compound contains an acetal/aminal-like group ( X-CH(R)-Y where X, Y are N, S, or O) that may be acid/base labile, releasing an aldehyde.

>  <s_lp_Force_Field>  (49) 
OPLS3e

>  <r_lp_Energy>  (49) 
123.017

>  <b_lp_Chiralities_Consistent>  (49) 
1

>  <s_lp_Variant>  (49) 
4:0-1

>  <s_i_glide_gridfile>  (49) 
pfpi4k_grid

>  <i_i_glide_lignum>  (49) 
17

>  <i_i_glide_rotatable_bonds>  (49) 
3

>  <r_i_docking_score>  (49) 
-2.53743

>  <r_i_glide_ligand_efficiency>  (49) 
-0.0634357

>  <r_i_glide_ligand_efficiency_sa>  (49) 
-0.216947

>  <r_i_glide_ligand_efficiency_ln>  (49) 
-0.541158

>  <r_i_glide_gscore>  (49) 
-2.53743

>  <r_i_glide_lipo>  (49) 
-0.0909293

>  <r_i_glide_hbond>  (49) 
0

>  <r_i_glide_metal>  (49) 
-0

>  <r_i_glide_rewards>  (49) 
0

>  <r_i_glide_evdw>  (49) 
-26.7845

>  <r_i_glide_ecoul>  (49) 
-6.78144

>  <r_i_glide_erotb>  (49) 
0

>  <r_i_glide_esite>  (49) 
-0.0900589

>  <r_i_glide_emodel>  (49) 
-38.2419

>  <r_i_glide_energy>  (49) 
-33.5659

>  <r_i_glide_einternal>  (49) 
1.00625

>  <r_i_glide_intrahb_reward>  (49) 
-0

>  <i_i_glide_confnum>  (49) 
2

>  <i_i_glide_posenum>  (49) 
24

>  <r_i_glide_eff_state_penalty>  (49) 
0

>  <ligand_id>  (49) 
4

>  <original_smiles>  (49) 
CC1CCC2(C)CCC3(C)C4C(O)CC5C(=CC6(C)C(O)CCC7(C)C(O)OCC567)C4(C)CCC3(C)C2CC1C

>  <smiles>  (49) 
[H]OC1([H])OC([H])([H])C23C4([H])C(=C([H])C2(C([H])([H])[H])C([H])(O[H])C([H])([H])C([H])([H])C13C([H])([H])[H])C1(C([H])([H])[H])C([H])([H])C([H])([H])C2(C([H])([H])[H])C3([H])C([H])([H])C([H])(C([H])([H])[H])C([H])(C([H])([H])[H])C([H])([H])C([H])([H])C3(C([H])([H])[H])C([H])([H])C([H])([H])C2(C([H])([H])[H])C1([H])C([H])(O[H])C4([H])[H]

$$$$
4:0:1
     RDKit          3D

 98104  0  0  1  0  0  0  0  0999 V2000
    3.8660   -8.1134    1.2954 C   0  0  0  0  0  0  0  0  0  0  0  0
    4.3625   -7.6157    2.6706 C   0  0  2  0  0  0  0  0  0  0  0  0
    3.3222   -7.9942    3.7402 C   0  0  0  0  0  0  0  0  0  0  0  0
    3.7492   -7.7777    5.2130 C   0  0  0  0  0  0  0  0  0  0  0  0
    3.4780   -6.3872    5.8677 C   0  0  2  0  0  0  0  0  0  0  0  0
    4.0121   -6.5014    7.3244 C   0  0  0  0  0  0  0  0  0  0  0  0
    1.9398   -6.2225    5.9764 C   0  0  0  0  0  0  0  0  0  0  0  0
    1.4871   -4.7933    6.2363 C   0  0  0  0  0  0  0  0  0  0  0  0
    1.9183   -3.8200    5.1164 C   0  0  1  0  0  0  0  0  0  0  0  0
    1.3772   -4.3793    3.7714 C   0  0  0  0  0  0  0  0  0  0  0  0
    1.2851   -2.3819    5.3265 C   0  0  1  0  0  0  0  0  0  0  0  0
   -0.2340   -2.1618    5.0495 C   0  0  1  0  0  0  0  0  0  0  0  0
   -1.0583   -2.6357    6.0959 O   0  0  0  0  0  0  0  0  0  0  0  0
   -0.5713   -0.6801    4.7272 C   0  0  0  0  0  0  0  0  0  0  0  0
    0.6065    0.3111    4.9776 C   0  0  2  0  0  0  0  0  0  0  0  0
    1.2335   -0.0562    6.3000 C   0  0  0  0  0  0  0  0  0  0  0  0
    0.9823    0.8858    7.2178 C   0  0  0  0  0  0  0  0  0  0  0  0
    0.1817    2.0559    6.6888 C   0  0  2  0  0  0  0  0  0  0  0  0
    0.7327    3.3805    7.3002 C   0  0  0  0  0  0  0  0  0  0  0  0
   -1.3064    1.8595    7.0943 C   0  0  1  0  0  0  0  0  0  0  0  0
   -1.5260    2.0486    8.4784 O   0  0  0  0  0  0  0  0  0  0  0  0
   -2.2753    2.7542    6.3086 C   0  0  0  0  0  0  0  0  0  0  0  0
   -2.1535    2.5458    4.7838 C   0  0  0  0  0  0  0  0  0  0  0  0
   -0.7054    2.5488    4.2097 C   0  0  1  0  0  0  0  0  0  0  0  0
   -0.7803    1.9836    2.7654 C   0  0  0  0  0  0  0  0  0  0  0  0
   -0.1150    3.9854    4.0163 C   0  0  1  0  0  0  0  0  0  0  0  0
   -0.7873    4.9453    4.7886 O   0  0  0  0  0  0  0  0  0  0  0  0
    1.2321    3.9335    4.3712 O   0  0  0  0  0  0  0  0  0  0  0  0
    1.6201    2.5924    4.6099 C   0  0  0  0  0  0  0  0  0  0  0  0
    0.3585    1.8607    5.1233 C   0  0  2  0  0  0  0  0  0  0  0  0
    1.8267   -1.4711    6.4963 C   0  0  1  0  0  0  0  0  0  0  0  0
    1.4715   -1.9491    7.9382 C   0  0  0  0  0  0  0  0  0  0  0  0
    3.3627   -1.4371    6.3629 C   0  0  0  0  0  0  0  0  0  0  0  0
    4.0034   -2.8491    6.2480 C   0  0  0  0  0  0  0  0  0  0  0  0
    3.5059   -3.7379    5.0540 C   0  0  2  0  0  0  0  0  0  0  0  0
    3.9943   -2.9800    3.7736 C   0  0  0  0  0  0  0  0  0  0  0  0
    4.2201   -5.1808    5.1479 C   0  0  2  0  0  0  0  0  0  0  0  0
    5.2292   -5.5984    4.0269 C   0  0  0  0  0  0  0  0  0  0  0  0
    4.6953   -6.1029    2.6633 C   0  0  1  0  0  0  0  0  0  0  0  0
    5.7145   -5.7448    1.5611 C   0  0  0  0  0  0  0  0  0  0  0  0
    3.0053   -7.5349    0.9556 H   0  0  0  0  0  0  0  0  0  0  0  0
    3.5657   -9.1617    1.3339 H   0  0  0  0  0  0  0  0  0  0  0  0
    4.6391   -8.0455    0.5307 H   0  0  0  0  0  0  0  0  0  0  0  0
    5.2762   -8.1662    2.8986 H   0  0  0  0  0  0  0  0  0  0  0  0
    2.3710   -7.5234    3.5043 H   0  0  0  0  0  0  0  0  0  0  0  0
    3.1254   -9.0611    3.6342 H   0  0  0  0  0  0  0  0  0  0  0  0
    3.2074   -8.5191    5.8023 H   0  0  0  0  0  0  0  0  0  0  0  0
    4.7930   -8.0720    5.3322 H   0  0  0  0  0  0  0  0  0  0  0  0
    3.8397   -5.5919    7.8982 H   0  0  0  0  0  0  0  0  0  0  0  0
    5.0849   -6.7015    7.3510 H   0  0  0  0  0  0  0  0  0  0  0  0
    3.5338   -7.3156    7.8712 H   0  0  0  0  0  0  0  0  0  0  0  0
    1.4172   -6.6066    5.1058 H   0  0  0  0  0  0  0  0  0  0  0  0
    1.5683   -6.8479    6.7880 H   0  0  0  0  0  0  0  0  0  0  0  0
    0.4074   -4.7936    6.3571 H   0  0  0  0  0  0  0  0  0  0  0  0
    1.8879   -4.5131    7.1991 H   0  0  0  0  0  0  0  0  0  0  0  0
    1.4119   -3.6431    2.9665 H   0  0  0  0  0  0  0  0  0  0  0  0
    0.3453   -4.7173    3.8735 H   0  0  0  0  0  0  0  0  0  0  0  0
    1.9442   -5.2416    3.4354 H   0  0  0  0  0  0  0  0  0  0  0  0
    1.6800   -1.9082    4.4375 H   0  0  0  0  0  0  0  0  0  0  0  0
   -0.5358   -2.7221    4.1699 H   0  0  0  0  0  0  0  0  0  0  0  0
   -0.8552   -3.5490    6.2276 H   0  0  0  0  0  0  0  0  0  0  0  0
   -0.8307   -0.6580    3.6766 H   0  0  0  0  0  0  0  0  0  0  0  0
   -1.4811   -0.3941    5.2447 H   0  0  0  0  0  0  0  0  0  0  0  0
    1.3367    0.1501    4.1863 H   0  0  0  0  0  0  0  0  0  0  0  0
    1.2676    0.8455    8.2555 H   0  0  0  0  0  0  0  0  0  0  0  0
    0.1664    4.2580    7.0025 H   0  0  0  0  0  0  0  0  0  0  0  0
    1.7755    3.5744    7.0573 H   0  0  0  0  0  0  0  0  0  0  0  0
    0.6947    3.3594    8.3886 H   0  0  0  0  0  0  0  0  0  0  0  0
   -1.5916    0.8272    6.9248 H   0  0  0  0  0  0  0  0  0  0  0  0
   -1.2837    2.9315    8.7085 H   0  0  0  0  0  0  0  0  0  0  0  0
   -3.2988    2.5216    6.6049 H   0  0  0  0  0  0  0  0  0  0  0  0
   -2.1328    3.8004    6.5771 H   0  0  0  0  0  0  0  0  0  0  0  0
   -2.5805    1.5649    4.5700 H   0  0  0  0  0  0  0  0  0  0  0  0
   -2.7885    3.2518    4.2448 H   0  0  0  0  0  0  0  0  0  0  0  0
    0.2004    1.8382    2.3144 H   0  0  0  0  0  0  0  0  0  0  0  0
   -1.3165    2.6764    2.1161 H   0  0  0  0  0  0  0  0  0  0  0  0
   -1.3382    1.0579    2.6804 H   0  0  0  0  0  0  0  0  0  0  0  0
   -0.1777    4.3367    2.9868 H   0  0  0  0  0  0  0  0  0  0  0  0
   -0.6597    4.6847    5.6891 H   0  0  0  0  0  0  0  0  0  0  0  0
    1.9624    2.1768    3.6627 H   0  0  0  0  0  0  0  0  0  0  0  0
    2.4696    2.5289    5.2890 H   0  0  0  0  0  0  0  0  0  0  0  0
    2.0603   -2.7934    8.2803 H   0  0  0  0  0  0  0  0  0  0  0  0
    0.4222   -2.2094    8.0501 H   0  0  0  0  0  0  0  0  0  0  0  0
    1.6800   -1.1876    8.6876 H   0  0  0  0  0  0  0  0  0  0  0  0
    3.6451   -0.8293    5.5042 H   0  0  0  0  0  0  0  0  0  0  0  0
    3.7925   -0.9216    7.2231 H   0  0  0  0  0  0  0  0  0  0  0  0
    5.0831   -2.7129    6.1709 H   0  0  0  0  0  0  0  0  0  0  0  0
    3.8682   -3.3796    7.1886 H   0  0  0  0  0  0  0  0  0  0  0  0
    5.0704   -2.8113    3.7902 H   0  0  0  0  0  0  0  0  0  0  0  0
    3.5701   -1.9873    3.6537 H   0  0  0  0  0  0  0  0  0  0  0  0
    3.7601   -3.5011    2.8508 H   0  0  0  0  0  0  0  0  0  0  0  0
    4.9995   -4.9559    5.8736 H   0  0  0  0  0  0  0  0  0  0  0  0
    5.9089   -4.7674    3.8581 H   0  0  0  0  0  0  0  0  0  0  0  0
    5.9114   -6.3517    4.4205 H   0  0  0  0  0  0  0  0  0  0  0  0
    3.7832   -5.5746    2.4118 H   0  0  0  0  0  0  0  0  0  0  0  0
    6.6353   -6.3182    1.6717 H   0  0  0  0  0  0  0  0  0  0  0  0
    5.9771   -4.6878    1.5936 H   0  0  0  0  0  0  0  0  0  0  0  0
    5.3205   -5.9268    0.5623 H   0  0  0  0  0  0  0  0  0  0  0  0
  1  2  1  0
  1 41  1  0
  1 42  1  0
  1 43  1  0
  2 39  1  0
  2  3  1  0
  2 44  1  1
  3  4  1  0
  3 45  1  0
  3 46  1  0
  4  5  1  0
  4 47  1  0
  4 48  1  0
  5 37  1  0
  5  6  1  1
  5  7  1  0
  6 49  1  0
  6 50  1  0
  6 51  1  0
  7  8  1  0
  7 52  1  0
  7 53  1  0
  8  9  1  0
  8 54  1  0
  8 55  1  0
  9 35  1  0
  9 10  1  6
  9 11  1  0
 10 56  1  0
 10 57  1  0
 10 58  1  0
 11 31  1  0
 11 12  1  0
 11 59  1  6
 12 13  1  0
 12 14  1  0
 12 60  1  6
 13 61  1  0
 14 15  1  0
 14 62  1  0
 14 63  1  0
 15 30  1  0
 15 16  1  0
 15 64  1  6
 16 17  2  0
 16 31  1  0
 17 18  1  0
 17 65  1  0
 18 30  1  0
 18 19  1  1
 18 20  1  0
 19 66  1  0
 19 67  1  0
 19 68  1  0
 20 21  1  0
 20 22  1  0
 20 69  1  6
 21 70  1  0
 22 23  1  0
 22 71  1  0
 22 72  1  0
 23 24  1  0
 23 73  1  0
 23 74  1  0
 24 30  1  0
 24 25  1  6
 24 26  1  0
 25 75  1  0
 25 76  1  0
 25 77  1  0
 26 27  1  0
 26 28  1  0
 26 78  1  6
 27 79  1  0
 28 29  1  0
 30 29  1  6
 29 80  1  0
 29 81  1  0
 31 32  1  1
 31 33  1  0
 32 82  1  0
 32 83  1  0
 32 84  1  0
 33 34  1  0
 33 85  1  0
 33 86  1  0
 34 35  1  0
 34 87  1  0
 34 88  1  0
 35 36  1  6
 35 37  1  0
 36 89  1  0
 36 90  1  0
 36 91  1  0
 37 38  1  0
 37 92  1  1
 38 39  1  0
 38 93  1  0
 38 94  1  0
 39 40  1  0
 39 95  1  6
 40 96  1  0
 40 97  1  0
 40 98  1  0
M  END
>  <i_m_ct_stereo_status>  (50) 
1

>  <s_m_source_file>  (50) 
/var/tmp/pbs.5076255.sched01/tmp6mrmgolx/06cp14zw5.sdf

>  <i_m_source_file_index>  (50) 
17

>  <i_lp_mmshare_version>  (50) 
48012

>  <i_f3d_flags>  (50) 
0

>  <s_epik_input>  (50) 
W0NIMl0xW0NAQEhdKFtDSDNdKVtDQEhdKFtDSDNdKVtDSDJdW0NIMl1bQ0BdKFtDSDNdKShbQ0gyXVtDSDJdMilbQ0BASF0xW0NAXShbQ0gzXSkoW0NIMl1bQ0gyXTMpW0NAXTIoW0NIM10pW0NAQEhdKFtDQEBIXShbT0hdKVtDSDJdNClbQ0BdMyhbQ0gzXSlDKFtDQEBIXTRbQ0BdNTY3KT1bQ0hdW0NAXTUoW0NIM10pW0NAQEhdKFtPSF0pW0NIMl1bQ0gyXVtDQEBdNihbQ0gzXSlbQ0BASF0oW09IXSlPW0NIMl03

>  <s_epik_cmdline>  (50) 
J2VwaWtfcHl0aG9uJywgJy1waHQnLCAnMi4wJywgJy1waCcsICc3LjAnLCAnLXRuJywgJzgnLCAnLW1hJywgJzIwMCcsICctaW1hZScsICc8aW5maWxlLm1hZT4nLCAnLW9tYWUnLCAnPG91dGZpbGUubWFlPic=

>  <r_lp_tautomer_probability>  (50) 
1

>  <r_epik_Ionization_Penalty>  (50) 
1.89852e-06

>  <r_epik_Ionization_Penalty_Charging>  (50) 
0

>  <r_epik_Ionization_Penalty_Neutral>  (50) 
1.89852e-06

>  <r_epik_State_Penalty>  (50) 
-0

>  <r_epik_Charging_Adjusted_Penalty>  (50) 
0

>  <i_epik_Tot_Q>  (50) 
0

>  <i_epik_Tot_abs_Q>  (50) 
0

>  <s_epik_Chemistry_Notes>  (50) 
This compound contains an acetal/aminal-like group ( X-CH(R)-Y where X, Y are N, S, or O) that may be acid/base labile, releasing an aldehyde.

>  <s_lp_Force_Field>  (50) 
OPLS3e

>  <r_lp_Energy>  (50) 
123.017

>  <b_lp_Chiralities_Consistent>  (50) 
1

>  <s_lp_Variant>  (50) 
4:0-1

>  <s_i_glide_gridfile>  (50) 
pfpi4k_grid

>  <i_i_glide_lignum>  (50) 
17

>  <i_i_glide_rotatable_bonds>  (50) 
3

>  <r_i_docking_score>  (50) 
-2.38507

>  <r_i_glide_ligand_efficiency>  (50) 
-0.0596268

>  <r_i_glide_ligand_efficiency_sa>  (50) 
-0.203921

>  <r_i_glide_ligand_efficiency_ln>  (50) 
-0.508666

>  <r_i_glide_gscore>  (50) 
-2.38507

>  <r_i_glide_lipo>  (50) 
-0.182643

>  <r_i_glide_hbond>  (50) 
0

>  <r_i_glide_metal>  (50) 
-0

>  <r_i_glide_rewards>  (50) 
0

>  <r_i_glide_evdw>  (50) 
-28.3711

>  <r_i_glide_ecoul>  (50) 
-4.72206

>  <r_i_glide_erotb>  (50) 
0

>  <r_i_glide_esite>  (50) 
-0.0755633

>  <r_i_glide_emodel>  (50) 
-37.9139

>  <r_i_glide_energy>  (50) 
-33.0932

>  <r_i_glide_einternal>  (50) 
0.413161

>  <r_i_glide_intrahb_reward>  (50) 
-0

>  <i_i_glide_confnum>  (50) 
1

>  <i_i_glide_posenum>  (50) 
25

>  <r_i_glide_eff_state_penalty>  (50) 
0

>  <ligand_id>  (50) 
4

>  <original_smiles>  (50) 
CC1CCC2(C)CCC3(C)C4C(O)CC5C(=CC6(C)C(O)CCC7(C)C(O)OCC567)C4(C)CCC3(C)C2CC1C

>  <smiles>  (50) 
[H]OC1([H])OC([H])([H])C23C4([H])C(=C([H])C2(C([H])([H])[H])C([H])(O[H])C([H])([H])C([H])([H])C13C([H])([H])[H])C1(C([H])([H])[H])C([H])([H])C([H])([H])C2(C([H])([H])[H])C3([H])C([H])([H])C([H])(C([H])([H])[H])C([H])(C([H])([H])[H])C([H])([H])C([H])([H])C3(C([H])([H])[H])C([H])([H])C([H])([H])C2(C([H])([H])[H])C1([H])C([H])(O[H])C4([H])[H]

$$$$
4:0:2
     RDKit          3D

 98104  0  0  1  0  0  0  0  0999 V2000
   -2.0110    3.0912    4.2800 C   0  0  0  0  0  0  0  0  0  0  0  0
   -0.6553    2.8687    4.9864 C   0  0  2  0  0  0  0  0  0  0  0  0
    0.4529    2.7898    3.9203 C   0  0  0  0  0  0  0  0  0  0  0  0
    1.9093    2.7946    4.4503 C   0  0  0  0  0  0  0  0  0  0  0  0
    2.5686    1.4249    4.8103 C   0  0  2  0  0  0  0  0  0  0  0  0
    4.0047    1.7705    5.2976 C   0  0  0  0  0  0  0  0  0  0  0  0
    2.7313    0.6334    3.4889 C   0  0  0  0  0  0  0  0  0  0  0  0
    3.0092   -0.8501    3.6847 C   0  0  0  0  0  0  0  0  0  0  0  0
    1.8746   -1.5676    4.4497 C   0  0  1  0  0  0  0  0  0  0  0  0
    0.5544   -1.3020    3.6807 C   0  0  0  0  0  0  0  0  0  0  0  0
    2.1035   -3.1332    4.4854 C   0  0  1  0  0  0  0  0  0  0  0  0
    1.8809   -3.9702    3.1909 C   0  0  1  0  0  0  0  0  0  0  0  0
    2.9398   -3.8676    2.2641 O   0  0  0  0  0  0  0  0  0  0  0  0
    1.5644   -5.4624    3.4919 C   0  0  0  0  0  0  0  0  0  0  0  0
    1.7654   -5.8670    4.9832 C   0  0  2  0  0  0  0  0  0  0  0  0
    3.0648   -5.2540    5.4438 C   0  0  0  0  0  0  0  0  0  0  0  0
    3.9891   -6.2048    5.6409 C   0  0  0  0  0  0  0  0  0  0  0  0
    3.4867   -7.6113    5.3870 C   0  0  2  0  0  0  0  0  0  0  0  0
    4.0715   -8.5756    6.4617 C   0  0  0  0  0  0  0  0  0  0  0  0
    3.9569   -8.0494    3.9690 C   0  0  1  0  0  0  0  0  0  0  0  0
    5.3471   -8.3162    3.9214 O   0  0  0  0  0  0  0  0  0  0  0  0
    3.1941   -9.2711    3.4315 C   0  0  0  0  0  0  0  0  0  0  0  0
    1.6689   -9.0476    3.4028 C   0  0  0  0  0  0  0  0  0  0  0  0
    1.0409   -8.4598    4.7009 C   0  0  1  0  0  0  0  0  0  0  0  0
   -0.4027   -8.0017    4.3534 C   0  0  0  0  0  0  0  0  0  0  0  0
    0.8207   -9.5173    5.8372 C   0  0  1  0  0  0  0  0  0  0  0  0
    1.6319  -10.6535    5.6759 O   0  0  0  0  0  0  0  0  0  0  0  0
    1.0954   -8.8937    7.0493 O   0  0  0  0  0  0  0  0  0  0  0  0
    1.3605   -7.5175    6.8432 C   0  0  0  0  0  0  0  0  0  0  0  0
    1.9171   -7.3786    5.4084 C   0  0  2  0  0  0  0  0  0  0  0  0
    3.2492   -3.7195    5.3948 C   0  0  1  0  0  0  0  0  0  0  0  0
    4.7016   -3.4179    4.9193 C   0  0  0  0  0  0  0  0  0  0  0  0
    3.0575   -3.1091    6.7988 C   0  0  0  0  0  0  0  0  0  0  0  0
    2.9224   -1.5596    6.7852 C   0  0  0  0  0  0  0  0  0  0  0  0
    1.7510   -0.9768    5.9195 C   0  0  2  0  0  0  0  0  0  0  0  0
    0.4501   -1.4775    6.6350 C   0  0  0  0  0  0  0  0  0  0  0  0
    1.8186    0.6326    5.9628 C   0  0  2  0  0  0  0  0  0  0  0  0
    0.6642    1.4214    6.6656 C   0  0  0  0  0  0  0  0  0  0  0  0
   -0.6777    1.6352    5.9219 C   0  0  1  0  0  0  0  0  0  0  0  0
   -1.8140    1.7313    6.9613 C   0  0  0  0  0  0  0  0  0  0  0  0
   -2.3234    2.2029    3.7277 H   0  0  0  0  0  0  0  0  0  0  0  0
   -1.9555    3.9141    3.5668 H   0  0  0  0  0  0  0  0  0  0  0  0
   -2.8034    3.3442    4.9833 H   0  0  0  0  0  0  0  0  0  0  0  0
   -0.4588    3.7539    5.5918 H   0  0  0  0  0  0  0  0  0  0  0  0
    0.2520    1.9646    3.2419 H   0  0  0  0  0  0  0  0  0  0  0  0
    0.3573    3.6743    3.2889 H   0  0  0  0  0  0  0  0  0  0  0  0
    2.5189    3.2450    3.6653 H   0  0  0  0  0  0  0  0  0  0  0  0
    1.9923    3.5022    5.2760 H   0  0  0  0  0  0  0  0  0  0  0  0
    4.5828    0.8791    5.5411 H   0  0  0  0  0  0  0  0  0  0  0  0
    3.9964    2.4031    6.1875 H   0  0  0  0  0  0  0  0  0  0  0  0
    4.5696    2.3108    4.5383 H   0  0  0  0  0  0  0  0  0  0  0  0
    1.8831    0.7520    2.8218 H   0  0  0  0  0  0  0  0  0  0  0  0
    3.5574    1.0558    2.9171 H   0  0  0  0  0  0  0  0  0  0  0  0
    3.1680   -1.3019    2.7091 H   0  0  0  0  0  0  0  0  0  0  0  0
    3.9580   -0.9215    4.1974 H   0  0  0  0  0  0  0  0  0  0  0  0
   -0.2516   -1.9672    3.9928 H   0  0  0  0  0  0  0  0  0  0  0  0
    0.6913   -1.4259    2.6041 H   0  0  0  0  0  0  0  0  0  0  0  0
    0.1975   -0.2863    3.8187 H   0  0  0  0  0  0  0  0  0  0  0  0
    1.1989   -3.4104    5.0093 H   0  0  0  0  0  0  0  0  0  0  0  0
    1.0148   -3.5892    2.6598 H   0  0  0  0  0  0  0  0  0  0  0  0
    3.0059   -2.9669    1.9894 H   0  0  0  0  0  0  0  0  0  0  0  0
    0.5252   -5.6091    3.2251 H   0  0  0  0  0  0  0  0  0  0  0  0
    2.1218   -6.0932    2.8064 H   0  0  0  0  0  0  0  0  0  0  0  0
    0.9503   -5.4245    5.5531 H   0  0  0  0  0  0  0  0  0  0  0  0
    5.0168   -6.0374    5.9183 H   0  0  0  0  0  0  0  0  0  0  0  0
    3.7821   -9.6097    6.2996 H   0  0  0  0  0  0  0  0  0  0  0  0
    3.7931   -8.3213    7.4806 H   0  0  0  0  0  0  0  0  0  0  0  0
    5.1599   -8.5664    6.4561 H   0  0  0  0  0  0  0  0  0  0  0  0
    3.8149   -7.2308    3.2692 H   0  0  0  0  0  0  0  0  0  0  0  0
    5.5205   -9.0858    4.4386 H   0  0  0  0  0  0  0  0  0  0  0  0
    3.5294   -9.4885    2.4163 H   0  0  0  0  0  0  0  0  0  0  0  0
    3.4421  -10.1604    4.0122 H   0  0  0  0  0  0  0  0  0  0  0  0
    1.4826   -8.3430    2.5914 H   0  0  0  0  0  0  0  0  0  0  0  0
    1.1559   -9.9646    3.1063 H   0  0  0  0  0  0  0  0  0  0  0  0
   -0.8857   -7.4623    5.1656 H   0  0  0  0  0  0  0  0  0  0  0  0
   -1.0315   -8.8672    4.1363 H   0  0  0  0  0  0  0  0  0  0  0  0
   -0.4635   -7.3981    3.4556 H   0  0  0  0  0  0  0  0  0  0  0  0
   -0.1998   -9.8924    5.8771 H   0  0  0  0  0  0  0  0  0  0  0  0
    1.4211  -11.2769    6.3839 H   0  0  0  0  0  0  0  0  0  0  0  0
    0.4081   -6.9998    6.9490 H   0  0  0  0  0  0  0  0  0  0  0  0
    2.0103   -7.1023    7.6153 H   0  0  0  0  0  0  0  0  0  0  0  0
    5.0253   -2.4021    5.1105 H   0  0  0  0  0  0  0  0  0  0  0  0
    4.8458   -3.6211    3.8612 H   0  0  0  0  0  0  0  0  0  0  0  0
    5.4412   -4.0139    5.4505 H   0  0  0  0  0  0  0  0  0  0  0  0
    2.1871   -3.5558    7.2805 H   0  0  0  0  0  0  0  0  0  0  0  0
    3.9013   -3.3871    7.4338 H   0  0  0  0  0  0  0  0  0  0  0  0
    2.8072   -1.2326    7.8200 H   0  0  0  0  0  0  0  0  0  0  0  0
    3.8683   -1.1248    6.4687 H   0  0  0  0  0  0  0  0  0  0  0  0
    0.4271   -1.1806    7.6832 H   0  0  0  0  0  0  0  0  0  0  0  0
    0.3443   -2.5586    6.6614 H   0  0  0  0  0  0  0  0  0  0  0  0
   -0.4616   -1.1153    6.1700 H   0  0  0  0  0  0  0  0  0  0  0  0
    2.5158    0.7641    6.7882 H   0  0  0  0  0  0  0  0  0  0  0  0
    0.4706    0.9500    7.6258 H   0  0  0  0  0  0  0  0  0  0  0  0
    1.0352    2.3959    6.9828 H   0  0  0  0  0  0  0  0  0  0  0  0
   -0.8969    0.7706    5.3072 H   0  0  0  0  0  0  0  0  0  0  0  0
   -1.7350    2.6413    7.5565 H   0  0  0  0  0  0  0  0  0  0  0  0
   -1.7861    0.8925    7.6524 H   0  0  0  0  0  0  0  0  0  0  0  0
   -2.7985    1.7166    6.4971 H   0  0  0  0  0  0  0  0  0  0  0  0
  1  2  1  0
  1 41  1  0
  1 42  1  0
  1 43  1  0
  2 39  1  0
  2  3  1  0
  2 44  1  1
  3  4  1  0
  3 45  1  0
  3 46  1  0
  4  5  1  0
  4 47  1  0
  4 48  1  0
  5 37  1  0
  5  6  1  1
  5  7  1  0
  6 49  1  0
  6 50  1  0
  6 51  1  0
  7  8  1  0
  7 52  1  0
  7 53  1  0
  8  9  1  0
  8 54  1  0
  8 55  1  0
  9 35  1  0
  9 10  1  6
  9 11  1  0
 10 56  1  0
 10 57  1  0
 10 58  1  0
 11 31  1  0
 11 12  1  0
 11 59  1  1
 12 13  1  0
 12 14  1  0
 12 60  1  6
 13 61  1  0
 14 15  1  0
 14 62  1  0
 14 63  1  0
 15 30  1  0
 15 16  1  0
 15 64  1  1
 16 17  2  0
 16 31  1  0
 17 18  1  0
 17 65  1  0
 18 30  1  0
 18 19  1  1
 18 20  1  0
 19 66  1  0
 19 67  1  0
 19 68  1  0
 20 21  1  0
 20 22  1  0
 20 69  1  6
 21 70  1  0
 22 23  1  0
 22 71  1  0
 22 72  1  0
 23 24  1  0
 23 73  1  0
 23 74  1  0
 24 30  1  0
 24 25  1  6
 24 26  1  0
 25 75  1  0
 25 76  1  0
 25 77  1  0
 26 27  1  0
 26 28  1  0
 26 78  1  1
 27 79  1  0
 28 29  1  0
 30 29  1  1
 29 80  1  0
 29 81  1  0
 31 32  1  6
 31 33  1  0
 32 82  1  0
 32 83  1  0
 32 84  1  0
 33 34  1  0
 33 85  1  0
 33 86  1  0
 34 35  1  0
 34 87  1  0
 34 88  1  0
 35 36  1  1
 35 37  1  0
 36 89  1  0
 36 90  1  0
 36 91  1  0
 37 38  1  0
 37 92  1  1
 38 39  1  0
 38 93  1  0
 38 94  1  0
 39 40  1  0
 39 95  1  6
 40 96  1  0
 40 97  1  0
 40 98  1  0
M  END
>  <i_m_ct_stereo_status>  (51) 
1

>  <s_m_source_file>  (51) 
/var/tmp/pbs.5076255.sched01/tmp6mrmgolx/06cp14zw5.sdf

>  <i_m_source_file_index>  (51) 
17

>  <i_lp_mmshare_version>  (51) 
48012

>  <i_f3d_flags>  (51) 
0

>  <s_epik_input>  (51) 
W0NIMl0xW0NAQEhdKFtDSDNdKVtDQEhdKFtDSDNdKVtDSDJdW0NIMl1bQ0BdKFtDSDNdKShbQ0gyXVtDSDJdMilbQ0BASF0xW0NAXShbQ0gzXSkoW0NIMl1bQ0gyXTMpW0NAXTIoW0NIM10pW0NAQEhdKFtDQEBIXShbT0hdKVtDSDJdNClbQ0BdMyhbQ0gzXSlDKFtDQEBIXTRbQ0BdNTY3KT1bQ0hdW0NAXTUoW0NIM10pW0NAQEhdKFtPSF0pW0NIMl1bQ0gyXVtDQEBdNihbQ0gzXSlbQ0BASF0oW09IXSlPW0NIMl03

>  <s_epik_cmdline>  (51) 
J2VwaWtfcHl0aG9uJywgJy1waHQnLCAnMi4wJywgJy1waCcsICc3LjAnLCAnLXRuJywgJzgnLCAnLW1hJywgJzIwMCcsICctaW1hZScsICc8aW5maWxlLm1hZT4nLCAnLW9tYWUnLCAnPG91dGZpbGUubWFlPic=

>  <r_lp_tautomer_probability>  (51) 
1

>  <r_epik_Ionization_Penalty>  (51) 
1.89852e-06

>  <r_epik_Ionization_Penalty_Charging>  (51) 
0

>  <r_epik_Ionization_Penalty_Neutral>  (51) 
1.89852e-06

>  <r_epik_State_Penalty>  (51) 
-0

>  <r_epik_Charging_Adjusted_Penalty>  (51) 
0

>  <i_epik_Tot_Q>  (51) 
0

>  <i_epik_Tot_abs_Q>  (51) 
0

>  <s_epik_Chemistry_Notes>  (51) 
This compound contains an acetal/aminal-like group ( X-CH(R)-Y where X, Y are N, S, or O) that may be acid/base labile, releasing an aldehyde.

>  <s_lp_Force_Field>  (51) 
OPLS3e

>  <r_lp_Energy>  (51) 
123.017

>  <b_lp_Chiralities_Consistent>  (51) 
1

>  <s_lp_Variant>  (51) 
4:0-1

>  <s_i_glide_gridfile>  (51) 
pfpi4k_grid

>  <i_i_glide_lignum>  (51) 
17

>  <i_i_glide_rotatable_bonds>  (51) 
3

>  <r_i_docking_score>  (51) 
-2.27228

>  <r_i_glide_ligand_efficiency>  (51) 
-0.0568071

>  <r_i_glide_ligand_efficiency_sa>  (51) 
-0.194277

>  <r_i_glide_ligand_efficiency_ln>  (51) 
-0.484611

>  <r_i_glide_gscore>  (51) 
-2.27228

>  <r_i_glide_lipo>  (51) 
-0.0145285

>  <r_i_glide_hbond>  (51) 
0

>  <r_i_glide_metal>  (51) 
-0

>  <r_i_glide_rewards>  (51) 
0

>  <r_i_glide_evdw>  (51) 
-27.3373

>  <r_i_glide_ecoul>  (51) 
-5.52372

>  <r_i_glide_erotb>  (51) 
0

>  <r_i_glide_esite>  (51) 
-0.0623284

>  <r_i_glide_emodel>  (51) 
-37.2357

>  <r_i_glide_energy>  (51) 
-32.8611

>  <r_i_glide_einternal>  (51) 
0.734414

>  <r_i_glide_intrahb_reward>  (51) 
-0

>  <i_i_glide_confnum>  (51) 
1

>  <i_i_glide_posenum>  (51) 
4

>  <r_i_glide_eff_state_penalty>  (51) 
0

>  <ligand_id>  (51) 
4

>  <original_smiles>  (51) 
CC1CCC2(C)CCC3(C)C4C(O)CC5C(=CC6(C)C(O)CCC7(C)C(O)OCC567)C4(C)CCC3(C)C2CC1C

>  <smiles>  (51) 
[H]OC1([H])OC([H])([H])C23C4([H])C(=C([H])C2(C([H])([H])[H])C([H])(O[H])C([H])([H])C([H])([H])C13C([H])([H])[H])C1(C([H])([H])[H])C([H])([H])C([H])([H])C2(C([H])([H])[H])C3([H])C([H])([H])C([H])(C([H])([H])[H])C([H])(C([H])([H])[H])C([H])([H])C([H])([H])C3(C([H])([H])[H])C([H])([H])C([H])([H])C2(C([H])([H])[H])C1([H])C([H])(O[H])C4([H])[H]

$$$$
5:0:0
     RDKit          3D

 57 60  0  0  1  0  0  0  0  0999 V2000
    1.1208    3.9867    3.5559 C   0  0  0  0  0  0  0  0  0  0  0  0
    1.3425    2.5451    3.2993 N   0  0  2  0  0  0  0  0  0  0  0  0
    2.7631    2.2758    2.9943 C   0  0  0  0  0  0  0  0  0  0  0  0
    3.0207    0.7767    2.8718 C   0  0  0  0  0  0  0  0  0  0  0  0
    2.0669    0.1291    1.8304 C   0  0  1  0  0  0  0  0  0  0  0  0
    2.2060   -1.3534    1.7800 N   0  0  1  0  0  0  0  0  0  0  0  0
    3.4666   -1.8210    1.1174 C   0  0  0  0  0  0  0  0  0  0  0  0
    3.5029   -3.3780    1.0315 C   0  0  0  0  0  0  0  0  0  0  0  0
    3.2829   -4.0530    2.4216 C   0  0  2  0  0  0  0  0  0  0  0  0
    1.9741   -3.4658    3.0252 C   0  0  0  0  0  0  0  0  0  0  0  0
    1.9935   -1.9583    3.1389 C   0  0  0  0  0  0  0  0  0  0  0  0
    4.4922   -3.8256    3.3404 C   0  0  0  0  0  0  0  0  0  0  0  0
    4.9686   -2.7050    3.5413 O   0  0  0  0  0  0  0  0  0  0  0  0
    4.9433   -4.9501    3.8796 N   0  0  0  0  0  0  0  0  0  0  0  0
    5.9272   -5.0304    4.9556 C   0  0  0  0  0  0  0  0  0  0  0  0
    4.2148   -6.1302    3.4324 C   0  0  0  0  0  0  0  0  0  0  0  0
    3.2128   -5.5986    2.3381 C   0  0  1  0  0  0  0  0  0  0  0  0
    1.8030   -6.2198    2.4197 C   0  0  0  0  0  0  0  0  0  0  0  0
    1.1560   -6.3959    3.6714 C   0  0  0  0  0  0  0  0  0  0  0  0
   -0.1436   -6.9206    3.7021 C   0  0  0  0  0  0  0  0  0  0  0  0
   -0.7649   -7.2653    2.4856 C   0  0  0  0  0  0  0  0  0  0  0  0
   -0.0482   -7.0665    1.2950 C   0  0  0  0  0  0  0  0  0  0  0  0
    1.1928   -6.5256    1.2565 N   0  0  0  0  0  0  0  0  0  0  0  0
    0.5911    0.5086    2.0913 C   0  0  0  0  0  0  0  0  0  0  0  0
    0.4525    2.0196    2.2323 C   0  0  0  0  0  0  0  0  0  0  0  0
    1.4104    4.5679    2.6797 H   0  0  0  0  0  0  0  0  0  0  0  0
    1.7344    4.3218    4.3909 H   0  0  0  0  0  0  0  0  0  0  0  0
    0.0771    4.1849    3.7981 H   0  0  0  0  0  0  0  0  0  0  0  0
    3.0345    2.7973    2.0718 H   0  0  0  0  0  0  0  0  0  0  0  0
    3.4180    2.6472    3.7833 H   0  0  0  0  0  0  0  0  0  0  0  0
    4.0793    0.5932    2.6365 H   0  0  0  0  0  0  0  0  0  0  0  0
    2.8549    0.4067    3.8862 H   0  0  0  0  0  0  0  0  0  0  0  0
    2.3322    0.4924    0.8384 H   0  0  0  0  0  0  0  0  0  0  0  0
    3.4942   -1.3923    0.1068 H   0  0  0  0  0  0  0  0  0  0  0  0
    4.3318   -1.4261    1.6530 H   0  0  0  0  0  0  0  0  0  0  0  0
    2.7357   -3.6993    0.3284 H   0  0  0  0  0  0  0  0  0  0  0  0
    4.4476   -3.7105    0.5936 H   0  0  0  0  0  0  0  0  0  0  0  0
    1.0602   -3.7482    2.4859 H   0  0  0  0  0  0  0  0  0  0  0  0
    1.8514   -3.7886    4.0608 H   0  0  0  0  0  0  0  0  0  0  0  0
    2.7861   -1.6776    3.8503 H   0  0  0  0  0  0  0  0  0  0  0  0
    1.0167   -1.6854    3.5810 H   0  0  0  0  0  0  0  0  0  0  0  0
    6.2892   -4.0395    5.2208 H   0  0  0  0  0  0  0  0  0  0  0  0
    6.7796   -5.6141    4.6155 H   0  0  0  0  0  0  0  0  0  0  0  0
    5.5026   -5.4447    5.8716 H   0  0  0  0  0  0  0  0  0  0  0  0
    4.8946   -6.8825    2.9808 H   0  0  0  0  0  0  0  0  0  0  0  0
    3.6986   -6.5792    4.2925 H   0  0  0  0  0  0  0  0  0  0  0  0
    3.7036   -5.8982    1.4018 H   0  0  0  0  0  0  0  0  0  0  0  0
    1.6082   -6.0866    4.5907 H   0  0  0  0  0  0  0  0  0  0  0  0
   -0.6635   -7.0152    4.6427 H   0  0  0  0  0  0  0  0  0  0  0  0
   -1.7579   -7.6861    2.4748 H   0  0  0  0  0  0  0  0  0  0  0  0
   -0.5054   -7.3063    0.3508 H   0  0  0  0  0  0  0  0  0  0  0  0
   -0.0459    0.1471    1.2803 H   0  0  0  0  0  0  0  0  0  0  0  0
    0.1696    0.0682    2.9951 H   0  0  0  0  0  0  0  0  0  0  0  0
   -0.5942    2.2336    2.4500 H   0  0  0  0  0  0  0  0  0  0  0  0
    0.7193    2.4569    1.2705 H   0  0  0  0  0  0  0  0  0  0  0  0
    1.1188    2.0416    4.1444 H   0  0  0  0  0  0  0  0  0  0  0  0
    1.4857   -1.6649    1.1341 H   0  0  0  0  0  0  0  0  0  0  0  0
  1  2  1  0
  1 26  1  0
  1 27  1  0
  1 28  1  0
  2 25  1  0
  2  3  1  0
  2 56  1  1
  3  4  1  0
  3 29  1  0
  3 30  1  0
  4  5  1  0
  4 31  1  0
  4 32  1  0
  5  6  1  0
  5 24  1  0
  5 33  1  6
  6 11  1  0
  6  7  1  0
  6 57  1  6
  7  8  1  0
  7 34  1  0
  7 35  1  0
  9  8  1  6
  8 36  1  0
  8 37  1  0
  9 17  1  0
  9 10  1  0
  9 12  1  0
 10 11  1  0
 10 38  1  0
 10 39  1  0
 11 40  1  0
 11 41  1  0
 12 13  2  0
 12 14  1  0
 14 15  1  0
 14 16  1  0
 15 42  1  0
 15 43  1  0
 15 44  1  0
 16 17  1  0
 16 45  1  0
 16 46  1  0
 17 18  1  0
 17 47  1  6
 18 23  1  0
 18 19  2  0
 19 20  1  0
 19 48  1  0
 20 21  2  0
 20 49  1  0
 21 22  1  0
 21 50  1  0
 22 23  2  0
 22 51  1  0
 24 25  1  0
 24 52  1  0
 24 53  1  0
 25 54  1  0
 25 55  1  0
M  CHG  2   2   1   6   1
M  END
>  <i_m_ct_stereo_status>  (52) 
1

>  <s_m_source_file>  (52) 
/var/tmp/pbs.5076255.sched01/tmp6mrmgolx/06cp14zw5.sdf

>  <i_m_source_file_index>  (52) 
18

>  <i_lp_mmshare_version>  (52) 
48012

>  <i_f3d_flags>  (52) 
0

>  <s_epik_input>  (52) 
W0NIM11OMVtDSDJdW0NIMl1bQ0hdKFtDSDJdW0NIMl0xKU4oW0NIMl1bQ0gyXTIpW0NIMl1bQ0gyXUMyM0MoPU8pTihbQ0gzXSlbQ0gyXVtDQEhdM2M0W2NIXVtjSF1bY0hdW2NIXW40

>  <s_epik_cmdline>  (52) 
J2VwaWtfcHl0aG9uJywgJy1waHQnLCAnMi4wJywgJy1waCcsICc3LjAnLCAnLXRuJywgJzgnLCAnLW1hJywgJzIwMCcsICctaW1hZScsICc8aW5maWxlLm1hZT4nLCAnLW9tYWUnLCAnPG91dGZpbGUubWFlPic=

>  <r_epik_Ionization_Penalty>  (52) 
0.35732

>  <r_epik_Ionization_Penalty_Charging>  (52) 
0.349635

>  <r_epik_Ionization_Penalty_Neutral>  (52) 
0.0076849

>  <r_epik_State_Penalty>  (52) 
0.348033

>  <r_epik_Charging_Adjusted_Penalty>  (52) 
0.697668

>  <i_epik_Tot_Q>  (52) 
2

>  <i_epik_Tot_abs_Q>  (52) 
2

>  <s_lp_Force_Field>  (52) 
OPLS3e

>  <r_lp_Energy>  (52) 
56.3373

>  <b_lp_Chiralities_Consistent>  (52) 
1

>  <s_lp_Variant>  (52) 
5:0-1

>  <s_i_glide_gridfile>  (52) 
pfpi4k_grid

>  <i_i_glide_lignum>  (52) 
18

>  <i_i_glide_rotatable_bonds>  (52) 
2

>  <r_i_docking_score>  (52) 
-3.41256

>  <r_i_glide_ligand_efficiency>  (52) 
-0.136503

>  <r_i_glide_ligand_efficiency_sa>  (52) 
-0.399136

>  <r_i_glide_ligand_efficiency_ln>  (52) 
-0.80888

>  <r_i_glide_gscore>  (52) 
-3.41256

>  <r_i_glide_lipo>  (52) 
-0.028699

>  <r_i_glide_hbond>  (52) 
-0.139683

>  <r_i_glide_metal>  (52) 
-0

>  <r_i_glide_rewards>  (52) 
-1.07976

>  <r_i_glide_evdw>  (52) 
-19.2235

>  <r_i_glide_ecoul>  (52) 
-9.41128

>  <r_i_glide_erotb>  (52) 
0.319998

>  <r_i_glide_esite>  (52) 
-0.111549

>  <r_i_glide_emodel>  (52) 
-33.1738

>  <r_i_glide_energy>  (52) 
-28.6348

>  <r_i_glide_einternal>  (52) 
4.09226

>  <r_i_glide_intrahb_reward>  (52) 
-0

>  <i_i_glide_confnum>  (52) 
3

>  <i_i_glide_posenum>  (52) 
23

>  <r_i_glide_eff_state_penalty>  (52) 
0

>  <ligand_id>  (52) 
5

>  <original_smiles>  (52) 
CN1CCC(N2CCC3(CC2)C(=O)N(C)CC3c2ccccn2)CC1

>  <smiles>  (52) 
[H]c1nc(C2([H])C([H])([H])N(C([H])([H])[H])C(=O)C23C([H])([H])C([H])([H])[N+]([H])(C2([H])C([H])([H])C([H])([H])[N+]([H])(C([H])([H])[H])C([H])([H])C2([H])[H])C([H])([H])C3([H])[H])c([H])c([H])c1[H]

$$$$
5:0:1
     RDKit          3D

 57 60  0  0  1  0  0  0  0  0999 V2000
    2.7026    4.5598    3.3048 C   0  0  0  0  0  0  0  0  0  0  0  0
    2.7669    3.1084    3.0422 N   0  0  2  0  0  0  0  0  0  0  0  0
    1.7180    2.6636    2.0898 C   0  0  0  0  0  0  0  0  0  0  0  0
    1.9126    1.1959    1.6923 C   0  0  0  0  0  0  0  0  0  0  0  0
    1.9449    0.3070    2.9482 C   0  0  1  0  0  0  0  0  0  0  0  0
    2.1720   -1.1220    2.6177 N   0  0  1  0  0  0  0  0  0  0  0  0
    3.4694   -1.3921    1.9085 C   0  0  0  0  0  0  0  0  0  0  0  0
    3.5981   -2.8722    1.5265 C   0  0  0  0  0  0  0  0  0  0  0  0
    3.4115   -3.8111    2.7495 C   0  0  2  0  0  0  0  0  0  0  0  0
    2.0723   -3.4336    3.4512 C   0  0  0  0  0  0  0  0  0  0  0  0
    1.9662   -1.9692    3.8301 C   0  0  0  0  0  0  0  0  0  0  0  0
    4.6086   -3.6890    3.7138 C   0  0  0  0  0  0  0  0  0  0  0  0
    4.9982   -2.5997    4.1641 O   0  0  0  0  0  0  0  0  0  0  0  0
    5.1514   -4.8624    3.9982 N   0  0  0  0  0  0  0  0  0  0  0  0
    6.1529   -5.0786    5.0342 C   0  0  0  0  0  0  0  0  0  0  0  0
    4.5115   -5.9668    3.3006 C   0  0  0  0  0  0  0  0  0  0  0  0
    3.4880   -5.3087    2.3365 C   0  0  1  0  0  0  0  0  0  0  0  0
    2.1487   -6.0614    2.2243 C   0  0  0  0  0  0  0  0  0  0  0  0
    1.4840   -6.2586    0.9805 C   0  0  0  0  0  0  0  0  0  0  0  0
    0.2335   -6.9040    0.9851 C   0  0  0  0  0  0  0  0  0  0  0  0
   -0.3440   -7.2716    2.2175 C   0  0  0  0  0  0  0  0  0  0  0  0
    0.3833   -7.0257    3.3892 C   0  0  0  0  0  0  0  0  0  0  0  0
    1.5948   -6.4360    3.3913 N   0  0  0  0  0  0  0  0  0  0  0  0
    2.9483    0.8440    4.0033 C   0  0  0  0  0  0  0  0  0  0  0  0
    2.7230    2.3202    4.2948 C   0  0  0  0  0  0  0  0  0  0  0  0
    1.7376    4.8112    3.7508 H   0  0  0  0  0  0  0  0  0  0  0  0
    2.8184    5.1250    2.3796 H   0  0  0  0  0  0  0  0  0  0  0  0
    3.4946    4.8641    3.9928 H   0  0  0  0  0  0  0  0  0  0  0  0
    0.7115    2.8223    2.4920 H   0  0  0  0  0  0  0  0  0  0  0  0
    1.8213    3.2709    1.1984 H   0  0  0  0  0  0  0  0  0  0  0  0
    1.1170    0.8723    1.0079 H   0  0  0  0  0  0  0  0  0  0  0  0
    2.8462    1.1499    1.1305 H   0  0  0  0  0  0  0  0  0  0  0  0
    0.9462    0.3521    3.3807 H   0  0  0  0  0  0  0  0  0  0  0  0
    3.5228   -0.8349    0.9698 H   0  0  0  0  0  0  0  0  0  0  0  0
    4.3174   -1.0756    2.5174 H   0  0  0  0  0  0  0  0  0  0  0  0
    2.8555   -3.0878    0.7517 H   0  0  0  0  0  0  0  0  0  0  0  0
    4.5669   -3.0339    1.0445 H   0  0  0  0  0  0  0  0  0  0  0  0
    1.1976   -3.6743    2.8362 H   0  0  0  0  0  0  0  0  0  0  0  0
    1.9779   -3.9893    4.3851 H   0  0  0  0  0  0  0  0  0  0  0  0
    2.7033   -1.7670    4.6123 H   0  0  0  0  0  0  0  0  0  0  0  0
    0.9676   -1.7797    4.2586 H   0  0  0  0  0  0  0  0  0  0  0  0
    6.4563   -4.1356    5.4990 H   0  0  0  0  0  0  0  0  0  0  0  0
    7.0484   -5.5252    4.5939 H   0  0  0  0  0  0  0  0  0  0  0  0
    5.7671   -5.7058    5.8469 H   0  0  0  0  0  0  0  0  0  0  0  0
    5.2428   -6.5664    2.7341 H   0  0  0  0  0  0  0  0  0  0  0  0
    4.0209   -6.6066    4.0442 H   0  0  0  0  0  0  0  0  0  0  0  0
    3.9895   -5.3508    1.3580 H   0  0  0  0  0  0  0  0  0  0  0  0
    1.9273   -5.9206    0.0562 H   0  0  0  0  0  0  0  0  0  0  0  0
   -0.3204   -7.0800    0.0764 H   0  0  0  0  0  0  0  0  0  0  0  0
   -1.2989   -7.7757    2.2555 H   0  0  0  0  0  0  0  0  0  0  0  0
   -0.0219   -7.2771    4.3608 H   0  0  0  0  0  0  0  0  0  0  0  0
    2.8658    0.3336    4.9714 H   0  0  0  0  0  0  0  0  0  0  0  0
    3.9866    0.7279    3.6753 H   0  0  0  0  0  0  0  0  0  0  0  0
    3.5046    2.6390    4.9914 H   0  0  0  0  0  0  0  0  0  0  0  0
    1.7557    2.4425    4.7951 H   0  0  0  0  0  0  0  0  0  0  0  0
    3.6719    2.9324    2.6100 H   0  0  0  0  0  0  0  0  0  0  0  0
    1.4509   -1.3986    1.9538 H   0  0  0  0  0  0  0  0  0  0  0  0
  1  2  1  0
  1 26  1  0
  1 27  1  0
  1 28  1  0
  2 25  1  0
  2  3  1  0
  2 56  1  6
  3  4  1  0
  3 29  1  0
  3 30  1  0
  4  5  1  0
  4 31  1  0
  4 32  1  0
  5  6  1  0
  5 24  1  0
  5 33  1  1
  6 11  1  0
  6  7  1  0
  6 57  1  6
  7  8  1  0
  7 34  1  0
  7 35  1  0
  9  8  1  6
  8 36  1  0
  8 37  1  0
  9 17  1  0
  9 10  1  0
  9 12  1  0
 10 11  1  0
 10 38  1  0
 10 39  1  0
 11 40  1  0
 11 41  1  0
 12 13  2  0
 12 14  1  0
 14 15  1  0
 14 16  1  0
 15 42  1  0
 15 43  1  0
 15 44  1  0
 16 17  1  0
 16 45  1  0
 16 46  1  0
 17 18  1  0
 17 47  1  6
 18 23  1  0
 18 19  2  0
 19 20  1  0
 19 48  1  0
 20 21  2  0
 20 49  1  0
 21 22  1  0
 21 50  1  0
 22 23  2  0
 22 51  1  0
 24 25  1  0
 24 52  1  0
 24 53  1  0
 25 54  1  0
 25 55  1  0
M  CHG  2   2   1   6   1
M  END
>  <i_m_ct_stereo_status>  (53) 
1

>  <s_m_source_file>  (53) 
/var/tmp/pbs.5076255.sched01/tmp6mrmgolx/06cp14zw5.sdf

>  <i_m_source_file_index>  (53) 
18

>  <i_lp_mmshare_version>  (53) 
48012

>  <i_f3d_flags>  (53) 
0

>  <s_epik_input>  (53) 
W0NIM11OMVtDSDJdW0NIMl1bQ0hdKFtDSDJdW0NIMl0xKU4oW0NIMl1bQ0gyXTIpW0NIMl1bQ0gyXUMyM0MoPU8pTihbQ0gzXSlbQ0gyXVtDQEhdM2M0W2NIXVtjSF1bY0hdW2NIXW40

>  <s_epik_cmdline>  (53) 
J2VwaWtfcHl0aG9uJywgJy1waHQnLCAnMi4wJywgJy1waCcsICc3LjAnLCAnLXRuJywgJzgnLCAnLW1hJywgJzIwMCcsICctaW1hZScsICc8aW5maWxlLm1hZT4nLCAnLW9tYWUnLCAnPG91dGZpbGUubWFlPic=

>  <r_epik_Ionization_Penalty>  (53) 
0.35732

>  <r_epik_Ionization_Penalty_Charging>  (53) 
0.349635

>  <r_epik_Ionization_Penalty_Neutral>  (53) 
0.0076849

>  <r_epik_State_Penalty>  (53) 
0.348033

>  <r_epik_Charging_Adjusted_Penalty>  (53) 
0.697668

>  <i_epik_Tot_Q>  (53) 
2

>  <i_epik_Tot_abs_Q>  (53) 
2

>  <s_lp_Force_Field>  (53) 
OPLS3e

>  <r_lp_Energy>  (53) 
56.3373

>  <b_lp_Chiralities_Consistent>  (53) 
1

>  <s_lp_Variant>  (53) 
5:0-1

>  <s_i_glide_gridfile>  (53) 
pfpi4k_grid

>  <i_i_glide_lignum>  (53) 
18

>  <i_i_glide_rotatable_bonds>  (53) 
2

>  <r_i_docking_score>  (53) 
-3.15377

>  <r_i_glide_ligand_efficiency>  (53) 
-0.126151

>  <r_i_glide_ligand_efficiency_sa>  (53) 
-0.368867

>  <r_i_glide_ligand_efficiency_ln>  (53) 
-0.747538

>  <r_i_glide_gscore>  (53) 
-3.15377

>  <r_i_glide_lipo>  (53) 
-0.0110273

>  <r_i_glide_hbond>  (53) 
0

>  <r_i_glide_metal>  (53) 
-0

>  <r_i_glide_rewards>  (53) 
-1.08604

>  <r_i_glide_evdw>  (53) 
-18.846

>  <r_i_glide_ecoul>  (53) 
-9.19863

>  <r_i_glide_erotb>  (53) 
0.319998

>  <r_i_glide_esite>  (53) 
-0.0546005

>  <r_i_glide_emodel>  (53) 
-33.7467

>  <r_i_glide_energy>  (53) 
-28.0447

>  <r_i_glide_einternal>  (53) 
1.31621

>  <r_i_glide_intrahb_reward>  (53) 
-0

>  <i_i_glide_confnum>  (53) 
3

>  <i_i_glide_posenum>  (53) 
12

>  <r_i_glide_eff_state_penalty>  (53) 
0

>  <ligand_id>  (53) 
5

>  <original_smiles>  (53) 
CN1CCC(N2CCC3(CC2)C(=O)N(C)CC3c2ccccn2)CC1

>  <smiles>  (53) 
[H]c1nc(C2([H])C([H])([H])N(C([H])([H])[H])C(=O)C23C([H])([H])C([H])([H])[N+]([H])(C2([H])C([H])([H])C([H])([H])[N+]([H])(C([H])([H])[H])C([H])([H])C2([H])[H])C([H])([H])C3([H])[H])c([H])c([H])c1[H]

$$$$
5:0:2
     RDKit          3D

 57 60  0  0  1  0  0  0  0  0999 V2000
    3.6675   -1.1052   -2.6539 C   0  0  0  0  0  0  0  0  0  0  0  0
    3.4785   -2.0546   -1.5372 N   0  0  2  0  0  0  0  0  0  0  0  0
    3.7904   -1.4305   -0.2293 C   0  0  0  0  0  0  0  0  0  0  0  0
    3.4340   -2.3865    0.9018 C   0  0  0  0  0  0  0  0  0  0  0  0
    4.1567   -3.7488    0.7435 C   0  0  1  0  0  0  0  0  0  0  0  0
    3.7216   -4.7361    1.7676 N   0  0  1  0  0  0  0  0  0  0  0  0
    4.3013   -4.4870    3.1263 C   0  0  0  0  0  0  0  0  0  0  0  0
    3.8837   -5.6060    4.1195 C   0  0  0  0  0  0  0  0  0  0  0  0
    2.3415   -5.8147    4.1652 C   0  0  2  0  0  0  0  0  0  0  0  0
    1.8497   -6.0270    2.7106 C   0  0  0  0  0  0  0  0  0  0  0  0
    2.2340   -4.8986    1.7869 C   0  0  0  0  0  0  0  0  0  0  0  0
    1.6431   -4.6211    4.8367 C   0  0  0  0  0  0  0  0  0  0  0  0
    1.8370   -3.4467    4.4772 O   0  0  0  0  0  0  0  0  0  0  0  0
    0.8187   -4.9773    5.7955 N   0  0  0  0  0  0  0  0  0  0  0  0
   -0.1159   -4.0862    6.4673 C   0  0  0  0  0  0  0  0  0  0  0  0
    0.8030   -6.4098    6.0295 C   0  0  0  0  0  0  0  0  0  0  0  0
    1.9131   -6.9928    5.0815 C   0  0  1  0  0  0  0  0  0  0  0  0
    1.5111   -8.3009    4.3814 C   0  0  0  0  0  0  0  0  0  0  0  0
    0.2306   -8.4434    3.8020 C   0  0  0  0  0  0  0  0  0  0  0  0
   -0.0832   -9.6244    3.1122 C   0  0  0  0  0  0  0  0  0  0  0  0
    0.9015  -10.6203    2.9997 C   0  0  0  0  0  0  0  0  0  0  0  0
    2.1609  -10.3815    3.5766 C   0  0  0  0  0  0  0  0  0  0  0  0
    2.4629   -9.2420    4.2484 N   0  0  0  0  0  0  0  0  0  0  0  0
    3.9533   -4.3378   -0.6636 C   0  0  0  0  0  0  0  0  0  0  0  0
    4.2559   -3.3041   -1.7493 C   0  0  0  0  0  0  0  0  0  0  0  0
    4.7001   -0.7528   -2.6699 H   0  0  0  0  0  0  0  0  0  0  0  0
    3.0040   -0.2555   -2.5215 H   0  0  0  0  0  0  0  0  0  0  0  0
    3.4268   -1.5509   -3.6192 H   0  0  0  0  0  0  0  0  0  0  0  0
    4.8442   -1.1342   -0.1560 H   0  0  0  0  0  0  0  0  0  0  0  0
    3.1704   -0.5445   -0.0747 H   0  0  0  0  0  0  0  0  0  0  0  0
    3.6508   -1.9138    1.8716 H   0  0  0  0  0  0  0  0  0  0  0  0
    2.3446   -2.4553    0.8320 H   0  0  0  0  0  0  0  0  0  0  0  0
    5.2241   -3.5997    0.8768 H   0  0  0  0  0  0  0  0  0  0  0  0
    5.3929   -4.4594    3.0345 H   0  0  0  0  0  0  0  0  0  0  0  0
    4.0022   -3.5012    3.4761 H   0  0  0  0  0  0  0  0  0  0  0  0
    4.3774   -6.5320    3.8160 H   0  0  0  0  0  0  0  0  0  0  0  0
    4.2767   -5.3885    5.1169 H   0  0  0  0  0  0  0  0  0  0  0  0
    2.1935   -6.9688    2.2523 H   0  0  0  0  0  0  0  0  0  0  0  0
    0.7588   -6.0327    2.6756 H   0  0  0  0  0  0  0  0  0  0  0  0
    1.7302   -3.9899    2.1189 H   0  0  0  0  0  0  0  0  0  0  0  0
    1.8368   -5.1662    0.8011 H   0  0  0  0  0  0  0  0  0  0  0  0
   -0.0047   -3.0554    6.1166 H   0  0  0  0  0  0  0  0  0  0  0  0
    0.0893   -4.0826    7.5400 H   0  0  0  0  0  0  0  0  0  0  0  0
   -1.1586   -4.3610    6.2776 H   0  0  0  0  0  0  0  0  0  0  0  0
    1.0404   -6.6561    7.0841 H   0  0  0  0  0  0  0  0  0  0  0  0
   -0.1948   -6.7982    5.7948 H   0  0  0  0  0  0  0  0  0  0  0  0
    2.7524   -7.1907    5.7675 H   0  0  0  0  0  0  0  0  0  0  0  0
   -0.5090   -7.6641    3.8358 H   0  0  0  0  0  0  0  0  0  0  0  0
   -1.0557   -9.7440    2.6492 H   0  0  0  0  0  0  0  0  0  0  0  0
    0.6798  -11.5510    2.4892 H   0  0  0  0  0  0  0  0  0  0  0  0
    2.9364  -11.1285    3.4910 H   0  0  0  0  0  0  0  0  0  0  0  0
    4.5665   -5.2394   -0.7989 H   0  0  0  0  0  0  0  0  0  0  0  0
    2.9281   -4.6534   -0.8480 H   0  0  0  0  0  0  0  0  0  0  0  0
    4.0137   -3.7555   -2.7162 H   0  0  0  0  0  0  0  0  0  0  0  0
    5.3282   -3.0914   -1.7461 H   0  0  0  0  0  0  0  0  0  0  0  0
    2.4898   -2.2727   -1.5190 H   0  0  0  0  0  0  0  0  0  0  0  0
    4.1096   -5.6356    1.5077 H   0  0  0  0  0  0  0  0  0  0  0  0
  1  2  1  0
  1 26  1  0
  1 27  1  0
  1 28  1  0
  2 25  1  0
  2  3  1  0
  2 56  1  1
  3  4  1  0
  3 29  1  0
  3 30  1  0
  4  5  1  0
  4 31  1  0
  4 32  1  0
  5  6  1  0
  5 24  1  0
  5 33  1  1
  6 11  1  0
  6  7  1  0
  6 57  1  6
  7  8  1  0
  7 34  1  0
  7 35  1  0
  9  8  1  6
  8 36  1  0
  8 37  1  0
  9 17  1  0
  9 10  1  0
  9 12  1  0
 10 11  1  0
 10 38  1  0
 10 39  1  0
 11 40  1  0
 11 41  1  0
 12 13  2  0
 12 14  1  0
 14 15  1  0
 14 16  1  0
 15 42  1  0
 15 43  1  0
 15 44  1  0
 16 17  1  0
 16 45  1  0
 16 46  1  0
 17 18  1  0
 17 47  1  1
 18 23  1  0
 18 19  2  0
 19 20  1  0
 19 48  1  0
 20 21  2  0
 20 49  1  0
 21 22  1  0
 21 50  1  0
 22 23  2  0
 22 51  1  0
 24 25  1  0
 24 52  1  0
 24 53  1  0
 25 54  1  0
 25 55  1  0
M  CHG  2   2   1   6   1
M  END
>  <i_m_ct_stereo_status>  (54) 
1

>  <s_m_source_file>  (54) 
/var/tmp/pbs.5076255.sched01/tmp6mrmgolx/06cp14zw5.sdf

>  <i_m_source_file_index>  (54) 
18

>  <i_lp_mmshare_version>  (54) 
48012

>  <i_f3d_flags>  (54) 
0

>  <s_epik_input>  (54) 
W0NIM11OMVtDSDJdW0NIMl1bQ0hdKFtDSDJdW0NIMl0xKU4oW0NIMl1bQ0gyXTIpW0NIMl1bQ0gyXUMyM0MoPU8pTihbQ0gzXSlbQ0gyXVtDQEhdM2M0W2NIXVtjSF1bY0hdW2NIXW40

>  <s_epik_cmdline>  (54) 
J2VwaWtfcHl0aG9uJywgJy1waHQnLCAnMi4wJywgJy1waCcsICc3LjAnLCAnLXRuJywgJzgnLCAnLW1hJywgJzIwMCcsICctaW1hZScsICc8aW5maWxlLm1hZT4nLCAnLW9tYWUnLCAnPG91dGZpbGUubWFlPic=

>  <r_epik_Ionization_Penalty>  (54) 
0.35732

>  <r_epik_Ionization_Penalty_Charging>  (54) 
0.349635

>  <r_epik_Ionization_Penalty_Neutral>  (54) 
0.0076849

>  <r_epik_State_Penalty>  (54) 
0.348033

>  <r_epik_Charging_Adjusted_Penalty>  (54) 
0.697668

>  <i_epik_Tot_Q>  (54) 
2

>  <i_epik_Tot_abs_Q>  (54) 
2

>  <s_lp_Force_Field>  (54) 
OPLS3e

>  <r_lp_Energy>  (54) 
56.3373

>  <b_lp_Chiralities_Consistent>  (54) 
1

>  <s_lp_Variant>  (54) 
5:0-1

>  <s_i_glide_gridfile>  (54) 
pfpi4k_grid

>  <i_i_glide_lignum>  (54) 
18

>  <i_i_glide_rotatable_bonds>  (54) 
2

>  <r_i_docking_score>  (54) 
-2.7233

>  <r_i_glide_ligand_efficiency>  (54) 
-0.108932

>  <r_i_glide_ligand_efficiency_sa>  (54) 
-0.318519

>  <r_i_glide_ligand_efficiency_ln>  (54) 
-0.645503

>  <r_i_glide_gscore>  (54) 
-2.7233

>  <r_i_glide_lipo>  (54) 
-0.175637

>  <r_i_glide_hbond>  (54) 
-0.0471232

>  <r_i_glide_metal>  (54) 
-0

>  <r_i_glide_rewards>  (54) 
-1.06027

>  <r_i_glide_evdw>  (54) 
-20.5172

>  <r_i_glide_ecoul>  (54) 
-4.4346

>  <r_i_glide_erotb>  (54) 
0.319998

>  <r_i_glide_esite>  (54) 
-0.0692182

>  <r_i_glide_emodel>  (54) 
-28.0047

>  <r_i_glide_energy>  (54) 
-24.9518

>  <r_i_glide_einternal>  (54) 
4.05023

>  <r_i_glide_intrahb_reward>  (54) 
-0

>  <i_i_glide_confnum>  (54) 
5

>  <i_i_glide_posenum>  (54) 
3

>  <r_i_glide_eff_state_penalty>  (54) 
0

>  <ligand_id>  (54) 
5

>  <original_smiles>  (54) 
CN1CCC(N2CCC3(CC2)C(=O)N(C)CC3c2ccccn2)CC1

>  <smiles>  (54) 
[H]c1nc(C2([H])C([H])([H])N(C([H])([H])[H])C(=O)C23C([H])([H])C([H])([H])[N+]([H])(C2([H])C([H])([H])C([H])([H])[N+]([H])(C([H])([H])[H])C([H])([H])C2([H])[H])C([H])([H])C3([H])[H])c([H])c([H])c1[H]

$$$$
5:1:0
     RDKit          3D

 56 59  0  0  1  0  0  0  0  0999 V2000
    3.1665   -0.1200   -4.7297 C   0  0  0  0  0  0  0  0  0  0  0  0
    3.9850   -1.0229   -3.9000 N   0  0  2  0  0  0  0  0  0  0  0  0
    3.3664   -2.3583   -3.7332 C   0  0  0  0  0  0  0  0  0  0  0  0
    4.3161   -3.2939   -2.9777 C   0  0  0  0  0  0  0  0  0  0  0  0
    4.7086   -2.7093   -1.6014 C   0  0  1  0  0  0  0  0  0  0  0  0
    5.7259   -3.5804   -0.9695 N   0  0  0  0  0  0  0  0  0  0  0  0
    5.1746   -4.8914   -0.5782 C   0  0  0  0  0  0  0  0  0  0  0  0
    4.1256   -4.7769    0.5560 C   0  0  0  0  0  0  0  0  0  0  0  0
    4.6817   -4.0132    1.8045 C   0  0  0  0  0  0  0  0  0  0  0  0
    5.4356   -2.7495    1.2901 C   0  0  0  0  0  0  0  0  0  0  0  0
    6.4364   -3.0097    0.1848 C   0  0  0  0  0  0  0  0  0  0  0  0
    5.6273   -4.9217    2.5789 C   0  0  0  0  0  0  0  0  0  0  0  0
    6.5878   -5.4932    2.1102 O   0  0  0  0  0  0  0  0  0  0  0  0
    5.2548   -4.9711    3.9115 N   0  0  0  0  0  0  0  0  0  0  0  0
    6.0002   -5.6382    4.9379 C   0  0  0  0  0  0  0  0  0  0  0  0
    4.0911   -4.1554    4.2182 C   0  0  0  0  0  0  0  0  0  0  0  0
    3.5822   -3.6466    2.8486 C   0  0  1  0  0  0  0  0  0  0  0  0
    3.2211   -2.1542    2.8630 C   0  0  0  0  0  0  0  0  0  0  0  0
    4.0387   -1.2040    3.5267 C   0  0  0  0  0  0  0  0  0  0  0  0
    3.7399    0.1588    3.4070 C   0  0  0  0  0  0  0  0  0  0  0  0
    2.6838    0.5472    2.5794 C   0  0  0  0  0  0  0  0  0  0  0  0
    1.9220   -0.4583    1.9623 C   0  0  0  0  0  0  0  0  0  0  0  0
    2.1624   -1.7777    2.1124 N   0  0  0  0  0  0  0  0  0  0  0  0
    5.2475   -1.2742   -1.7889 C   0  0  0  0  0  0  0  0  0  0  0  0
    4.2826   -0.4160   -2.5921 C   0  0  0  0  0  0  0  0  0  0  0  0
    2.2104    0.0572   -4.2452 H   0  0  0  0  0  0  0  0  0  0  0  0
    3.0135   -0.5671   -5.7069 H   0  0  0  0  0  0  0  0  0  0  0  0
    3.6617    0.8412   -4.8608 H   0  0  0  0  0  0  0  0  0  0  0  0
    2.4206   -2.2752   -3.1879 H   0  0  0  0  0  0  0  0  0  0  0  0
    3.1448   -2.8024   -4.7000 H   0  0  0  0  0  0  0  0  0  0  0  0
    3.8132   -4.2536   -2.8727 H   0  0  0  0  0  0  0  0  0  0  0  0
    5.2204   -3.4894   -3.5570 H   0  0  0  0  0  0  0  0  0  0  0  0
    3.8080   -2.6299   -0.9947 H   0  0  0  0  0  0  0  0  0  0  0  0
    4.7323   -5.4083   -1.4351 H   0  0  0  0  0  0  0  0  0  0  0  0
    6.0046   -5.5365   -0.2746 H   0  0  0  0  0  0  0  0  0  0  0  0
    3.2101   -4.2967    0.1989 H   0  0  0  0  0  0  0  0  0  0  0  0
    3.8063   -5.7839    0.8413 H   0  0  0  0  0  0  0  0  0  0  0  0
    4.7143   -1.9998    0.9315 H   0  0  0  0  0  0  0  0  0  0  0  0
    5.9837   -2.2729    2.1073 H   0  0  0  0  0  0  0  0  0  0  0  0
    7.2603   -3.6682    0.5189 H   0  0  0  0  0  0  0  0  0  0  0  0
    6.9129   -2.0524   -0.0659 H   0  0  0  0  0  0  0  0  0  0  0  0
    6.8667   -6.2135    4.5830 H   0  0  0  0  0  0  0  0  0  0  0  0
    5.3334   -6.3414    5.4528 H   0  0  0  0  0  0  0  0  0  0  0  0
    6.3754   -4.9208    5.6837 H   0  0  0  0  0  0  0  0  0  0  0  0
    3.3377   -4.7732    4.7472 H   0  0  0  0  0  0  0  0  0  0  0  0
    4.4714   -3.3679    4.8867 H   0  0  0  0  0  0  0  0  0  0  0  0
    2.6859   -4.2325    2.6148 H   0  0  0  0  0  0  0  0  0  0  0  0
    4.8967   -1.5003    4.1033 H   0  0  0  0  0  0  0  0  0  0  0  0
    4.3941    0.8885    3.8493 H   0  0  0  0  0  0  0  0  0  0  0  0
    2.4533    1.5966    2.4158 H   0  0  0  0  0  0  0  0  0  0  0  0
    1.1129   -0.1896    1.3052 H   0  0  0  0  0  0  0  0  0  0  0  0
    5.3785   -0.7541   -0.8362 H   0  0  0  0  0  0  0  0  0  0  0  0
    6.2144   -1.3323   -2.2705 H   0  0  0  0  0  0  0  0  0  0  0  0
    4.7281    0.5608   -2.7311 H   0  0  0  0  0  0  0  0  0  0  0  0
    3.3609   -0.2926   -2.0293 H   0  0  0  0  0  0  0  0  0  0  0  0
    4.8777   -1.1603   -4.3530 H   0  0  0  0  0  0  0  0  0  0  0  0
  1  2  1  0
  1 26  1  0
  1 27  1  0
  1 28  1  0
  2 25  1  0
  2  3  1  0
  2 56  1  6
  3  4  1  0
  3 29  1  0
  3 30  1  0
  4  5  1  0
  4 31  1  0
  4 32  1  0
  5  6  1  0
  5 24  1  0
  5 33  1  1
  6 11  1  0
  6  7  1  0
  7  8  1  0
  7 34  1  0
  7 35  1  0
  8  9  1  0
  8 36  1  0
  8 37  1  0
  9 17  1  0
  9 10  1  0
  9 12  1  0
 10 11  1  0
 10 38  1  0
 10 39  1  0
 11 40  1  0
 11 41  1  0
 12 13  2  0
 12 14  1  0
 14 15  1  0
 14 16  1  0
 15 42  1  0
 15 43  1  0
 15 44  1  0
 16 17  1  0
 16 45  1  0
 16 46  1  0
 17 18  1  0
 17 47  1  6
 18 23  1  0
 18 19  2  0
 19 20  1  0
 19 48  1  0
 20 21  2  0
 20 49  1  0
 21 22  1  0
 21 50  1  0
 22 23  2  0
 22 51  1  0
 24 25  1  0
 24 52  1  0
 24 53  1  0
 25 54  1  0
 25 55  1  0
M  CHG  1   2   1
M  END
>  <i_m_ct_stereo_status>  (55) 
1

>  <s_m_source_file>  (55) 
/var/tmp/pbs.5076255.sched01/tmp6mrmgolx/06cp14zw5.sdf

>  <i_m_source_file_index>  (55) 
19

>  <i_lp_mmshare_version>  (55) 
48012

>  <i_f3d_flags>  (55) 
0

>  <s_epik_input>  (55) 
W0NIM11OMVtDSDJdW0NIMl1bQ0hdKFtDSDJdW0NIMl0xKU4oW0NIMl1bQ0gyXTIpW0NIMl1bQ0gyXUMyM0MoPU8pTihbQ0gzXSlbQ0gyXVtDQEhdM2M0W2NIXVtjSF1bY0hdW2NIXW40

>  <s_epik_cmdline>  (55) 
J2VwaWtfcHl0aG9uJywgJy1waHQnLCAnMi4wJywgJy1waCcsICc3LjAnLCAnLXRuJywgJzgnLCAnLW1hJywgJzIwMCcsICctaW1hZScsICc8aW5maWxlLm1hZT4nLCAnLW9tYWUnLCAnPG91dGZpbGUubWFlPic=

>  <r_epik_Ionization_Penalty>  (55) 
0.661877

>  <r_epik_Ionization_Penalty_Charging>  (55) 
0.000996245

>  <r_epik_Ionization_Penalty_Neutral>  (55) 
0.660881

>  <r_epik_State_Penalty>  (55) 
0.640915

>  <r_epik_Charging_Adjusted_Penalty>  (55) 
0.641912

>  <i_epik_Tot_Q>  (55) 
1

>  <i_epik_Tot_abs_Q>  (55) 
1

>  <s_lp_Force_Field>  (55) 
OPLS3e

>  <r_lp_Energy>  (55) 
49.3829

>  <b_lp_Chiralities_Consistent>  (55) 
1

>  <s_lp_Variant>  (55) 
5:0-2

>  <s_i_glide_gridfile>  (55) 
pfpi4k_grid

>  <i_i_glide_lignum>  (55) 
19

>  <i_i_glide_rotatable_bonds>  (55) 
2

>  <r_i_docking_score>  (55) 
-2.85079

>  <r_i_glide_ligand_efficiency>  (55) 
-0.114032

>  <r_i_glide_ligand_efficiency_sa>  (55) 
-0.333431

>  <r_i_glide_ligand_efficiency_ln>  (55) 
-0.675723

>  <r_i_glide_gscore>  (55) 
-2.85079

>  <r_i_glide_lipo>  (55) 
-0.804773

>  <r_i_glide_hbond>  (55) 
0

>  <r_i_glide_metal>  (55) 
-0

>  <r_i_glide_rewards>  (55) 
-1.09391

>  <r_i_glide_evdw>  (55) 
-22.6898

>  <r_i_glide_ecoul>  (55) 
-0.928571

>  <r_i_glide_erotb>  (55) 
0.321667

>  <r_i_glide_esite>  (55) 
0

>  <r_i_glide_emodel>  (55) 
-26.2544

>  <r_i_glide_energy>  (55) 
-23.6184

>  <r_i_glide_einternal>  (55) 
1.32519

>  <r_i_glide_intrahb_reward>  (55) 
-0

>  <i_i_glide_confnum>  (55) 
2

>  <i_i_glide_posenum>  (55) 
1

>  <r_i_glide_eff_state_penalty>  (55) 
0

>  <ligand_id>  (55) 
5

>  <original_smiles>  (55) 
CN1CCC(N2CCC3(CC2)C(=O)N(C)CC3c2ccccn2)CC1

>  <smiles>  (55) 
[H]c1nc(C2([H])C([H])([H])N(C([H])([H])[H])C(=O)C23C([H])([H])C([H])([H])N(C2([H])C([H])([H])C([H])([H])[N+]([H])(C([H])([H])[H])C([H])([H])C2([H])[H])C([H])([H])C3([H])[H])c([H])c([H])c1[H]

$$$$
5:1:1
     RDKit          3D

 56 59  0  0  1  0  0  0  0  0999 V2000
    0.9059  -11.3988    2.8920 C   0  0  0  0  0  0  0  0  0  0  0  0
    1.3247  -10.2061    2.1278 N   0  0  2  0  0  0  0  0  0  0  0  0
    2.7915  -10.0950    2.1375 C   0  0  0  0  0  0  0  0  0  0  0  0
    3.2530   -8.9378    1.2775 C   0  0  0  0  0  0  0  0  0  0  0  0
    2.6025   -7.6062    1.7146 C   0  0  1  0  0  0  0  0  0  0  0  0
    2.9156   -6.6047    0.7038 N   0  0  0  0  0  0  0  0  0  0  0  0
    4.3566   -6.3447    0.5554 C   0  0  0  0  0  0  0  0  0  0  0  0
    4.6337   -5.3236   -0.5384 C   0  0  0  0  0  0  0  0  0  0  0  0
    3.8455   -4.0103   -0.3467 C   0  0  0  0  0  0  0  0  0  0  0  0
    2.3487   -4.3435   -0.1856 C   0  0  0  0  0  0  0  0  0  0  0  0
    2.1228   -5.3877    0.8908 C   0  0  0  0  0  0  0  0  0  0  0  0
    4.0553   -3.0619   -1.5292 C   0  0  0  0  0  0  0  0  0  0  0  0
    3.8463   -3.3792   -2.7196 O   0  0  0  0  0  0  0  0  0  0  0  0
    4.4956   -1.8879   -1.1291 N   0  0  0  0  0  0  0  0  0  0  0  0
    4.7750   -0.7332   -1.9526 C   0  0  0  0  0  0  0  0  0  0  0  0
    4.6573   -1.8041    0.3099 C   0  0  0  0  0  0  0  0  0  0  0  0
    4.4169   -3.1951    0.8698 C   0  0  1  0  0  0  0  0  0  0  0  0
    3.6109   -3.1501    2.1909 C   0  0  0  0  0  0  0  0  0  0  0  0
    3.8020   -4.0620    3.2024 C   0  0  0  0  0  0  0  0  0  0  0  0
    2.7925   -4.2466    4.1935 C   0  0  0  0  0  0  0  0  0  0  0  0
    1.6512   -3.4014    4.1247 C   0  0  0  0  0  0  0  0  0  0  0  0
    1.5617   -2.4811    3.0963 C   0  0  0  0  0  0  0  0  0  0  0  0
    2.4935   -2.3312    2.1560 N   0  0  0  0  0  0  0  0  0  0  0  0
    1.0644   -7.7976    1.7937 C   0  0  0  0  0  0  0  0  0  0  0  0
    0.6754   -8.9941    2.6418 C   0  0  0  0  0  0  0  0  0  0  0  0
    1.1880  -11.2597    3.9430 H   0  0  0  0  0  0  0  0  0  0  0  0
    1.3503  -12.2929    2.5149 H   0  0  0  0  0  0  0  0  0  0  0  0
   -0.1714  -11.4548    2.8125 H   0  0  0  0  0  0  0  0  0  0  0  0
    3.1399   -9.9619    3.1559 H   0  0  0  0  0  0  0  0  0  0  0  0
    3.2242  -11.0148    1.7744 H   0  0  0  0  0  0  0  0  0  0  0  0
    4.3331   -8.8985    1.3391 H   0  0  0  0  0  0  0  0  0  0  0  0
    3.0243   -9.1663    0.2443 H   0  0  0  0  0  0  0  0  0  0  0  0
    2.9829   -7.3164    2.7006 H   0  0  0  0  0  0  0  0  0  0  0  0
    4.8484   -6.0132    1.4657 H   0  0  0  0  0  0  0  0  0  0  0  0
    4.8928   -7.2567    0.2734 H   0  0  0  0  0  0  0  0  0  0  0  0
    5.6971   -5.1845   -0.7257 H   0  0  0  0  0  0  0  0  0  0  0  0
    4.3975   -5.7787   -1.4535 H   0  0  0  0  0  0  0  0  0  0  0  0
    1.8383   -3.4001    0.0235 H   0  0  0  0  0  0  0  0  0  0  0  0
    1.8655   -4.6907   -1.0970 H   0  0  0  0  0  0  0  0  0  0  0  0
    1.0735   -5.4419    1.1167 H   0  0  0  0  0  0  0  0  0  0  0  0
    2.3834   -5.1219    1.8871 H   0  0  0  0  0  0  0  0  0  0  0  0
    4.5993   -0.9157   -3.0161 H   0  0  0  0  0  0  0  0  0  0  0  0
    5.7987   -0.4028   -1.7998 H   0  0  0  0  0  0  0  0  0  0  0  0
    4.1653    0.1076   -1.6647 H   0  0  0  0  0  0  0  0  0  0  0  0
    5.6252   -1.4346    0.6251 H   0  0  0  0  0  0  0  0  0  0  0  0
    3.9182   -1.0903    0.6809 H   0  0  0  0  0  0  0  0  0  0  0  0
    5.3733   -3.6557    1.1212 H   0  0  0  0  0  0  0  0  0  0  0  0
    4.5376   -4.8686    3.1144 H   0  0  0  0  0  0  0  0  0  0  0  0
    2.8265   -5.0598    4.8747 H   0  0  0  0  0  0  0  0  0  0  0  0
    0.8847   -3.4692    4.8838 H   0  0  0  0  0  0  0  0  0  0  0  0
    0.7040   -1.8069    3.0079 H   0  0  0  0  0  0  0  0  0  0  0  0
    0.5620   -6.9599    2.2695 H   0  0  0  0  0  0  0  0  0  0  0  0
    0.6544   -7.8792    0.7860 H   0  0  0  0  0  0  0  0  0  0  0  0
   -0.4055   -9.1186    2.6389 H   0  0  0  0  0  0  0  0  0  0  0  0
    0.9914   -8.8429    3.6708 H   0  0  0  0  0  0  0  0  0  0  0  0
    1.0226  -10.3187    1.1654 H   0  0  0  0  0  0  0  0  0  0  0  0
  1  2  1  0
  1 26  1  0
  1 27  1  0
  1 28  1  0
  2 25  1  0
  2  3  1  0
  2 56  1  6
  3  4  1  0
  3 29  1  0
  3 30  1  0
  4  5  1  0
  4 31  1  0
  4 32  1  0
  5  6  1  0
  5 24  1  0
  5 33  1  1
  6 11  1  0
  6  7  1  0
  7  8  1  0
  7 34  1  0
  7 35  1  0
  8  9  1  0
  8 36  1  0
  8 37  1  0
  9 17  1  0
  9 10  1  0
  9 12  1  0
 10 11  1  0
 10 38  1  0
 10 39  1  0
 11 40  1  0
 11 41  1  0
 12 13  2  0
 12 14  1  0
 14 15  1  0
 14 16  1  0
 15 42  1  0
 15 43  1  0
 15 44  1  0
 16 17  1  0
 16 45  1  0
 16 46  1  0
 17 18  1  0
 17 47  1  1
 18 23  1  0
 18 19  2  0
 19 20  1  0
 19 48  1  0
 20 21  2  0
 20 49  1  0
 21 22  1  0
 21 50  1  0
 22 23  2  0
 22 51  1  0
 24 25  1  0
 24 52  1  0
 24 53  1  0
 25 54  1  0
 25 55  1  0
M  CHG  1   2   1
M  END
>  <i_m_ct_stereo_status>  (56) 
1

>  <s_m_source_file>  (56) 
/var/tmp/pbs.5076255.sched01/tmp6mrmgolx/06cp14zw5.sdf

>  <i_m_source_file_index>  (56) 
19

>  <i_lp_mmshare_version>  (56) 
48012

>  <i_f3d_flags>  (56) 
0

>  <s_epik_input>  (56) 
W0NIM11OMVtDSDJdW0NIMl1bQ0hdKFtDSDJdW0NIMl0xKU4oW0NIMl1bQ0gyXTIpW0NIMl1bQ0gyXUMyM0MoPU8pTihbQ0gzXSlbQ0gyXVtDQEhdM2M0W2NIXVtjSF1bY0hdW2NIXW40

>  <s_epik_cmdline>  (56) 
J2VwaWtfcHl0aG9uJywgJy1waHQnLCAnMi4wJywgJy1waCcsICc3LjAnLCAnLXRuJywgJzgnLCAnLW1hJywgJzIwMCcsICctaW1hZScsICc8aW5maWxlLm1hZT4nLCAnLW9tYWUnLCAnPG91dGZpbGUubWFlPic=

>  <r_epik_Ionization_Penalty>  (56) 
0.661877

>  <r_epik_Ionization_Penalty_Charging>  (56) 
0.000996245

>  <r_epik_Ionization_Penalty_Neutral>  (56) 
0.660881

>  <r_epik_State_Penalty>  (56) 
0.640915

>  <r_epik_Charging_Adjusted_Penalty>  (56) 
0.641912

>  <i_epik_Tot_Q>  (56) 
1

>  <i_epik_Tot_abs_Q>  (56) 
1

>  <s_lp_Force_Field>  (56) 
OPLS3e

>  <r_lp_Energy>  (56) 
49.3829

>  <b_lp_Chiralities_Consistent>  (56) 
1

>  <s_lp_Variant>  (56) 
5:0-2

>  <s_i_glide_gridfile>  (56) 
pfpi4k_grid

>  <i_i_glide_lignum>  (56) 
19

>  <i_i_glide_rotatable_bonds>  (56) 
2

>  <r_i_docking_score>  (56) 
-1.64675

>  <r_i_glide_ligand_efficiency>  (56) 
-0.0658701

>  <r_i_glide_ligand_efficiency_sa>  (56) 
-0.192605

>  <r_i_glide_ligand_efficiency_ln>  (56) 
-0.39033

>  <r_i_glide_gscore>  (56) 
-1.64675

>  <r_i_glide_lipo>  (56) 
-0.291191

>  <r_i_glide_hbond>  (56) 
0

>  <r_i_glide_metal>  (56) 
-0

>  <r_i_glide_rewards>  (56) 
-1.06714

>  <r_i_glide_evdw>  (56) 
-6.62364

>  <r_i_glide_ecoul>  (56) 
-3.3641

>  <r_i_glide_erotb>  (56) 
0.321667

>  <r_i_glide_esite>  (56) 
-0.0500684

>  <r_i_glide_emodel>  (56) 
-7.59985

>  <r_i_glide_energy>  (56) 
-9.98774

>  <r_i_glide_einternal>  (56) 
0.425384

>  <r_i_glide_intrahb_reward>  (56) 
-0

>  <i_i_glide_confnum>  (56) 
4

>  <i_i_glide_posenum>  (56) 
2

>  <r_i_glide_eff_state_penalty>  (56) 
0

>  <ligand_id>  (56) 
5

>  <original_smiles>  (56) 
CN1CCC(N2CCC3(CC2)C(=O)N(C)CC3c2ccccn2)CC1

>  <smiles>  (56) 
[H]c1nc(C2([H])C([H])([H])N(C([H])([H])[H])C(=O)C23C([H])([H])C([H])([H])N(C2([H])C([H])([H])C([H])([H])[N+]([H])(C([H])([H])[H])C([H])([H])C2([H])[H])C([H])([H])C3([H])[H])c([H])c([H])c1[H]

$$$$
5:1:2
     RDKit          3D

 56 59  0  0  1  0  0  0  0  0999 V2000
    2.5231  -11.4414    2.6822 C   0  0  0  0  0  0  0  0  0  0  0  0
    2.7281  -10.2246    1.8935 N   0  0  2  0  0  0  0  0  0  0  0  0
    4.1548   -9.8485    1.8684 C   0  0  0  0  0  0  0  0  0  0  0  0
    4.3698   -8.6579    0.9526 C   0  0  0  0  0  0  0  0  0  0  0  0
    3.4966   -7.4587    1.3644 C   0  0  1  0  0  0  0  0  0  0  0  0
    3.6060   -6.4645    0.3029 N   0  0  0  0  0  0  0  0  0  0  0  0
    4.9670   -5.9575    0.0774 C   0  0  0  0  0  0  0  0  0  0  0  0
    5.0082   -4.9840   -1.0929 C   0  0  0  0  0  0  0  0  0  0  0  0
    4.0980   -3.7839   -0.8312 C   0  0  0  0  0  0  0  0  0  0  0  0
    2.6836   -4.2936   -0.5711 C   0  0  0  0  0  0  0  0  0  0  0  0
    2.6596   -5.3686    0.5235 C   0  0  0  0  0  0  0  0  0  0  0  0
    4.1168   -2.8564   -2.0431 C   0  0  0  0  0  0  0  0  0  0  0  0
    3.8948   -3.2316   -3.2206 O   0  0  0  0  0  0  0  0  0  0  0  0
    4.4195   -1.6333   -1.7154 N   0  0  0  0  0  0  0  0  0  0  0  0
    4.4964   -0.4788   -2.5930 C   0  0  0  0  0  0  0  0  0  0  0  0
    4.6558   -1.4733   -0.2889 C   0  0  0  0  0  0  0  0  0  0  0  0
    4.6444   -2.8671    0.3219 C   0  0  1  0  0  0  0  0  0  0  0  0
    3.9211   -2.8713    1.6900 C   0  0  0  0  0  0  0  0  0  0  0  0
    4.3022   -3.7416    2.7222 C   0  0  0  0  0  0  0  0  0  0  0  0
    3.3915   -4.0118    3.7629 C   0  0  0  0  0  0  0  0  0  0  0  0
    2.1362   -3.3674    3.7522 C   0  0  0  0  0  0  0  0  0  0  0  0
    1.8494   -2.4814    2.7052 C   0  0  0  0  0  0  0  0  0  0  0  0
    2.7240   -2.2295    1.7227 N   0  0  0  0  0  0  0  0  0  0  0  0
    2.0201   -7.9149    1.4966 C   0  0  0  0  0  0  0  0  0  0  0  0
    1.8600   -9.1320    2.3654 C   0  0  0  0  0  0  0  0  0  0  0  0
    2.8035  -11.2497    3.7112 H   0  0  0  0  0  0  0  0  0  0  0  0
    3.1229  -12.2660    2.3058 H   0  0  0  0  0  0  0  0  0  0  0  0
    1.4793  -11.7449    2.6499 H   0  0  0  0  0  0  0  0  0  0  0  0
    4.4626   -9.6071    2.8859 H   0  0  0  0  0  0  0  0  0  0  0  0
    4.8008  -10.6278    1.5525 H   0  0  0  0  0  0  0  0  0  0  0  0
    5.4284   -8.4389    1.0178 H   0  0  0  0  0  0  0  0  0  0  0  0
    4.1556   -8.9343   -0.0817 H   0  0  0  0  0  0  0  0  0  0  0  0
    3.8415   -7.0667    2.3444 H   0  0  0  0  0  0  0  0  0  0  0  0
    5.4890   -5.5618    0.9409 H   0  0  0  0  0  0  0  0  0  0  0  0
    5.5791   -6.7865   -0.1761 H   0  0  0  0  0  0  0  0  0  0  0  0
    5.9975   -4.6047   -1.2926 H   0  0  0  0  0  0  0  0  0  0  0  0
    4.7316   -5.5345   -1.9813 H   0  0  0  0  0  0  0  0  0  0  0  0
    2.0615   -3.4332   -0.3550 H   0  0  0  0  0  0  0  0  0  0  0  0
    2.1519   -4.6407   -1.4460 H   0  0  0  0  0  0  0  0  0  0  0  0
    1.6330   -5.5340    0.8301 H   0  0  0  0  0  0  0  0  0  0  0  0
    2.9405   -5.0523    1.4967 H   0  0  0  0  0  0  0  0  0  0  0  0
    4.3043   -0.7238   -3.6424 H   0  0  0  0  0  0  0  0  0  0  0  0
    5.4541    0.0086   -2.4620 H   0  0  0  0  0  0  0  0  0  0  0  0
    3.7770    0.2528   -2.3245 H   0  0  0  0  0  0  0  0  0  0  0  0
    5.5746   -0.9713   -0.0373 H   0  0  0  0  0  0  0  0  0  0  0  0
    3.8583   -0.8610    0.1112 H   0  0  0  0  0  0  0  0  0  0  0  0
    5.6667   -3.1904    0.5143 H   0  0  0  0  0  0  0  0  0  0  0  0
    5.1249   -4.4267    2.5963 H   0  0  0  0  0  0  0  0  0  0  0  0
    3.5643   -4.8159    4.4570 H   0  0  0  0  0  0  0  0  0  0  0  0
    1.4231   -3.5029    4.5482 H   0  0  0  0  0  0  0  0  0  0  0  0
    0.9052   -1.9435    2.6503 H   0  0  0  0  0  0  0  0  0  0  0  0
    1.3756   -7.1648    1.9286 H   0  0  0  0  0  0  0  0  0  0  0  0
    1.5782   -8.1450    0.4945 H   0  0  0  0  0  0  0  0  0  0  0  0
    0.8195   -9.4595    2.3765 H   0  0  0  0  0  0  0  0  0  0  0  0
    2.1534   -8.8987    3.3976 H   0  0  0  0  0  0  0  0  0  0  0  0
    2.4659  -10.4447    0.9401 H   0  0  0  0  0  0  0  0  0  0  0  0
  1  2  1  0
  1 26  1  0
  1 27  1  0
  1 28  1  0
  2 25  1  0
  2  3  1  0
  2 56  1  6
  3  4  1  0
  3 29  1  0
  3 30  1  0
  4  5  1  0
  4 31  1  0
  4 32  1  0
  5  6  1  0
  5 24  1  0
  5 33  1  1
  6 11  1  0
  6  7  1  0
  7  8  1  0
  7 34  1  0
  7 35  1  0
  8  9  1  0
  8 36  1  0
  8 37  1  0
  9 17  1  0
  9 10  1  0
  9 12  1  0
 10 11  1  0
 10 38  1  0
 10 39  1  0
 11 40  1  0
 11 41  1  0
 12 13  2  0
 12 14  1  0
 14 15  1  0
 14 16  1  0
 15 42  1  0
 15 43  1  0
 15 44  1  0
 16 17  1  0
 16 45  1  0
 16 46  1  0
 17 18  1  0
 17 47  1  1
 18 23  1  0
 18 19  2  0
 19 20  1  0
 19 48  1  0
 20 21  2  0
 20 49  1  0
 21 22  1  0
 21 50  1  0
 22 23  2  0
 22 51  1  0
 24 25  1  0
 24 52  1  0
 24 53  1  0
 25 54  1  0
 25 55  1  0
M  CHG  1   2   1
M  END
>  <i_m_ct_stereo_status>  (57) 
1

>  <s_m_source_file>  (57) 
/var/tmp/pbs.5076255.sched01/tmp6mrmgolx/06cp14zw5.sdf

>  <i_m_source_file_index>  (57) 
19

>  <i_lp_mmshare_version>  (57) 
48012

>  <i_f3d_flags>  (57) 
0

>  <s_epik_input>  (57) 
W0NIM11OMVtDSDJdW0NIMl1bQ0hdKFtDSDJdW0NIMl0xKU4oW0NIMl1bQ0gyXTIpW0NIMl1bQ0gyXUMyM0MoPU8pTihbQ0gzXSlbQ0gyXVtDQEhdM2M0W2NIXVtjSF1bY0hdW2NIXW40

>  <s_epik_cmdline>  (57) 
J2VwaWtfcHl0aG9uJywgJy1waHQnLCAnMi4wJywgJy1waCcsICc3LjAnLCAnLXRuJywgJzgnLCAnLW1hJywgJzIwMCcsICctaW1hZScsICc8aW5maWxlLm1hZT4nLCAnLW9tYWUnLCAnPG91dGZpbGUubWFlPic=

>  <r_epik_Ionization_Penalty>  (57) 
0.661877

>  <r_epik_Ionization_Penalty_Charging>  (57) 
0.000996245

>  <r_epik_Ionization_Penalty_Neutral>  (57) 
0.660881

>  <r_epik_State_Penalty>  (57) 
0.640915

>  <r_epik_Charging_Adjusted_Penalty>  (57) 
0.641912

>  <i_epik_Tot_Q>  (57) 
1

>  <i_epik_Tot_abs_Q>  (57) 
1

>  <s_lp_Force_Field>  (57) 
OPLS3e

>  <r_lp_Energy>  (57) 
49.3829

>  <b_lp_Chiralities_Consistent>  (57) 
1

>  <s_lp_Variant>  (57) 
5:0-2

>  <s_i_glide_gridfile>  (57) 
pfpi4k_grid

>  <i_i_glide_lignum>  (57) 
19

>  <i_i_glide_rotatable_bonds>  (57) 
2

>  <r_i_docking_score>  (57) 
-1.33687

>  <r_i_glide_ligand_efficiency>  (57) 
-0.0534749

>  <r_i_glide_ligand_efficiency_sa>  (57) 
-0.156361

>  <r_i_glide_ligand_efficiency_ln>  (57) 
-0.316879

>  <r_i_glide_gscore>  (57) 
-1.33687

>  <r_i_glide_lipo>  (57) 
-0.252436

>  <r_i_glide_hbond>  (57) 
-0.00229616

>  <r_i_glide_metal>  (57) 
-0

>  <r_i_glide_rewards>  (57) 
-1.06714

>  <r_i_glide_evdw>  (57) 
-7.96739

>  <r_i_glide_ecoul>  (57) 
-2.54248

>  <r_i_glide_erotb>  (57) 
0.321667

>  <r_i_glide_esite>  (57) 
-0.0995469

>  <r_i_glide_emodel>  (57) 
-7.03519

>  <r_i_glide_energy>  (57) 
-10.5099

>  <r_i_glide_einternal>  (57) 
0.333122

>  <r_i_glide_intrahb_reward>  (57) 
-0

>  <i_i_glide_confnum>  (57) 
4

>  <i_i_glide_posenum>  (57) 
20

>  <r_i_glide_eff_state_penalty>  (57) 
0

>  <ligand_id>  (57) 
5

>  <original_smiles>  (57) 
CN1CCC(N2CCC3(CC2)C(=O)N(C)CC3c2ccccn2)CC1

>  <smiles>  (57) 
[H]c1nc(C2([H])C([H])([H])N(C([H])([H])[H])C(=O)C23C([H])([H])C([H])([H])N(C2([H])C([H])([H])C([H])([H])[N+]([H])(C([H])([H])[H])C([H])([H])C2([H])[H])C([H])([H])C3([H])[H])c([H])c([H])c1[H]

$$$$
5:2:0
     RDKit          3D

 57 60  0  0  1  0  0  0  0  0999 V2000
    4.6674   -1.0119    1.0232 C   0  0  0  0  0  0  0  0  0  0  0  0
    3.6588   -2.0744    1.1618 N   0  0  2  0  0  0  0  0  0  0  0  0
    3.3549   -2.3534    2.5858 C   0  0  0  0  0  0  0  0  0  0  0  0
    2.2277   -3.3663    2.7307 C   0  0  0  0  0  0  0  0  0  0  0  0
    2.5402   -4.6818    1.9768 C   0  0  1  0  0  0  0  0  0  0  0  0
    1.3666   -5.5819    2.0088 N   0  0  0  0  0  0  0  0  0  0  0  0
    0.8705   -5.9071    3.3571 C   0  0  0  0  0  0  0  0  0  0  0  0
    1.9093   -6.7463    4.1366 C   0  0  0  0  0  0  0  0  0  0  0  0
    2.3155   -8.0458    3.3753 C   0  0  0  0  0  0  0  0  0  0  0  0
    2.5792   -7.6905    1.8848 C   0  0  0  0  0  0  0  0  0  0  0  0
    1.4976   -6.8342    1.2425 C   0  0  0  0  0  0  0  0  0  0  0  0
    1.1770   -9.0805    3.4955 C   0  0  0  0  0  0  0  0  0  0  0  0
    0.0144   -8.8396    3.1752 O   0  0  0  0  0  0  0  0  0  0  0  0
    1.6457  -10.2445    3.9854 N   0  0  0  0  0  0  0  0  0  0  0  0
    0.8807  -11.4735    4.1108 C   0  0  0  0  0  0  0  0  0  0  0  0
    3.0809  -10.2742    4.2562 C   0  0  0  0  0  0  0  0  0  0  0  0
    3.5091   -8.8008    4.0377 C   0  0  1  0  0  0  0  0  0  0  0  0
    4.8227   -8.6819    3.2541 C   0  0  0  0  0  0  0  0  0  0  0  0
    5.7319   -7.6155    3.4442 C   0  0  0  0  0  0  0  0  0  0  0  0
    6.8523   -7.4911    2.5885 C   0  0  0  0  0  0  0  0  0  0  0  0
    7.0153   -8.4139    1.5407 C   0  0  0  0  0  0  0  0  0  0  0  0
    6.0802   -9.4521    1.3888 C   0  0  0  0  0  0  0  0  0  0  0  0
    5.0150   -9.5240    2.2087 N   0  0  0  0  0  0  0  0  0  0  0  0
    2.9645   -4.3707    0.5152 C   0  0  0  0  0  0  0  0  0  0  0  0
    4.0632   -3.3152    0.4599 C   0  0  0  0  0  0  0  0  0  0  0  0
    5.6129   -1.3316    1.4759 H   0  0  0  0  0  0  0  0  0  0  0  0
    4.3355   -0.0990    1.5240 H   0  0  0  0  0  0  0  0  0  0  0  0
    4.8436   -0.7841   -0.0304 H   0  0  0  0  0  0  0  0  0  0  0  0
    4.2381   -2.7379    3.1045 H   0  0  0  0  0  0  0  0  0  0  0  0
    3.0469   -1.4437    3.0977 H   0  0  0  0  0  0  0  0  0  0  0  0
    2.1000   -3.5385    3.8068 H   0  0  0  0  0  0  0  0  0  0  0  0
    1.2952   -2.9385    2.3624 H   0  0  0  0  0  0  0  0  0  0  0  0
    3.3971   -5.1278    2.4802 H   0  0  0  0  0  0  0  0  0  0  0  0
    0.6190   -4.9977    3.9128 H   0  0  0  0  0  0  0  0  0  0  0  0
   -0.0753   -6.4497    3.2628 H   0  0  0  0  0  0  0  0  0  0  0  0
    2.8048   -6.1500    4.3636 H   0  0  0  0  0  0  0  0  0  0  0  0
    1.4934   -6.9839    5.1216 H   0  0  0  0  0  0  0  0  0  0  0  0
    3.5329   -7.1490    1.7707 H   0  0  0  0  0  0  0  0  0  0  0  0
    2.6741   -8.5943    1.2749 H   0  0  0  0  0  0  0  0  0  0  0  0
    0.5394   -7.3749    1.1625 H   0  0  0  0  0  0  0  0  0  0  0  0
    1.7839   -6.6214    0.2089 H   0  0  0  0  0  0  0  0  0  0  0  0
   -0.1595  -11.3284    3.8245 H   0  0  0  0  0  0  0  0  0  0  0  0
    0.8927  -11.8162    5.1413 H   0  0  0  0  0  0  0  0  0  0  0  0
    1.2646  -12.2532    3.4489 H   0  0  0  0  0  0  0  0  0  0  0  0
    3.2487  -10.6381    5.2787 H   0  0  0  0  0  0  0  0  0  0  0  0
    3.4451  -10.9914    3.5135 H   0  0  0  0  0  0  0  0  0  0  0  0
    3.6631   -8.3835    5.0419 H   0  0  0  0  0  0  0  0  0  0  0  0
    5.5479   -6.8790    4.2070 H   0  0  0  0  0  0  0  0  0  0  0  0
    7.5122   -6.6460    2.6678 H   0  0  0  0  0  0  0  0  0  0  0  0
    7.8259   -8.2913    0.8419 H   0  0  0  0  0  0  0  0  0  0  0  0
    6.0757  -10.1706    0.5813 H   0  0  0  0  0  0  0  0  0  0  0  0
    3.3707   -5.2507    0.0025 H   0  0  0  0  0  0  0  0  0  0  0  0
    2.0975   -4.0442   -0.0614 H   0  0  0  0  0  0  0  0  0  0  0  0
    4.2825   -3.1116   -0.5874 H   0  0  0  0  0  0  0  0  0  0  0  0
    4.9704   -3.7340    0.9051 H   0  0  0  0  0  0  0  0  0  0  0  0
    2.7920   -1.7649    0.7257 H   0  0  0  0  0  0  0  0  0  0  0  0
    4.3391  -10.2693    2.0351 H   0  0  0  0  0  0  0  0  0  0  0  0
  1  2  1  0
  1 26  1  0
  1 27  1  0
  1 28  1  0
  2 25  1  0
  2  3  1  0
  2 56  1  6
  3  4  1  0
  3 29  1  0
  3 30  1  0
  4  5  1  0
  4 31  1  0
  4 32  1  0
  5  6  1  0
  5 24  1  0
  5 33  1  1
  6 11  1  0
  6  7  1  0
  7  8  1  0
  7 34  1  0
  7 35  1  0
  8  9  1  0
  8 36  1  0
  8 37  1  0
  9 17  1  0
  9 10  1  0
  9 12  1  0
 10 11  1  0
 10 38  1  0
 10 39  1  0
 11 40  1  0
 11 41  1  0
 12 13  2  0
 12 14  1  0
 14 15  1  0
 14 16  1  0
 15 42  1  0
 15 43  1  0
 15 44  1  0
 16 17  1  0
 16 45  1  0
 16 46  1  0
 17 18  1  0
 17 47  1  1
 18 23  1  0
 18 19  2  0
 19 20  1  0
 19 48  1  0
 20 21  2  0
 20 49  1  0
 21 22  1  0
 21 50  1  0
 22 23  2  0
 22 51  1  0
 23 57  1  0
 24 25  1  0
 24 52  1  0
 24 53  1  0
 25 54  1  0
 25 55  1  0
M  CHG  2   2   1  23   1
M  END
>  <i_m_ct_stereo_status>  (58) 
1

>  <s_m_source_file>  (58) 
/var/tmp/pbs.5076255.sched01/tmp6mrmgolx/06cp14zw5.sdf

>  <i_m_source_file_index>  (58) 
20

>  <i_lp_mmshare_version>  (58) 
48012

>  <i_f3d_flags>  (58) 
0

>  <s_epik_input>  (58) 
W0NIM11OMVtDSDJdW0NIMl1bQ0hdKFtDSDJdW0NIMl0xKU4oW0NIMl1bQ0gyXTIpW0NIMl1bQ0gyXUMyM0MoPU8pTihbQ0gzXSlbQ0gyXVtDQEhdM2M0W2NIXVtjSF1bY0hdW2NIXW40

>  <s_epik_cmdline>  (58) 
J2VwaWtfcHl0aG9uJywgJy1waHQnLCAnMi4wJywgJy1waCcsICc3LjAnLCAnLXRuJywgJzgnLCAnLW1hJywgJzIwMCcsICctaW1hZScsICc8aW5maWxlLm1hZT4nLCAnLW9tYWUnLCAnPG91dGZpbGUubWFlPic=

>  <r_epik_Ionization_Penalty>  (58) 
1.52681

>  <r_epik_Ionization_Penalty_Charging>  (58) 
1.11981

>  <r_epik_Ionization_Penalty_Neutral>  (58) 
0.406992

>  <r_epik_State_Penalty>  (58) 
1.73105

>  <r_epik_Charging_Adjusted_Penalty>  (58) 
2.85086

>  <i_epik_Tot_Q>  (58) 
2

>  <i_epik_Tot_abs_Q>  (58) 
2

>  <s_lp_Force_Field>  (58) 
OPLS3e

>  <r_lp_Energy>  (58) 
62.8355

>  <b_lp_Chiralities_Consistent>  (58) 
1

>  <s_lp_Variant>  (58) 
5:0-3

>  <s_i_glide_gridfile>  (58) 
pfpi4k_grid

>  <i_i_glide_lignum>  (58) 
20

>  <i_i_glide_rotatable_bonds>  (58) 
2

>  <r_i_docking_score>  (58) 
-3.19677

>  <r_i_glide_ligand_efficiency>  (58) 
-0.127871

>  <r_i_glide_ligand_efficiency_sa>  (58) 
-0.373896

>  <r_i_glide_ligand_efficiency_ln>  (58) 
-0.757729

>  <r_i_glide_gscore>  (58) 
-3.19677

>  <r_i_glide_lipo>  (58) 
-0.405199

>  <r_i_glide_hbond>  (58) 
-0.0691067

>  <r_i_glide_metal>  (58) 
-0

>  <r_i_glide_rewards>  (58) 
-1.06027

>  <r_i_glide_evdw>  (58) 
-20.1384

>  <r_i_glide_ecoul>  (58) 
-5.99417

>  <r_i_glide_erotb>  (58) 
0.319998

>  <r_i_glide_esite>  (58) 
-0.0761485

>  <r_i_glide_emodel>  (58) 
-32.4049

>  <r_i_glide_energy>  (58) 
-26.1325

>  <r_i_glide_einternal>  (58) 
0.125872

>  <r_i_glide_intrahb_reward>  (58) 
-0

>  <i_i_glide_confnum>  (58) 
1

>  <i_i_glide_posenum>  (58) 
15

>  <r_i_glide_eff_state_penalty>  (58) 
0

>  <ligand_id>  (58) 
5

>  <original_smiles>  (58) 
CN1CCC(N2CCC3(CC2)C(=O)N(C)CC3c2ccccn2)CC1

>  <smiles>  (58) 
[H]c1c([H])c([H])[n+]([H])c(C2([H])C([H])([H])N(C([H])([H])[H])C(=O)C23C([H])([H])C([H])([H])N(C2([H])C([H])([H])C([H])([H])[N+]([H])(C([H])([H])[H])C([H])([H])C2([H])[H])C([H])([H])C3([H])[H])c1[H]

$$$$
5:2:1
     RDKit          3D

 57 60  0  0  1  0  0  0  0  0999 V2000
    5.7884   -3.7881   -0.8620 C   0  0  0  0  0  0  0  0  0  0  0  0
    4.5427   -4.2487   -0.1956 N   0  0  2  0  0  0  0  0  0  0  0  0
    4.3846   -3.6371    1.1408 C   0  0  0  0  0  0  0  0  0  0  0  0
    3.0371   -4.0230    1.7648 C   0  0  0  0  0  0  0  0  0  0  0  0
    2.8615   -5.5544    1.8345 C   0  0  1  0  0  0  0  0  0  0  0  0
    1.4873   -5.8863    2.2951 N   0  0  0  0  0  0  0  0  0  0  0  0
    1.2274   -5.4328    3.6728 C   0  0  0  0  0  0  0  0  0  0  0  0
    2.0910   -6.2120    4.7108 C   0  0  0  0  0  0  0  0  0  0  0  0
    1.9184   -7.7555    4.5892 C   0  0  0  0  0  0  0  0  0  0  0  0
    1.9924   -8.1404    3.0826 C   0  0  0  0  0  0  0  0  0  0  0  0
    1.0895   -7.2967    2.1771 C   0  0  0  0  0  0  0  0  0  0  0  0
    0.5831   -8.1660    5.2000 C   0  0  0  0  0  0  0  0  0  0  0  0
   -0.5021   -7.6829    4.8777 O   0  0  0  0  0  0  0  0  0  0  0  0
    0.7538   -9.1382    6.1402 N   0  0  0  0  0  0  0  0  0  0  0  0
   -0.3257   -9.8404    6.8221 C   0  0  0  0  0  0  0  0  0  0  0  0
    2.1218   -9.5608    6.3170 C   0  0  0  0  0  0  0  0  0  0  0  0
    2.9502   -8.5597    5.4580 C   0  0  1  0  0  0  0  0  0  0  0  0
    4.0578   -9.2358    4.6421 C   0  0  0  0  0  0  0  0  0  0  0  0
    5.2648   -8.5896    4.2956 C   0  0  0  0  0  0  0  0  0  0  0  0
    6.1690   -9.2211    3.4121 C   0  0  0  0  0  0  0  0  0  0  0  0
    5.8468  -10.4813    2.8876 C   0  0  0  0  0  0  0  0  0  0  0  0
    4.6277  -11.0844    3.2512 C   0  0  0  0  0  0  0  0  0  0  0  0
    3.7888  -10.4361    4.0873 N   0  0  0  0  0  0  0  0  0  0  0  0
    3.1572   -6.1809    0.4562 C   0  0  0  0  0  0  0  0  0  0  0  0
    4.4982   -5.7202   -0.1188 C   0  0  0  0  0  0  0  0  0  0  0  0
    6.6585   -4.1138   -0.2900 H   0  0  0  0  0  0  0  0  0  0  0  0
    5.7988   -2.7003   -0.9367 H   0  0  0  0  0  0  0  0  0  0  0  0
    5.8351   -4.2069   -1.8680 H   0  0  0  0  0  0  0  0  0  0  0  0
    5.1873   -3.9564    1.8082 H   0  0  0  0  0  0  0  0  0  0  0  0
    4.4248   -2.5513    1.0759 H   0  0  0  0  0  0  0  0  0  0  0  0
    3.0130   -3.5610    2.7561 H   0  0  0  0  0  0  0  0  0  0  0  0
    2.2158   -3.5917    1.1916 H   0  0  0  0  0  0  0  0  0  0  0  0
    3.6118   -5.9403    2.5209 H   0  0  0  0  0  0  0  0  0  0  0  0
    1.3951   -4.3660    3.7874 H   0  0  0  0  0  0  0  0  0  0  0  0
    0.1670   -5.5663    3.8869 H   0  0  0  0  0  0  0  0  0  0  0  0
    3.1454   -5.9384    4.6289 H   0  0  0  0  0  0  0  0  0  0  0  0
    1.8106   -5.8731    5.7140 H   0  0  0  0  0  0  0  0  0  0  0  0
    3.0059   -8.0396    2.6984 H   0  0  0  0  0  0  0  0  0  0  0  0
    1.7017   -9.1732    2.9327 H   0  0  0  0  0  0  0  0  0  0  0  0
    0.0285   -7.4415    2.4185 H   0  0  0  0  0  0  0  0  0  0  0  0
    1.2079   -7.6805    1.1596 H   0  0  0  0  0  0  0  0  0  0  0  0
   -1.3188   -9.4707    6.5667 H   0  0  0  0  0  0  0  0  0  0  0  0
   -0.1821   -9.7387    7.8929 H   0  0  0  0  0  0  0  0  0  0  0  0
   -0.2904  -10.8969    6.5591 H   0  0  0  0  0  0  0  0  0  0  0  0
    2.3970   -9.5396    7.3826 H   0  0  0  0  0  0  0  0  0  0  0  0
    2.1256  -10.5971    5.9574 H   0  0  0  0  0  0  0  0  0  0  0  0
    3.4126   -7.8627    6.1660 H   0  0  0  0  0  0  0  0  0  0  0  0
    5.4600   -7.5879    4.6566 H   0  0  0  0  0  0  0  0  0  0  0  0
    7.0576   -8.7030    3.0833 H   0  0  0  0  0  0  0  0  0  0  0  0
    6.4834  -10.9755    2.1670 H   0  0  0  0  0  0  0  0  0  0  0  0
    4.2508  -12.0073    2.8482 H   0  0  0  0  0  0  0  0  0  0  0  0
    3.2454   -7.2654    0.5219 H   0  0  0  0  0  0  0  0  0  0  0  0
    2.3474   -5.9415   -0.2319 H   0  0  0  0  0  0  0  0  0  0  0  0
    4.6219   -6.1619   -1.1061 H   0  0  0  0  0  0  0  0  0  0  0  0
    5.3037   -6.1100    0.5036 H   0  0  0  0  0  0  0  0  0  0  0  0
    3.7586   -3.9624   -0.7599 H   0  0  0  0  0  0  0  0  0  0  0  0
    2.8934  -10.8825    4.2926 H   0  0  0  0  0  0  0  0  0  0  0  0
  1  2  1  0
  1 26  1  0
  1 27  1  0
  1 28  1  0
  2 25  1  0
  2  3  1  0
  2 56  1  6
  3  4  1  0
  3 29  1  0
  3 30  1  0
  4  5  1  0
  4 31  1  0
  4 32  1  0
  5  6  1  0
  5 24  1  0
  5 33  1  1
  6 11  1  0
  6  7  1  0
  7  8  1  0
  7 34  1  0
  7 35  1  0
  8  9  1  0
  8 36  1  0
  8 37  1  0
  9 17  1  0
  9 10  1  0
  9 12  1  0
 10 11  1  0
 10 38  1  0
 10 39  1  0
 11 40  1  0
 11 41  1  0
 12 13  2  0
 12 14  1  0
 14 15  1  0
 14 16  1  0
 15 42  1  0
 15 43  1  0
 15 44  1  0
 16 17  1  0
 16 45  1  0
 16 46  1  0
 17 18  1  0
 17 47  1  1
 18 23  1  0
 18 19  2  0
 19 20  1  0
 19 48  1  0
 20 21  2  0
 20 49  1  0
 21 22  1  0
 21 50  1  0
 22 23  2  0
 22 51  1  0
 23 57  1  0
 24 25  1  0
 24 52  1  0
 24 53  1  0
 25 54  1  0
 25 55  1  0
M  CHG  2   2   1  23   1
M  END
>  <i_m_ct_stereo_status>  (59) 
1

>  <s_m_source_file>  (59) 
/var/tmp/pbs.5076255.sched01/tmp6mrmgolx/06cp14zw5.sdf

>  <i_m_source_file_index>  (59) 
20

>  <i_lp_mmshare_version>  (59) 
48012

>  <i_f3d_flags>  (59) 
0

>  <s_epik_input>  (59) 
W0NIM11OMVtDSDJdW0NIMl1bQ0hdKFtDSDJdW0NIMl0xKU4oW0NIMl1bQ0gyXTIpW0NIMl1bQ0gyXUMyM0MoPU8pTihbQ0gzXSlbQ0gyXVtDQEhdM2M0W2NIXVtjSF1bY0hdW2NIXW40

>  <s_epik_cmdline>  (59) 
J2VwaWtfcHl0aG9uJywgJy1waHQnLCAnMi4wJywgJy1waCcsICc3LjAnLCAnLXRuJywgJzgnLCAnLW1hJywgJzIwMCcsICctaW1hZScsICc8aW5maWxlLm1hZT4nLCAnLW9tYWUnLCAnPG91dGZpbGUubWFlPic=

>  <r_epik_Ionization_Penalty>  (59) 
1.52681

>  <r_epik_Ionization_Penalty_Charging>  (59) 
1.11981

>  <r_epik_Ionization_Penalty_Neutral>  (59) 
0.406992

>  <r_epik_State_Penalty>  (59) 
1.73105

>  <r_epik_Charging_Adjusted_Penalty>  (59) 
2.85086

>  <i_epik_Tot_Q>  (59) 
2

>  <i_epik_Tot_abs_Q>  (59) 
2

>  <s_lp_Force_Field>  (59) 
OPLS3e

>  <r_lp_Energy>  (59) 
62.8355

>  <b_lp_Chiralities_Consistent>  (59) 
1

>  <s_lp_Variant>  (59) 
5:0-3

>  <s_i_glide_gridfile>  (59) 
pfpi4k_grid

>  <i_i_glide_lignum>  (59) 
20

>  <i_i_glide_rotatable_bonds>  (59) 
2

>  <r_i_docking_score>  (59) 
-2.82826

>  <r_i_glide_ligand_efficiency>  (59) 
-0.11313

>  <r_i_glide_ligand_efficiency_sa>  (59) 
-0.330795

>  <r_i_glide_ligand_efficiency_ln>  (59) 
-0.670382

>  <r_i_glide_gscore>  (59) 
-2.82826

>  <r_i_glide_lipo>  (59) 
-0.0797561

>  <r_i_glide_hbond>  (59) 
0

>  <r_i_glide_metal>  (59) 
-0

>  <r_i_glide_rewards>  (59) 
-1.06027

>  <r_i_glide_evdw>  (59) 
-18.8936

>  <r_i_glide_ecoul>  (59) 
-6.49093

>  <r_i_glide_erotb>  (59) 
0.319998

>  <r_i_glide_esite>  (59) 
-0.0899151

>  <r_i_glide_emodel>  (59) 
-30.7802

>  <r_i_glide_energy>  (59) 
-25.3846

>  <r_i_glide_einternal>  (59) 
0.252704

>  <r_i_glide_intrahb_reward>  (59) 
-0

>  <i_i_glide_confnum>  (59) 
2

>  <i_i_glide_posenum>  (59) 
12

>  <r_i_glide_eff_state_penalty>  (59) 
0

>  <ligand_id>  (59) 
5

>  <original_smiles>  (59) 
CN1CCC(N2CCC3(CC2)C(=O)N(C)CC3c2ccccn2)CC1

>  <smiles>  (59) 
[H]c1c([H])c([H])[n+]([H])c(C2([H])C([H])([H])N(C([H])([H])[H])C(=O)C23C([H])([H])C([H])([H])N(C2([H])C([H])([H])C([H])([H])[N+]([H])(C([H])([H])[H])C([H])([H])C2([H])[H])C([H])([H])C3([H])[H])c1[H]

$$$$
5:2:2
     RDKit          3D

 57 60  0  0  1  0  0  0  0  0999 V2000
    4.7256   -3.8090   -3.5391 C   0  0  0  0  0  0  0  0  0  0  0  0
    4.5677   -2.9968   -2.3046 N   0  0  2  0  0  0  0  0  0  0  0  0
    5.7452   -3.1415   -1.4225 C   0  0  0  0  0  0  0  0  0  0  0  0
    5.6331   -2.2120   -0.2060 C   0  0  0  0  0  0  0  0  0  0  0  0
    4.3283   -2.4595    0.5774 C   0  0  1  0  0  0  0  0  0  0  0  0
    4.1715   -1.4491    1.6566 N   0  0  0  0  0  0  0  0  0  0  0  0
    5.2861   -1.4147    2.6073 C   0  0  0  0  0  0  0  0  0  0  0  0
    5.3408   -2.7336    3.4269 C   0  0  0  0  0  0  0  0  0  0  0  0
    3.9981   -3.0456    4.1617 C   0  0  0  0  0  0  0  0  0  0  0  0
    2.8263   -2.8169    3.1570 C   0  0  0  0  0  0  0  0  0  0  0  0
    2.9073   -1.4936    2.4028 C   0  0  0  0  0  0  0  0  0  0  0  0
    3.8923   -2.1306    5.3682 C   0  0  0  0  0  0  0  0  0  0  0  0
    3.9557   -0.9023    5.3366 O   0  0  0  0  0  0  0  0  0  0  0  0
    3.6523   -2.8401    6.5326 N   0  0  0  0  0  0  0  0  0  0  0  0
    3.3578   -2.2613    7.8199 C   0  0  0  0  0  0  0  0  0  0  0  0
    3.5784   -4.2758    6.3229 C   0  0  0  0  0  0  0  0  0  0  0  0
    3.9814   -4.4717    4.8287 C   0  0  1  0  0  0  0  0  0  0  0  0
    3.0941   -5.4550    4.0463 C   0  0  0  0  0  0  0  0  0  0  0  0
    1.6981   -5.5441    4.2402 C   0  0  0  0  0  0  0  0  0  0  0  0
    0.9173   -6.3690    3.4090 C   0  0  0  0  0  0  0  0  0  0  0  0
    1.5406   -7.0895    2.3781 C   0  0  0  0  0  0  0  0  0  0  0  0
    2.9227   -6.9632    2.1980 C   0  0  0  0  0  0  0  0  0  0  0  0
    3.6453   -6.1711    3.0311 N   0  0  0  0  0  0  0  0  0  0  0  0
    3.1334   -2.4040   -0.3907 C   0  0  0  0  0  0  0  0  0  0  0  0
    3.3202   -3.3298   -1.5927 C   0  0  0  0  0  0  0  0  0  0  0  0
    4.7914   -4.8718   -3.2983 H   0  0  0  0  0  0  0  0  0  0  0  0
    5.6547   -3.5191   -4.0292 H   0  0  0  0  0  0  0  0  0  0  0  0
    3.8868   -3.6457   -4.2229 H   0  0  0  0  0  0  0  0  0  0  0  0
    5.8426   -4.1720   -1.0716 H   0  0  0  0  0  0  0  0  0  0  0  0
    6.6641   -2.8929   -1.9555 H   0  0  0  0  0  0  0  0  0  0  0  0
    6.5193   -2.4106    0.4055 H   0  0  0  0  0  0  0  0  0  0  0  0
    5.6828   -1.1678   -0.5169 H   0  0  0  0  0  0  0  0  0  0  0  0
    4.3916   -3.4658    0.9777 H   0  0  0  0  0  0  0  0  0  0  0  0
    6.2397   -1.2396    2.1133 H   0  0  0  0  0  0  0  0  0  0  0  0
    5.1498   -0.5615    3.2661 H   0  0  0  0  0  0  0  0  0  0  0  0
    5.6473   -3.5807    2.7995 H   0  0  0  0  0  0  0  0  0  0  0  0
    6.1285   -2.6640    4.1819 H   0  0  0  0  0  0  0  0  0  0  0  0
    2.7799   -3.6089    2.4094 H   0  0  0  0  0  0  0  0  0  0  0  0
    1.8771   -2.8318    3.6776 H   0  0  0  0  0  0  0  0  0  0  0  0
    2.8164   -0.6259    3.0682 H   0  0  0  0  0  0  0  0  0  0  0  0
    2.0380   -1.4354    1.7468 H   0  0  0  0  0  0  0  0  0  0  0  0
    3.4011   -1.1800    7.8437 H   0  0  0  0  0  0  0  0  0  0  0  0
    4.0756   -2.6337    8.5367 H   0  0  0  0  0  0  0  0  0  0  0  0
    2.3640   -2.5497    8.1421 H   0  0  0  0  0  0  0  0  0  0  0  0
    4.2779   -4.7865    7.0072 H   0  0  0  0  0  0  0  0  0  0  0  0
    2.5403   -4.5384    6.5458 H   0  0  0  0  0  0  0  0  0  0  0  0
    5.0156   -4.8569    4.8451 H   0  0  0  0  0  0  0  0  0  0  0  0
    1.1933   -4.9418    4.9894 H   0  0  0  0  0  0  0  0  0  0  0  0
   -0.1497   -6.3819    3.5367 H   0  0  0  0  0  0  0  0  0  0  0  0
    0.9499   -7.6581    1.6803 H   0  0  0  0  0  0  0  0  0  0  0  0
    3.4769   -7.4083    1.3910 H   0  0  0  0  0  0  0  0  0  0  0  0
    2.2073   -2.7324    0.0849 H   0  0  0  0  0  0  0  0  0  0  0  0
    3.0059   -1.3760   -0.7240 H   0  0  0  0  0  0  0  0  0  0  0  0
    2.4561   -3.2283   -2.2526 H   0  0  0  0  0  0  0  0  0  0  0  0
    3.3382   -4.3530   -1.2167 H   0  0  0  0  0  0  0  0  0  0  0  0
    4.4979   -2.0246   -2.5604 H   0  0  0  0  0  0  0  0  0  0  0  0
    4.6439   -6.0767    2.8779 H   0  0  0  0  0  0  0  0  0  0  0  0
  1  2  1  0
  1 26  1  0
  1 27  1  0
  1 28  1  0
  2 25  1  0
  2  3  1  0
  2 56  1  6
  3  4  1  0
  3 29  1  0
  3 30  1  0
  4  5  1  0
  4 31  1  0
  4 32  1  0
  5  6  1  0
  5 24  1  0
  5 33  1  1
  6 11  1  0
  6  7  1  0
  7  8  1  0
  7 34  1  0
  7 35  1  0
  8  9  1  0
  8 36  1  0
  8 37  1  0
  9 17  1  0
  9 10  1  0
  9 12  1  0
 10 11  1  0
 10 38  1  0
 10 39  1  0
 11 40  1  0
 11 41  1  0
 12 13  2  0
 12 14  1  0
 14 15  1  0
 14 16  1  0
 15 42  1  0
 15 43  1  0
 15 44  1  0
 16 17  1  0
 16 45  1  0
 16 46  1  0
 17 18  1  0
 17 47  1  1
 18 23  1  0
 18 19  2  0
 19 20  1  0
 19 48  1  0
 20 21  2  0
 20 49  1  0
 21 22  1  0
 21 50  1  0
 22 23  2  0
 22 51  1  0
 23 57  1  0
 24 25  1  0
 24 52  1  0
 24 53  1  0
 25 54  1  0
 25 55  1  0
M  CHG  2   2   1  23   1
M  END
>  <i_m_ct_stereo_status>  (60) 
1

>  <s_m_source_file>  (60) 
/var/tmp/pbs.5076255.sched01/tmp6mrmgolx/06cp14zw5.sdf

>  <i_m_source_file_index>  (60) 
20

>  <i_lp_mmshare_version>  (60) 
48012

>  <i_f3d_flags>  (60) 
0

>  <s_epik_input>  (60) 
W0NIM11OMVtDSDJdW0NIMl1bQ0hdKFtDSDJdW0NIMl0xKU4oW0NIMl1bQ0gyXTIpW0NIMl1bQ0gyXUMyM0MoPU8pTihbQ0gzXSlbQ0gyXVtDQEhdM2M0W2NIXVtjSF1bY0hdW2NIXW40

>  <s_epik_cmdline>  (60) 
J2VwaWtfcHl0aG9uJywgJy1waHQnLCAnMi4wJywgJy1waCcsICc3LjAnLCAnLXRuJywgJzgnLCAnLW1hJywgJzIwMCcsICctaW1hZScsICc8aW5maWxlLm1hZT4nLCAnLW9tYWUnLCAnPG91dGZpbGUubWFlPic=

>  <r_epik_Ionization_Penalty>  (60) 
1.52681

>  <r_epik_Ionization_Penalty_Charging>  (60) 
1.11981

>  <r_epik_Ionization_Penalty_Neutral>  (60) 
0.406992

>  <r_epik_State_Penalty>  (60) 
1.73105

>  <r_epik_Charging_Adjusted_Penalty>  (60) 
2.85086

>  <i_epik_Tot_Q>  (60) 
2

>  <i_epik_Tot_abs_Q>  (60) 
2

>  <s_lp_Force_Field>  (60) 
OPLS3e

>  <r_lp_Energy>  (60) 
62.8355

>  <b_lp_Chiralities_Consistent>  (60) 
1

>  <s_lp_Variant>  (60) 
5:0-3

>  <s_i_glide_gridfile>  (60) 
pfpi4k_grid

>  <i_i_glide_lignum>  (60) 
20

>  <i_i_glide_rotatable_bonds>  (60) 
2

>  <r_i_docking_score>  (60) 
-2.35167

>  <r_i_glide_ligand_efficiency>  (60) 
-0.0940669

>  <r_i_glide_ligand_efficiency_sa>  (60) 
-0.275053

>  <r_i_glide_ligand_efficiency_ln>  (60) 
-0.557417

>  <r_i_glide_gscore>  (60) 
-2.35167

>  <r_i_glide_lipo>  (60) 
-0.358197

>  <r_i_glide_hbond>  (60) 
0

>  <r_i_glide_metal>  (60) 
-0

>  <r_i_glide_rewards>  (60) 
-1.06027

>  <r_i_glide_evdw>  (60) 
-15.9255

>  <r_i_glide_ecoul>  (60) 
-3.04623

>  <r_i_glide_erotb>  (60) 
0.319998

>  <r_i_glide_esite>  (60) 
0

>  <r_i_glide_emodel>  (60) 
-23.3783

>  <r_i_glide_energy>  (60) 
-18.9717

>  <r_i_glide_einternal>  (60) 
0.0967969

>  <r_i_glide_intrahb_reward>  (60) 
-0

>  <i_i_glide_confnum>  (60) 
1

>  <i_i_glide_posenum>  (60) 
7

>  <r_i_glide_eff_state_penalty>  (60) 
0

>  <ligand_id>  (60) 
5

>  <original_smiles>  (60) 
CN1CCC(N2CCC3(CC2)C(=O)N(C)CC3c2ccccn2)CC1

>  <smiles>  (60) 
[H]c1c([H])c([H])[n+]([H])c(C2([H])C([H])([H])N(C([H])([H])[H])C(=O)C23C([H])([H])C([H])([H])N(C2([H])C([H])([H])C([H])([H])[N+]([H])(C([H])([H])[H])C([H])([H])C2([H])[H])C([H])([H])C3([H])[H])c1[H]

$$$$
5:3:0
     RDKit          3D

 56 59  0  0  1  0  0  0  0  0999 V2000
   -1.7626    1.7393    5.0946 C   0  0  0  0  0  0  0  0  0  0  0  0
   -0.7388    1.1637    4.2466 N   0  0  0  0  0  0  0  0  0  0  0  0
    0.3316    0.6565    5.1009 C   0  0  0  0  0  0  0  0  0  0  0  0
    1.3383   -0.0667    4.2126 C   0  0  0  0  0  0  0  0  0  0  0  0
    1.9086    0.8762    3.1192 C   0  0  0  0  0  0  0  0  0  0  0  0
    2.7953    0.1407    2.1794 N   0  0  1  0  0  0  0  0  0  0  0  0
    4.1637   -0.1023    2.7203 C   0  0  0  0  0  0  0  0  0  0  0  0
    5.0671   -0.7507    1.6273 C   0  0  0  0  0  0  0  0  0  0  0  0
    4.4326   -2.0312    0.9924 C   0  0  2  0  0  0  0  0  0  0  0  0
    2.9917   -1.6652    0.5221 C   0  0  0  0  0  0  0  0  0  0  0  0
    2.1474   -1.0966    1.6657 C   0  0  0  0  0  0  0  0  0  0  0  0
    4.4213   -3.1603    2.0456 C   0  0  0  0  0  0  0  0  0  0  0  0
    3.9245   -3.0237    3.1827 O   0  0  0  0  0  0  0  0  0  0  0  0
    4.9734   -4.2741    1.5876 N   0  0  0  0  0  0  0  0  0  0  0  0
    4.8461   -5.5856    2.2182 C   0  0  0  0  0  0  0  0  0  0  0  0
    5.4082   -4.1648    0.2026 C   0  0  0  0  0  0  0  0  0  0  0  0
    5.3112   -2.6388   -0.1535 C   0  0  1  0  0  0  0  0  0  0  0  0
    4.8690   -2.3502   -1.6105 C   0  0  0  0  0  0  0  0  0  0  0  0
    4.6435   -3.3791   -2.5430 C   0  0  0  0  0  0  0  0  0  0  0  0
    4.0915   -3.0489   -3.8067 C   0  0  0  0  0  0  0  0  0  0  0  0
    3.8220   -1.6894   -4.1070 C   0  0  0  0  0  0  0  0  0  0  0  0
    4.1541   -0.7332   -3.1373 C   0  0  0  0  0  0  0  0  0  0  0  0
    4.6960   -1.0479   -1.9395 N   0  0  0  0  0  0  0  0  0  0  0  0
    0.7708    1.5799    2.3593 C   0  0  0  0  0  0  0  0  0  0  0  0
   -0.2357    2.1967    3.3343 C   0  0  0  0  0  0  0  0  0  0  0  0
   -2.1779    0.9683    5.7419 H   0  0  0  0  0  0  0  0  0  0  0  0
   -2.5703    2.1553    4.4935 H   0  0  0  0  0  0  0  0  0  0  0  0
   -1.3343    2.5268    5.7140 H   0  0  0  0  0  0  0  0  0  0  0  0
    0.8011    1.4516    5.6918 H   0  0  0  0  0  0  0  0  0  0  0  0
   -0.0821   -0.0905    5.7832 H   0  0  0  0  0  0  0  0  0  0  0  0
    2.1291   -0.4907    4.8347 H   0  0  0  0  0  0  0  0  0  0  0  0
    0.7897   -0.9103    3.7860 H   0  0  0  0  0  0  0  0  0  0  0  0
    2.4969    1.6585    3.5955 H   0  0  0  0  0  0  0  0  0  0  0  0
    4.6022    0.8422    3.0524 H   0  0  0  0  0  0  0  0  0  0  0  0
    4.0970   -0.7342    3.6100 H   0  0  0  0  0  0  0  0  0  0  0  0
    5.2693   -0.0022    0.8527 H   0  0  0  0  0  0  0  0  0  0  0  0
    6.0577   -0.9727    2.0481 H   0  0  0  0  0  0  0  0  0  0  0  0
    3.0051   -0.9385   -0.3120 H   0  0  0  0  0  0  0  0  0  0  0  0
    2.4814   -2.5566    0.1730 H   0  0  0  0  0  0  0  0  0  0  0  0
    1.9939   -1.8489    2.4500 H   0  0  0  0  0  0  0  0  0  0  0  0
    1.1480   -0.8540    1.2832 H   0  0  0  0  0  0  0  0  0  0  0  0
    4.3449   -5.5259    3.1927 H   0  0  0  0  0  0  0  0  0  0  0  0
    5.8460   -5.9986    2.3914 H   0  0  0  0  0  0  0  0  0  0  0  0
    4.2477   -6.2909    1.6191 H   0  0  0  0  0  0  0  0  0  0  0  0
    6.4506   -4.4754    0.1033 H   0  0  0  0  0  0  0  0  0  0  0  0
    4.7291   -4.7429   -0.4219 H   0  0  0  0  0  0  0  0  0  0  0  0
    6.3160   -2.2373   -0.0240 H   0  0  0  0  0  0  0  0  0  0  0  0
    4.7991   -4.4186   -2.2958 H   0  0  0  0  0  0  0  0  0  0  0  0
    3.8579   -3.8113   -4.5257 H   0  0  0  0  0  0  0  0  0  0  0  0
    3.3470   -1.3813   -5.0278 H   0  0  0  0  0  0  0  0  0  0  0  0
    3.9160    0.3208   -3.3087 H   0  0  0  0  0  0  0  0  0  0  0  0
    1.1810    2.3526    1.7017 H   0  0  0  0  0  0  0  0  0  0  0  0
    0.1980    0.9140    1.7110 H   0  0  0  0  0  0  0  0  0  0  0  0
   -1.0583    2.6081    2.7423 H   0  0  0  0  0  0  0  0  0  0  0  0
    0.2288    3.0120    3.8926 H   0  0  0  0  0  0  0  0  0  0  0  0
    2.9537    0.7733    1.3893 H   0  0  0  0  0  0  0  0  0  0  0  0
  1  2  1  0
  1 26  1  0
  1 27  1  0
  1 28  1  0
  2 25  1  0
  2  3  1  0
  3  4  1  0
  3 29  1  0
  3 30  1  0
  4  5  1  0
  4 31  1  0
  4 32  1  0
  5  6  1  0
  5 24  1  0
  5 33  1  0
  6 11  1  0
  6  7  1  0
  6 56  1  6
  7  8  1  0
  7 34  1  0
  7 35  1  0
  9  8  1  1
  8 36  1  0
  8 37  1  0
  9 17  1  0
  9 10  1  0
  9 12  1  0
 10 11  1  0
 10 38  1  0
 10 39  1  0
 11 40  1  0
 11 41  1  0
 12 13  2  0
 12 14  1  0
 14 15  1  0
 14 16  1  0
 15 42  1  0
 15 43  1  0
 15 44  1  0
 16 17  1  0
 16 45  1  0
 16 46  1  0
 17 18  1  0
 17 47  1  6
 18 23  1  0
 18 19  2  0
 19 20  1  0
 19 48  1  0
 20 21  2  0
 20 49  1  0
 21 22  1  0
 21 50  1  0
 22 23  2  0
 22 51  1  0
 24 25  1  0
 24 52  1  0
 24 53  1  0
 25 54  1  0
 25 55  1  0
M  CHG  1   6   1
M  END
>  <i_m_ct_stereo_status>  (61) 
1

>  <s_m_source_file>  (61) 
/var/tmp/pbs.5076255.sched01/tmp6mrmgolx/06cp14zw5.sdf

>  <i_m_source_file_index>  (61) 
21

>  <i_lp_mmshare_version>  (61) 
48012

>  <i_f3d_flags>  (61) 
0

>  <s_epik_input>  (61) 
W0NIM11OMVtDSDJdW0NIMl1bQ0hdKFtDSDJdW0NIMl0xKU4oW0NIMl1bQ0gyXTIpW0NIMl1bQ0gyXUMyM0MoPU8pTihbQ0gzXSlbQ0gyXVtDQEhdM2M0W2NIXVtjSF1bY0hdW2NIXW40

>  <s_epik_cmdline>  (61) 
J2VwaWtfcHl0aG9uJywgJy1waHQnLCAnMi4wJywgJy1waCcsICc3LjAnLCAnLXRuJywgJzgnLCAnLW1hJywgJzIwMCcsICctaW1hZScsICc8aW5maWxlLm1hZT4nLCAnLW9tYWUnLCAnPG91dGZpbGUubWFlPic=

>  <r_epik_Ionization_Penalty>  (61) 
1.3932

>  <r_epik_Ionization_Penalty_Charging>  (61) 
0.0022902

>  <r_epik_Ionization_Penalty_Neutral>  (61) 
1.39091

>  <r_epik_State_Penalty>  (61) 
1.75872

>  <r_epik_Charging_Adjusted_Penalty>  (61) 
1.76101

>  <i_epik_Tot_Q>  (61) 
1

>  <i_epik_Tot_abs_Q>  (61) 
1

>  <s_lp_Force_Field>  (61) 
OPLS3e

>  <r_lp_Energy>  (61) 
38.856

>  <b_lp_Chiralities_Consistent>  (61) 
1

>  <s_lp_Variant>  (61) 
5:0-4

>  <s_i_glide_gridfile>  (61) 
pfpi4k_grid

>  <i_i_glide_lignum>  (61) 
21

>  <i_i_glide_rotatable_bonds>  (61) 
2

>  <r_i_docking_score>  (61) 
-3.14484

>  <r_i_glide_ligand_efficiency>  (61) 
-0.125793

>  <r_i_glide_ligand_efficiency_sa>  (61) 
-0.367822

>  <r_i_glide_ligand_efficiency_ln>  (61) 
-0.745421

>  <r_i_glide_gscore>  (61) 
-3.14484

>  <r_i_glide_lipo>  (61) 
-0.567085

>  <r_i_glide_hbond>  (61) 
0

>  <r_i_glide_metal>  (61) 
-0

>  <r_i_glide_rewards>  (61) 
-1.13135

>  <r_i_glide_evdw>  (61) 
-27.3703

>  <r_i_glide_ecoul>  (61) 
-2.64805

>  <r_i_glide_erotb>  (61) 
0.321667

>  <r_i_glide_esite>  (61) 
-0.00235006

>  <r_i_glide_emodel>  (61) 
-28.9689

>  <r_i_glide_energy>  (61) 
-30.0184

>  <r_i_glide_einternal>  (61) 
11.9615

>  <r_i_glide_intrahb_reward>  (61) 
-0

>  <i_i_glide_confnum>  (61) 
3

>  <i_i_glide_posenum>  (61) 
33

>  <r_i_glide_eff_state_penalty>  (61) 
0

>  <ligand_id>  (61) 
5

>  <original_smiles>  (61) 
CN1CCC(N2CCC3(CC2)C(=O)N(C)CC3c2ccccn2)CC1

>  <smiles>  (61) 
[H]c1nc(C2([H])C([H])([H])N(C([H])([H])[H])C(=O)C23C([H])([H])C([H])([H])[N+]([H])(C2([H])C([H])([H])C([H])([H])N(C([H])([H])[H])C([H])([H])C2([H])[H])C([H])([H])C3([H])[H])c([H])c([H])c1[H]

$$$$
5:3:1
     RDKit          3D

 56 59  0  0  1  0  0  0  0  0999 V2000
   -2.3764    3.1513    5.0112 C   0  0  0  0  0  0  0  0  0  0  0  0
   -1.2084    2.5600    4.3970 N   0  0  0  0  0  0  0  0  0  0  0  0
   -1.3327    2.6269    2.9364 C   0  0  0  0  0  0  0  0  0  0  0  0
   -0.0460    2.0998    2.2835 C   0  0  0  0  0  0  0  0  0  0  0  0
    0.2324    0.6882    2.7585 C   0  0  0  0  0  0  0  0  0  0  0  0
    1.4965    0.1431    2.1548 N   0  0  1  0  0  0  0  0  0  0  0  0
    2.7331    0.4978    2.8752 C   0  0  0  0  0  0  0  0  0  0  0  0
    4.0082   -0.0021    2.1611 C   0  0  0  0  0  0  0  0  0  0  0  0
    3.9403   -1.5393    1.8486 C   0  0  2  0  0  0  0  0  0  0  0  0
    2.6033   -1.8068    1.1225 C   0  0  0  0  0  0  0  0  0  0  0  0
    1.3689   -1.2958    1.8982 C   0  0  0  0  0  0  0  0  0  0  0  0
    4.0644   -2.3586    3.1528 C   0  0  0  0  0  0  0  0  0  0  0  0
    3.3445   -2.1969    4.1329 O   0  0  0  0  0  0  0  0  0  0  0  0
    5.0346   -3.2747    3.0696 N   0  0  0  0  0  0  0  0  0  0  0  0
    5.1856   -4.3844    4.0065 C   0  0  0  0  0  0  0  0  0  0  0  0
    5.7376   -3.2530    1.8003 C   0  0  0  0  0  0  0  0  0  0  0  0
    5.1878   -2.0186    1.0525 C   0  0  1  0  0  0  0  0  0  0  0  0
    5.0163   -2.1627   -0.4904 C   0  0  0  0  0  0  0  0  0  0  0  0
    4.7593   -1.0559   -1.3361 C   0  0  0  0  0  0  0  0  0  0  0  0
    4.4736   -1.2648   -2.7053 C   0  0  0  0  0  0  0  0  0  0  0  0
    4.4884   -2.5928   -3.1897 C   0  0  0  0  0  0  0  0  0  0  0  0
    4.7677   -3.6224   -2.2775 C   0  0  0  0  0  0  0  0  0  0  0  0
    5.0218   -3.4126   -0.9693 N   0  0  0  0  0  0  0  0  0  0  0  0
    0.1931    0.6003    4.3071 C   0  0  0  0  0  0  0  0  0  0  0  0
   -1.1084    1.1767    4.8463 C   0  0  0  0  0  0  0  0  0  0  0  0
   -2.4629    4.1942    4.7189 H   0  0  0  0  0  0  0  0  0  0  0  0
   -2.2859    3.1025    6.0963 H   0  0  0  0  0  0  0  0  0  0  0  0
   -3.2751    2.6229    4.7008 H   0  0  0  0  0  0  0  0  0  0  0  0
   -2.1964    2.0435    2.6059 H   0  0  0  0  0  0  0  0  0  0  0  0
   -1.4844    3.6555    2.6093 H   0  0  0  0  0  0  0  0  0  0  0  0
   -0.1734    2.0852    1.1974 H   0  0  0  0  0  0  0  0  0  0  0  0
    0.7893    2.7693    2.4939 H   0  0  0  0  0  0  0  0  0  0  0  0
   -0.6250    0.1340    2.3886 H   0  0  0  0  0  0  0  0  0  0  0  0
    2.7949    1.5834    2.9803 H   0  0  0  0  0  0  0  0  0  0  0  0
    2.7340    0.0602    3.8796 H   0  0  0  0  0  0  0  0  0  0  0  0
    4.1375    0.5983    1.2570 H   0  0  0  0  0  0  0  0  0  0  0  0
    4.8760    0.2191    2.7857 H   0  0  0  0  0  0  0  0  0  0  0  0
    2.6245   -1.3154    0.1452 H   0  0  0  0  0  0  0  0  0  0  0  0
    2.4716   -2.8677    0.9105 H   0  0  0  0  0  0  0  0  0  0  0  0
    1.1059   -1.8718    2.7940 H   0  0  0  0  0  0  0  0  0  0  0  0
    0.5009   -1.4143    1.2848 H   0  0  0  0  0  0  0  0  0  0  0  0
    4.4721   -4.3107    4.8323 H   0  0  0  0  0  0  0  0  0  0  0  0
    6.1834   -4.3437    4.4444 H   0  0  0  0  0  0  0  0  0  0  0  0
    4.9945   -5.3574    3.5361 H   0  0  0  0  0  0  0  0  0  0  0  0
    6.8172   -3.1378    1.9390 H   0  0  0  0  0  0  0  0  0  0  0  0
    5.4980   -4.2208    1.3477 H   0  0  0  0  0  0  0  0  0  0  0  0
    5.9622   -1.2737    1.2273 H   0  0  0  0  0  0  0  0  0  0  0  0
    4.6711   -0.0618   -0.9244 H   0  0  0  0  0  0  0  0  0  0  0  0
    4.1925   -0.4426   -3.3462 H   0  0  0  0  0  0  0  0  0  0  0  0
    4.2777   -2.8141   -4.2223 H   0  0  0  0  0  0  0  0  0  0  0  0
    4.7852   -4.6487   -2.5948 H   0  0  0  0  0  0  0  0  0  0  0  0
    0.3141   -0.4305    4.6445 H   0  0  0  0  0  0  0  0  0  0  0  0
    0.9506    1.2138    4.7974 H   0  0  0  0  0  0  0  0  0  0  0  0
   -1.0224    1.1689    5.9368 H   0  0  0  0  0  0  0  0  0  0  0  0
   -1.9767    0.5796    4.5498 H   0  0  0  0  0  0  0  0  0  0  0  0
    1.5512    0.5389    1.2091 H   0  0  0  0  0  0  0  0  0  0  0  0
  1  2  1  0
  1 26  1  0
  1 27  1  0
  1 28  1  0
  2 25  1  0
  2  3  1  0
  3  4  1  0
  3 29  1  0
  3 30  1  0
  4  5  1  0
  4 31  1  0
  4 32  1  0
  5  6  1  0
  5 24  1  0
  5 33  1  0
  6 11  1  0
  6  7  1  0
  6 56  1  6
  7  8  1  0
  7 34  1  0
  7 35  1  0
  9  8  1  1
  8 36  1  0
  8 37  1  0
  9 17  1  0
  9 10  1  0
  9 12  1  0
 10 11  1  0
 10 38  1  0
 10 39  1  0
 11 40  1  0
 11 41  1  0
 12 13  2  0
 12 14  1  0
 14 15  1  0
 14 16  1  0
 15 42  1  0
 15 43  1  0
 15 44  1  0
 16 17  1  0
 16 45  1  0
 16 46  1  0
 17 18  1  0
 17 47  1  6
 18 23  1  0
 18 19  2  0
 19 20  1  0
 19 48  1  0
 20 21  2  0
 20 49  1  0
 21 22  1  0
 21 50  1  0
 22 23  2  0
 22 51  1  0
 24 25  1  0
 24 52  1  0
 24 53  1  0
 25 54  1  0
 25 55  1  0
M  CHG  1   6   1
M  END
>  <i_m_ct_stereo_status>  (62) 
1

>  <s_m_source_file>  (62) 
/var/tmp/pbs.5076255.sched01/tmp6mrmgolx/06cp14zw5.sdf

>  <i_m_source_file_index>  (62) 
21

>  <i_lp_mmshare_version>  (62) 
48012

>  <i_f3d_flags>  (62) 
0

>  <s_epik_input>  (62) 
W0NIM11OMVtDSDJdW0NIMl1bQ0hdKFtDSDJdW0NIMl0xKU4oW0NIMl1bQ0gyXTIpW0NIMl1bQ0gyXUMyM0MoPU8pTihbQ0gzXSlbQ0gyXVtDQEhdM2M0W2NIXVtjSF1bY0hdW2NIXW40

>  <s_epik_cmdline>  (62) 
J2VwaWtfcHl0aG9uJywgJy1waHQnLCAnMi4wJywgJy1waCcsICc3LjAnLCAnLXRuJywgJzgnLCAnLW1hJywgJzIwMCcsICctaW1hZScsICc8aW5maWxlLm1hZT4nLCAnLW9tYWUnLCAnPG91dGZpbGUubWFlPic=

>  <r_epik_Ionization_Penalty>  (62) 
1.3932

>  <r_epik_Ionization_Penalty_Charging>  (62) 
0.0022902

>  <r_epik_Ionization_Penalty_Neutral>  (62) 
1.39091

>  <r_epik_State_Penalty>  (62) 
1.75872

>  <r_epik_Charging_Adjusted_Penalty>  (62) 
1.76101

>  <i_epik_Tot_Q>  (62) 
1

>  <i_epik_Tot_abs_Q>  (62) 
1

>  <s_lp_Force_Field>  (62) 
OPLS3e

>  <r_lp_Energy>  (62) 
38.856

>  <b_lp_Chiralities_Consistent>  (62) 
1

>  <s_lp_Variant>  (62) 
5:0-4

>  <s_i_glide_gridfile>  (62) 
pfpi4k_grid

>  <i_i_glide_lignum>  (62) 
21

>  <i_i_glide_rotatable_bonds>  (62) 
2

>  <r_i_docking_score>  (62) 
-3.00634

>  <r_i_glide_ligand_efficiency>  (62) 
-0.120254

>  <r_i_glide_ligand_efficiency_sa>  (62) 
-0.351624

>  <r_i_glide_ligand_efficiency_ln>  (62) 
-0.712593

>  <r_i_glide_gscore>  (62) 
-3.00634

>  <r_i_glide_lipo>  (62) 
-0.276926

>  <r_i_glide_hbond>  (62) 
0

>  <r_i_glide_metal>  (62) 
-0

>  <r_i_glide_rewards>  (62) 
-1.12987

>  <r_i_glide_evdw>  (62) 
-24.2773

>  <r_i_glide_ecoul>  (62) 
-4.37744

>  <r_i_glide_erotb>  (62) 
0.321667

>  <r_i_glide_esite>  (62) 
-0.0507352

>  <r_i_glide_emodel>  (62) 
-31.0066

>  <r_i_glide_energy>  (62) 
-28.6547

>  <r_i_glide_einternal>  (62) 
4.59181

>  <r_i_glide_intrahb_reward>  (62) 
-0

>  <i_i_glide_confnum>  (62) 
3

>  <i_i_glide_posenum>  (62) 
38

>  <r_i_glide_eff_state_penalty>  (62) 
0

>  <ligand_id>  (62) 
5

>  <original_smiles>  (62) 
CN1CCC(N2CCC3(CC2)C(=O)N(C)CC3c2ccccn2)CC1

>  <smiles>  (62) 
[H]c1nc(C2([H])C([H])([H])N(C([H])([H])[H])C(=O)C23C([H])([H])C([H])([H])[N+]([H])(C2([H])C([H])([H])C([H])([H])N(C([H])([H])[H])C([H])([H])C2([H])[H])C([H])([H])C3([H])[H])c([H])c([H])c1[H]

$$$$
5:3:2
     RDKit          3D

 56 59  0  0  1  0  0  0  0  0999 V2000
    1.6217    4.1504    3.2830 C   0  0  0  0  0  0  0  0  0  0  0  0
    1.8038    2.7106    3.3750 N   0  0  0  0  0  0  0  0  0  0  0  0
    1.2981    2.0941    2.1451 C   0  0  0  0  0  0  0  0  0  0  0  0
    1.5749    0.5870    2.1760 C   0  0  0  0  0  0  0  0  0  0  0  0
    0.9391   -0.0336    3.4270 C   0  0  0  0  0  0  0  0  0  0  0  0
    1.2209   -1.4935    3.5319 N   0  0  1  0  0  0  0  0  0  0  0  0
    2.6525   -1.8284    3.8508 C   0  0  0  0  0  0  0  0  0  0  0  0
    2.8924   -3.3504    3.8309 C   0  0  0  0  0  0  0  0  0  0  0  0
    1.9194   -4.1003    4.7969 C   0  0  2  0  0  0  0  0  0  0  0  0
    0.4765   -3.6550    4.4291 C   0  0  0  0  0  0  0  0  0  0  0  0
    0.2489   -2.1456    4.4505 C   0  0  0  0  0  0  0  0  0  0  0  0
    2.2280   -3.7876    6.2640 C   0  0  0  0  0  0  0  0  0  0  0  0
    2.2898   -2.6394    6.6996 O   0  0  0  0  0  0  0  0  0  0  0  0
    2.3962   -4.8914    6.9845 N   0  0  0  0  0  0  0  0  0  0  0  0
    2.4978   -4.9193    8.4462 C   0  0  0  0  0  0  0  0  0  0  0  0
    2.2563   -6.1162    6.2019 C   0  0  0  0  0  0  0  0  0  0  0  0
    2.1181   -5.6352    4.7212 C   0  0  1  0  0  0  0  0  0  0  0  0
    1.0885   -6.4261    3.8854 C   0  0  0  0  0  0  0  0  0  0  0  0
    1.3252   -6.7879    2.5394 C   0  0  0  0  0  0  0  0  0  0  0  0
    0.3104   -7.4624    1.8256 C   0  0  0  0  0  0  0  0  0  0  0  0
   -0.9066   -7.7221    2.4771 C   0  0  0  0  0  0  0  0  0  0  0  0
   -1.0532   -7.3289    3.8195 C   0  0  0  0  0  0  0  0  0  0  0  0
   -0.0875   -6.6927    4.4983 N   0  0  0  0  0  0  0  0  0  0  0  0
    1.3424    0.7454    4.7027 C   0  0  0  0  0  0  0  0  0  0  0  0
    1.0632    2.2314    4.5358 C   0  0  0  0  0  0  0  0  0  0  0  0
    2.1862    4.5482    2.4412 H   0  0  0  0  0  0  0  0  0  0  0  0
    1.9781    4.6265    4.1959 H   0  0  0  0  0  0  0  0  0  0  0  0
    0.5691    4.3963    3.1479 H   0  0  0  0  0  0  0  0  0  0  0  0
    0.2277    2.2870    2.0306 H   0  0  0  0  0  0  0  0  0  0  0  0
    1.8125    2.5239    1.2853 H   0  0  0  0  0  0  0  0  0  0  0  0
    1.1618    0.1102    1.2816 H   0  0  0  0  0  0  0  0  0  0  0  0
    2.6543    0.4445    2.1455 H   0  0  0  0  0  0  0  0  0  0  0  0
   -0.1391    0.0728    3.2903 H   0  0  0  0  0  0  0  0  0  0  0  0
    3.3188   -1.3775    3.1059 H   0  0  0  0  0  0  0  0  0  0  0  0
    2.9453   -1.4230    4.8242 H   0  0  0  0  0  0  0  0  0  0  0  0
    2.7937   -3.7082    2.8060 H   0  0  0  0  0  0  0  0  0  0  0  0
    3.9301   -3.5397    4.1027 H   0  0  0  0  0  0  0  0  0  0  0  0
    0.2104   -4.0127    3.4368 H   0  0  0  0  0  0  0  0  0  0  0  0
   -0.2353   -4.0883    5.1377 H   0  0  0  0  0  0  0  0  0  0  0  0
    0.3474   -1.7682    5.4784 H   0  0  0  0  0  0  0  0  0  0  0  0
   -0.7898   -1.9515    4.1093 H   0  0  0  0  0  0  0  0  0  0  0  0
    2.4953   -3.9066    8.8507 H   0  0  0  0  0  0  0  0  0  0  0  0
    3.4386   -5.3833    8.7309 H   0  0  0  0  0  0  0  0  0  0  0  0
    1.6490   -5.4352    8.8960 H   0  0  0  0  0  0  0  0  0  0  0  0
    3.1365   -6.7729    6.3147 H   0  0  0  0  0  0  0  0  0  0  0  0
    1.3614   -6.6498    6.5528 H   0  0  0  0  0  0  0  0  0  0  0  0
    3.1183   -5.8239    4.3047 H   0  0  0  0  0  0  0  0  0  0  0  0
    2.2554   -6.5411    2.0505 H   0  0  0  0  0  0  0  0  0  0  0  0
    0.4493   -7.7401    0.7974 H   0  0  0  0  0  0  0  0  0  0  0  0
   -1.7083   -8.2492    1.9674 H   0  0  0  0  0  0  0  0  0  0  0  0
   -1.9748   -7.4950    4.3479 H   0  0  0  0  0  0  0  0  0  0  0  0
    0.8029    0.3958    5.5878 H   0  0  0  0  0  0  0  0  0  0  0  0
    2.4095    0.6572    4.9176 H   0  0  0  0  0  0  0  0  0  0  0  0
    1.4276    2.7317    5.4379 H   0  0  0  0  0  0  0  0  0  0  0  0
   -0.0114    2.4262    4.4432 H   0  0  0  0  0  0  0  0  0  0  0  0
    1.0361   -1.8903    2.6147 H   0  0  0  0  0  0  0  0  0  0  0  0
  1  2  1  0
  1 26  1  0
  1 27  1  0
  1 28  1  0
  2 25  1  0
  2  3  1  0
  3  4  1  0
  3 29  1  0
  3 30  1  0
  4  5  1  0
  4 31  1  0
  4 32  1  0
  5  6  1  0
  5 24  1  0
  5 33  1  0
  6 11  1  0
  6  7  1  0
  6 56  1  6
  7  8  1  0
  7 34  1  0
  7 35  1  0
  9  8  1  6
  8 36  1  0
  8 37  1  0
  9 17  1  0
  9 10  1  0
  9 12  1  0
 10 11  1  0
 10 38  1  0
 10 39  1  0
 11 40  1  0
 11 41  1  0
 12 13  2  0
 12 14  1  0
 14 15  1  0
 14 16  1  0
 15 42  1  0
 15 43  1  0
 15 44  1  0
 16 17  1  0
 16 45  1  0
 16 46  1  0
 17 18  1  0
 17 47  1  6
 18 23  1  0
 18 19  2  0
 19 20  1  0
 19 48  1  0
 20 21  2  0
 20 49  1  0
 21 22  1  0
 21 50  1  0
 22 23  2  0
 22 51  1  0
 24 25  1  0
 24 52  1  0
 24 53  1  0
 25 54  1  0
 25 55  1  0
M  CHG  1   6   1
M  END
>  <i_m_ct_stereo_status>  (63) 
1

>  <s_m_source_file>  (63) 
/var/tmp/pbs.5076255.sched01/tmp6mrmgolx/06cp14zw5.sdf

>  <i_m_source_file_index>  (63) 
21

>  <i_lp_mmshare_version>  (63) 
48012

>  <i_f3d_flags>  (63) 
0

>  <s_epik_input>  (63) 
W0NIM11OMVtDSDJdW0NIMl1bQ0hdKFtDSDJdW0NIMl0xKU4oW0NIMl1bQ0gyXTIpW0NIMl1bQ0gyXUMyM0MoPU8pTihbQ0gzXSlbQ0gyXVtDQEhdM2M0W2NIXVtjSF1bY0hdW2NIXW40

>  <s_epik_cmdline>  (63) 
J2VwaWtfcHl0aG9uJywgJy1waHQnLCAnMi4wJywgJy1waCcsICc3LjAnLCAnLXRuJywgJzgnLCAnLW1hJywgJzIwMCcsICctaW1hZScsICc8aW5maWxlLm1hZT4nLCAnLW9tYWUnLCAnPG91dGZpbGUubWFlPic=

>  <r_epik_Ionization_Penalty>  (63) 
1.3932

>  <r_epik_Ionization_Penalty_Charging>  (63) 
0.0022902

>  <r_epik_Ionization_Penalty_Neutral>  (63) 
1.39091

>  <r_epik_State_Penalty>  (63) 
1.75872

>  <r_epik_Charging_Adjusted_Penalty>  (63) 
1.76101

>  <i_epik_Tot_Q>  (63) 
1

>  <i_epik_Tot_abs_Q>  (63) 
1

>  <s_lp_Force_Field>  (63) 
OPLS3e

>  <r_lp_Energy>  (63) 
38.856

>  <b_lp_Chiralities_Consistent>  (63) 
1

>  <s_lp_Variant>  (63) 
5:0-4

>  <s_i_glide_gridfile>  (63) 
pfpi4k_grid

>  <i_i_glide_lignum>  (63) 
21

>  <i_i_glide_rotatable_bonds>  (63) 
2

>  <r_i_docking_score>  (63) 
-2.45207

>  <r_i_glide_ligand_efficiency>  (63) 
-0.0980828

>  <r_i_glide_ligand_efficiency_sa>  (63) 
-0.286796

>  <r_i_glide_ligand_efficiency_ln>  (63) 
-0.581214

>  <r_i_glide_gscore>  (63) 
-2.45207

>  <r_i_glide_lipo>  (63) 
-0.0626124

>  <r_i_glide_hbond>  (63) 
0

>  <r_i_glide_metal>  (63) 
-0

>  <r_i_glide_rewards>  (63) 
-1.06714

>  <r_i_glide_evdw>  (63) 
-19.4326

>  <r_i_glide_ecoul>  (63) 
-4.4599

>  <r_i_glide_erotb>  (63) 
0.321667

>  <r_i_glide_esite>  (63) 
-0.0033713

>  <r_i_glide_emodel>  (63) 
-28.1471

>  <r_i_glide_energy>  (63) 
-23.8925

>  <r_i_glide_einternal>  (63) 
0.144636

>  <r_i_glide_intrahb_reward>  (63) 
-0

>  <i_i_glide_confnum>  (63) 
3

>  <i_i_glide_posenum>  (63) 
4

>  <r_i_glide_eff_state_penalty>  (63) 
0

>  <ligand_id>  (63) 
5

>  <original_smiles>  (63) 
CN1CCC(N2CCC3(CC2)C(=O)N(C)CC3c2ccccn2)CC1

>  <smiles>  (63) 
[H]c1nc(C2([H])C([H])([H])N(C([H])([H])[H])C(=O)C23C([H])([H])C([H])([H])[N+]([H])(C2([H])C([H])([H])C([H])([H])N(C([H])([H])[H])C([H])([H])C2([H])[H])C([H])([H])C3([H])[H])c([H])c([H])c1[H]

$$$$
6:0:0
     RDKit          3D

 49 52  0  0  1  0  0  0  0  0999 V2000
   -0.7847   -8.6449    4.4252 C   0  0  0  0  0  0  0  0  0  0  0  0
   -0.3338   -8.7225    2.9528 C   0  0  2  0  0  0  0  0  0  0  0  0
    1.1337   -9.1399    2.8193 C   0  0  0  0  0  0  0  0  0  0  0  0
    2.0510   -8.0237    3.3325 C   0  0  0  0  0  0  0  0  0  0  0  0
    1.7168   -6.6758    2.6633 C   0  0  1  0  0  0  0  0  0  0  0  0
    2.4825   -5.5118    3.3682 C   0  0  0  0  0  0  0  0  0  0  0  0
    2.2629   -4.2581    2.5166 C   0  0  1  0  0  0  0  0  0  0  0  0
    2.8699   -2.9139    2.8101 C   0  0  0  0  0  0  0  0  0  0  0  0
    3.1547   -2.2655    1.6888 C   0  0  0  0  0  0  0  0  0  0  0  0
    3.6014   -0.7964    1.5741 C   0  0  0  0  0  0  0  0  0  0  0  0
    5.0407   -0.6621    1.0529 C   0  0  0  0  0  0  0  0  0  0  0  0
    3.4904   -0.0157    2.9033 C   0  0  0  0  0  0  0  0  0  0  0  0
    2.7590   -3.1120    0.4661 C   0  0  1  0  0  0  0  0  0  0  0  0
    3.7011   -3.2702   -0.7375 C   0  0  0  0  0  0  0  0  0  0  0  0
    4.6924   -4.3904   -0.4058 C   0  0  0  0  0  0  0  0  0  0  0  0
    4.2398   -4.9370    0.9450 C   0  0  0  0  0  0  0  0  0  0  0  0
    2.7474   -4.5126    1.0945 C   0  0  1  0  0  0  0  0  0  0  0  0
    1.8588   -5.4899    0.5817 O   0  0  0  0  0  0  0  0  0  0  0  0
    2.1771   -6.7719    1.3086 O   0  0  0  0  0  0  0  0  0  0  0  0
    0.3112   -6.3761    2.7545 O   0  0  0  0  0  0  0  0  0  0  0  0
   -0.5524   -7.3804    2.2284 C   0  0  0  0  0  0  0  0  0  0  0  0
   -0.2600   -7.8688    4.9761 H   0  0  0  0  0  0  0  0  0  0  0  0
   -0.5827   -9.5818    4.9454 H   0  0  0  0  0  0  0  0  0  0  0  0
   -1.8470   -8.4365    4.5105 H   0  0  0  0  0  0  0  0  0  0  0  0
   -0.9399   -9.4775    2.4501 H   0  0  0  0  0  0  0  0  0  0  0  0
    1.3210  -10.0640    3.3696 H   0  0  0  0  0  0  0  0  0  0  0  0
    1.3625   -9.3606    1.7723 H   0  0  0  0  0  0  0  0  0  0  0  0
    1.9458   -7.9334    4.4163 H   0  0  0  0  0  0  0  0  0  0  0  0
    3.0935   -8.2816    3.1480 H   0  0  0  0  0  0  0  0  0  0  0  0
    2.0975   -5.3611    4.3810 H   0  0  0  0  0  0  0  0  0  0  0  0
    3.5450   -5.7452    3.4618 H   0  0  0  0  0  0  0  0  0  0  0  0
    1.1918   -4.0618    2.5035 H   0  0  0  0  0  0  0  0  0  0  0  0
    2.9326   -2.5338    3.8247 H   0  0  0  0  0  0  0  0  0  0  0  0
    2.9140   -0.3277    0.8721 H   0  0  0  0  0  0  0  0  0  0  0  0
    5.1813   -1.0623    0.0550 H   0  0  0  0  0  0  0  0  0  0  0  0
    5.7431   -1.1758    1.7107 H   0  0  0  0  0  0  0  0  0  0  0  0
    5.3374    0.3839    0.9804 H   0  0  0  0  0  0  0  0  0  0  0  0
    2.4741    0.0056    3.3003 H   0  0  0  0  0  0  0  0  0  0  0  0
    3.7871    1.0235    2.7528 H   0  0  0  0  0  0  0  0  0  0  0  0
    4.1506   -0.4208    3.6718 H   0  0  0  0  0  0  0  0  0  0  0  0
    1.7804   -2.7810    0.1324 H   0  0  0  0  0  0  0  0  0  0  0  0
    3.0886   -3.6556   -1.5510 H   0  0  0  0  0  0  0  0  0  0  0  0
    4.1482   -2.3607   -1.1538 H   0  0  0  0  0  0  0  0  0  0  0  0
    4.6179   -5.1839   -1.1489 H   0  0  0  0  0  0  0  0  0  0  0  0
    5.7293   -4.0564   -0.3878 H   0  0  0  0  0  0  0  0  0  0  0  0
    4.4406   -6.0012    1.0662 H   0  0  0  0  0  0  0  0  0  0  0  0
    4.8368   -4.4408    1.7072 H   0  0  0  0  0  0  0  0  0  0  0  0
   -0.3906   -7.4848    1.1537 H   0  0  0  0  0  0  0  0  0  0  0  0
   -1.5826   -7.0606    2.3628 H   0  0  0  0  0  0  0  0  0  0  0  0
  1  2  1  0
  1 22  1  0
  1 23  1  0
  1 24  1  0
  2 21  1  0
  2  3  1  0
  2 25  1  6
  3  4  1  0
  3 26  1  0
  3 27  1  0
  4  5  1  0
  4 28  1  0
  4 29  1  0
  5 19  1  6
  5  6  1  0
  5 20  1  0
  6  7  1  0
  6 30  1  0
  6 31  1  0
  7 17  1  0
  7  8  1  0
  7 32  1  6
  8  9  2  0
  8 33  1  0
  9 10  1  0
  9 13  1  0
 10 11  1  0
 10 12  1  0
 10 34  1  0
 11 35  1  0
 11 36  1  0
 11 37  1  0
 12 38  1  0
 12 39  1  0
 12 40  1  0
 13 17  1  0
 13 14  1  0
 13 41  1  6
 14 15  1  0
 14 42  1  0
 14 43  1  0
 15 16  1  0
 15 44  1  0
 15 45  1  0
 16 17  1  0
 16 46  1  0
 16 47  1  0
 17 18  1  6
 18 19  1  0
 20 21  1  0
 21 48  1  0
 21 49  1  0
M  END
>  <i_m_ct_stereo_status>  (64) 
1

>  <s_m_source_file>  (64) 
/var/tmp/pbs.5076255.sched01/tmp6mrmgolx/06cp14zw5.sdf

>  <i_m_source_file_index>  (64) 
22

>  <i_lp_mmshare_version>  (64) 
48012

>  <i_f3d_flags>  (64) 
0

>  <s_epik_input>  (64) 
TzFbQ0gyXVtDQEhdKFtDSDNdKVtDSDJdW0NIMl1bQ0BdMTJbQ0gyXVtDQEBIXTNbQ0BAXTQoT08yKVtDQEBIXShDKD1bQ0hdMylbQ0hdKFtDSDNdKVtDSDNdKVtDSDJdW0NIMl1bQ0gyXTQ=

>  <s_epik_cmdline>  (64) 
J2VwaWtfcHl0aG9uJywgJy1waHQnLCAnMi4wJywgJy1waCcsICc3LjAnLCAnLXRuJywgJzgnLCAnLW1hJywgJzIwMCcsICctaW1hZScsICc8aW5maWxlLm1hZT4nLCAnLW9tYWUnLCAnPG91dGZpbGUubWFlPic=

>  <r_lp_tautomer_probability>  (64) 
1

>  <r_epik_Ionization_Penalty>  (64) 
1.87997e-13

>  <r_epik_Ionization_Penalty_Charging>  (64) 
0

>  <r_epik_Ionization_Penalty_Neutral>  (64) 
1.87997e-13

>  <r_epik_State_Penalty>  (64) 
-0

>  <r_epik_Charging_Adjusted_Penalty>  (64) 
0

>  <i_epik_Tot_Q>  (64) 
0

>  <i_epik_Tot_abs_Q>  (64) 
0

>  <s_lp_Force_Field>  (64) 
OPLS3e

>  <r_lp_Energy>  (64) 
22.0661

>  <b_lp_Chiralities_Consistent>  (64) 
1

>  <s_lp_Variant>  (64) 
6:0-1

>  <s_i_glide_gridfile>  (64) 
pfpi4k_grid

>  <i_i_glide_lignum>  (64) 
22

>  <i_i_glide_rotatable_bonds>  (64) 
1

>  <r_i_docking_score>  (64) 
-3.14612

>  <r_i_glide_ligand_efficiency>  (64) 
-0.149815

>  <r_i_glide_ligand_efficiency_sa>  (64) 
-0.413329

>  <r_i_glide_ligand_efficiency_ln>  (64) 
-0.777873

>  <r_i_glide_gscore>  (64) 
-3.14612

>  <r_i_glide_lipo>  (64) 
-0.243227

>  <r_i_glide_hbond>  (64) 
-0.18293

>  <r_i_glide_metal>  (64) 
-0

>  <r_i_glide_rewards>  (64) 
-1.41537

>  <r_i_glide_evdw>  (64) 
-18.4537

>  <r_i_glide_ecoul>  (64) 
-2.41472

>  <r_i_glide_erotb>  (64) 
0

>  <r_i_glide_esite>  (64) 
-0.0197091

>  <r_i_glide_emodel>  (64) 
-24.536

>  <r_i_glide_energy>  (64) 
-20.8684

>  <r_i_glide_einternal>  (64) 
0.381338

>  <r_i_glide_intrahb_reward>  (64) 
-0

>  <i_i_glide_confnum>  (64) 
3

>  <i_i_glide_posenum>  (64) 
29

>  <r_i_glide_eff_state_penalty>  (64) 
0

>  <ligand_id>  (64) 
6

>  <original_smiles>  (64) 
CC1CCC2(CC3C=C(C(C)C)C4CCCC34OO2)OC1

>  <smiles>  (64) 
[H]C1=C(C([H])(C([H])([H])[H])C([H])([H])[H])C2([H])C([H])([H])C([H])([H])C([H])([H])C23OOC2(OC([H])([H])C([H])(C([H])([H])[H])C([H])([H])C2([H])[H])C([H])([H])C13[H]

$$$$
6:0:1
     RDKit          3D

 49 52  0  0  1  0  0  0  0  0999 V2000
   -1.3931   -8.1246    4.2988 C   0  0  0  0  0  0  0  0  0  0  0  0
   -0.8086   -8.4260    2.8990 C   0  0  2  0  0  0  0  0  0  0  0  0
    0.5760   -9.0774    2.9661 C   0  0  0  0  0  0  0  0  0  0  0  0
    1.6108   -8.0730    3.4900 C   0  0  0  0  0  0  0  0  0  0  0  0
    1.5614   -6.7507    2.6917 C   0  0  1  0  0  0  0  0  0  0  0  0
    2.4345   -5.6565    3.3862 C   0  0  0  0  0  0  0  0  0  0  0  0
    2.4985   -4.4612    2.4249 C   0  0  1  0  0  0  0  0  0  0  0  0
    3.2888   -3.2058    2.6857 C   0  0  0  0  0  0  0  0  0  0  0  0
    3.7707   -2.7035    1.5299 C   0  0  0  0  0  0  0  0  0  0  0  0
    4.4639   -1.3559    1.4070 C   0  0  0  0  0  0  0  0  0  0  0  0
    3.6971   -0.4084    0.4834 C   0  0  0  0  0  0  0  0  0  0  0  0
    5.9515   -1.4576    1.0272 C   0  0  0  0  0  0  0  0  0  0  0  0
    3.3432   -3.5901    0.3530 C   0  0  1  0  0  0  0  0  0  0  0  0
    4.3959   -3.9740   -0.7058 C   0  0  0  0  0  0  0  0  0  0  0  0
    5.1350   -5.2162   -0.1954 C   0  0  0  0  0  0  0  0  0  0  0  0
    4.4659   -5.5743    1.1274 C   0  0  0  0  0  0  0  0  0  0  0  0
    3.0642   -4.9143    1.0862 C   0  0  1  0  0  0  0  0  0  0  0  0
    2.0823   -5.7800    0.5598 O   0  0  0  0  0  0  0  0  0  0  0  0
    2.1277   -7.0371    1.4028 O   0  0  0  0  0  0  0  0  0  0  0  0
    0.2186   -6.2502    2.6056 O   0  0  0  0  0  0  0  0  0  0  0  0
   -0.7306   -7.1503    2.0552 C   0  0  0  0  0  0  0  0  0  0  0  0
   -0.8045   -7.3935    4.8496 H   0  0  0  0  0  0  0  0  0  0  0  0
   -1.4366   -9.0134    4.9228 H   0  0  0  0  0  0  0  0  0  0  0  0
   -2.4007   -7.7209    4.2092 H   0  0  0  0  0  0  0  0  0  0  0  0
   -1.4796   -9.1243    2.3923 H   0  0  0  0  0  0  0  0  0  0  0  0
    0.5512   -9.9648    3.5971 H   0  0  0  0  0  0  0  0  0  0  0  0
    0.8620   -9.4140    1.9650 H   0  0  0  0  0  0  0  0  0  0  0  0
    1.4155   -7.8651    4.5473 H   0  0  0  0  0  0  0  0  0  0  0  0
    2.6152   -8.5076    3.4347 H   0  0  0  0  0  0  0  0  0  0  0  0
    1.9817   -5.3568    4.3320 H   0  0  0  0  0  0  0  0  0  0  0  0
    3.4332   -6.0358    3.6177 H   0  0  0  0  0  0  0  0  0  0  0  0
    1.4825   -4.0967    2.2806 H   0  0  0  0  0  0  0  0  0  0  0  0
    3.3522   -2.7425    3.6512 H   0  0  0  0  0  0  0  0  0  0  0  0
    4.4352   -0.9064    2.4007 H   0  0  0  0  0  0  0  0  0  0  0  0
    2.6922   -0.2105    0.8615 H   0  0  0  0  0  0  0  0  0  0  0  0
    3.6023   -0.8127   -0.5253 H   0  0  0  0  0  0  0  0  0  0  0  0
    4.2161    0.5477    0.4187 H   0  0  0  0  0  0  0  0  0  0  0  0
    6.4930   -2.1026    1.7189 H   0  0  0  0  0  0  0  0  0  0  0  0
    6.4208   -0.4754    1.0569 H   0  0  0  0  0  0  0  0  0  0  0  0
    6.1109   -1.8347    0.0235 H   0  0  0  0  0  0  0  0  0  0  0  0
    2.4427   -3.1598   -0.0946 H   0  0  0  0  0  0  0  0  0  0  0  0
    3.8216   -4.2911   -1.5724 H   0  0  0  0  0  0  0  0  0  0  0  0
    5.0462   -3.1918   -1.0826 H   0  0  0  0  0  0  0  0  0  0  0  0
    4.9961   -6.0443   -0.8882 H   0  0  0  0  0  0  0  0  0  0  0  0
    6.2090   -5.0660   -0.0683 H   0  0  0  0  0  0  0  0  0  0  0  0
    4.4846   -6.6423    1.3478 H   0  0  0  0  0  0  0  0  0  0  0  0
    5.0588   -5.1144    1.9217 H   0  0  0  0  0  0  0  0  0  0  0  0
   -0.4949   -7.3772    1.0105 H   0  0  0  0  0  0  0  0  0  0  0  0
   -1.7058   -6.6650    2.0911 H   0  0  0  0  0  0  0  0  0  0  0  0
  1  2  1  0
  1 22  1  0
  1 23  1  0
  1 24  1  0
  2 21  1  0
  2  3  1  0
  2 25  1  6
  3  4  1  0
  3 26  1  0
  3 27  1  0
  4  5  1  0
  4 28  1  0
  4 29  1  0
  5 19  1  6
  5  6  1  0
  5 20  1  0
  6  7  1  0
  6 30  1  0
  6 31  1  0
  7 17  1  0
  7  8  1  0
  7 32  1  6
  8  9  2  0
  8 33  1  0
  9 10  1  0
  9 13  1  0
 10 11  1  0
 10 12  1  0
 10 34  1  0
 11 35  1  0
 11 36  1  0
 11 37  1  0
 12 38  1  0
 12 39  1  0
 12 40  1  0
 13 17  1  0
 13 14  1  0
 13 41  1  6
 14 15  1  0
 14 42  1  0
 14 43  1  0
 15 16  1  0
 15 44  1  0
 15 45  1  0
 16 17  1  0
 16 46  1  0
 16 47  1  0
 17 18  1  6
 18 19  1  0
 20 21  1  0
 21 48  1  0
 21 49  1  0
M  END
>  <i_m_ct_stereo_status>  (65) 
1

>  <s_m_source_file>  (65) 
/var/tmp/pbs.5076255.sched01/tmp6mrmgolx/06cp14zw5.sdf

>  <i_m_source_file_index>  (65) 
22

>  <i_lp_mmshare_version>  (65) 
48012

>  <i_f3d_flags>  (65) 
0

>  <s_epik_input>  (65) 
TzFbQ0gyXVtDQEhdKFtDSDNdKVtDSDJdW0NIMl1bQ0BdMTJbQ0gyXVtDQEBIXTNbQ0BAXTQoT08yKVtDQEBIXShDKD1bQ0hdMylbQ0hdKFtDSDNdKVtDSDNdKVtDSDJdW0NIMl1bQ0gyXTQ=

>  <s_epik_cmdline>  (65) 
J2VwaWtfcHl0aG9uJywgJy1waHQnLCAnMi4wJywgJy1waCcsICc3LjAnLCAnLXRuJywgJzgnLCAnLW1hJywgJzIwMCcsICctaW1hZScsICc8aW5maWxlLm1hZT4nLCAnLW9tYWUnLCAnPG91dGZpbGUubWFlPic=

>  <r_lp_tautomer_probability>  (65) 
1

>  <r_epik_Ionization_Penalty>  (65) 
1.87997e-13

>  <r_epik_Ionization_Penalty_Charging>  (65) 
0

>  <r_epik_Ionization_Penalty_Neutral>  (65) 
1.87997e-13

>  <r_epik_State_Penalty>  (65) 
-0

>  <r_epik_Charging_Adjusted_Penalty>  (65) 
0

>  <i_epik_Tot_Q>  (65) 
0

>  <i_epik_Tot_abs_Q>  (65) 
0

>  <s_lp_Force_Field>  (65) 
OPLS3e

>  <r_lp_Energy>  (65) 
22.0661

>  <b_lp_Chiralities_Consistent>  (65) 
1

>  <s_lp_Variant>  (65) 
6:0-1

>  <s_i_glide_gridfile>  (65) 
pfpi4k_grid

>  <i_i_glide_lignum>  (65) 
22

>  <i_i_glide_rotatable_bonds>  (65) 
1

>  <r_i_docking_score>  (65) 
-3.08708

>  <r_i_glide_ligand_efficiency>  (65) 
-0.147004

>  <r_i_glide_ligand_efficiency_sa>  (65) 
-0.405572

>  <r_i_glide_ligand_efficiency_ln>  (65) 
-0.763274

>  <r_i_glide_gscore>  (65) 
-3.08708

>  <r_i_glide_lipo>  (65) 
-0.226

>  <r_i_glide_hbond>  (65) 
-0.137338

>  <r_i_glide_metal>  (65) 
-0

>  <r_i_glide_rewards>  (65) 
-1.41537

>  <r_i_glide_evdw>  (65) 
-19.0646

>  <r_i_glide_ecoul>  (65) 
-2.21438

>  <r_i_glide_erotb>  (65) 
0

>  <r_i_glide_esite>  (65) 
-0.022985

>  <r_i_glide_emodel>  (65) 
-24.836

>  <r_i_glide_energy>  (65) 
-21.279

>  <r_i_glide_einternal>  (65) 
0.573573

>  <r_i_glide_intrahb_reward>  (65) 
-0

>  <i_i_glide_confnum>  (65) 
3

>  <i_i_glide_posenum>  (65) 
17

>  <r_i_glide_eff_state_penalty>  (65) 
0

>  <ligand_id>  (65) 
6

>  <original_smiles>  (65) 
CC1CCC2(CC3C=C(C(C)C)C4CCCC34OO2)OC1

>  <smiles>  (65) 
[H]C1=C(C([H])(C([H])([H])[H])C([H])([H])[H])C2([H])C([H])([H])C([H])([H])C([H])([H])C23OOC2(OC([H])([H])C([H])(C([H])([H])[H])C([H])([H])C2([H])[H])C([H])([H])C13[H]

$$$$
6:0:2
     RDKit          3D

 49 52  0  0  1  0  0  0  0  0999 V2000
   -1.0589   -8.4869    4.2268 C   0  0  0  0  0  0  0  0  0  0  0  0
   -0.5446   -8.6064    2.7781 C   0  0  2  0  0  0  0  0  0  0  0  0
    0.8676   -9.1929    2.7215 C   0  0  0  0  0  0  0  0  0  0  0  0
    1.8837   -8.1939    3.2794 C   0  0  0  0  0  0  0  0  0  0  0  0
    1.7233   -6.7904    2.6181 C   0  0  1  0  0  0  0  0  0  0  0  0
    2.5929   -5.7438    3.3465 C   0  0  0  0  0  0  0  0  0  0  0  0
    2.5439   -4.4746    2.4983 C   0  0  1  0  0  0  0  0  0  0  0  0
    3.2687   -3.2003    2.8416 C   0  0  0  0  0  0  0  0  0  0  0  0
    3.6563   -2.5721    1.7276 C   0  0  0  0  0  0  0  0  0  0  0  0
    4.3292   -1.1909    1.6683 C   0  0  0  0  0  0  0  0  0  0  0  0
    4.4557   -0.5188    3.0475 C   0  0  0  0  0  0  0  0  0  0  0  0
    3.6058   -0.2578    0.6897 C   0  0  0  0  0  0  0  0  0  0  0  0
    3.2420   -3.3765    0.4884 C   0  0  1  0  0  0  0  0  0  0  0  0
    4.2962   -3.5733   -0.6283 C   0  0  0  0  0  0  0  0  0  0  0  0
    5.0884   -4.8471   -0.3027 C   0  0  0  0  0  0  0  0  0  0  0  0
    4.5073   -5.3583    1.0117 C   0  0  0  0  0  0  0  0  0  0  0  0
    3.0759   -4.7841    1.0996 C   0  0  1  0  0  0  0  0  0  0  0  0
    2.1157   -5.6341    0.5366 O   0  0  0  0  0  0  0  0  0  0  0  0
    2.2268   -6.9722    1.2708 O   0  0  0  0  0  0  0  0  0  0  0  0
    0.3717   -6.3580    2.6418 O   0  0  0  0  0  0  0  0  0  0  0  0
   -0.5681   -7.2528    2.0539 C   0  0  0  0  0  0  0  0  0  0  0  0
   -0.4764   -7.7698    4.8062 H   0  0  0  0  0  0  0  0  0  0  0  0
   -0.9829   -9.4435    4.7326 H   0  0  0  0  0  0  0  0  0  0  0  0
   -2.0974   -8.1497    4.2593 H   0  0  0  0  0  0  0  0  0  0  0  0
   -1.2067   -9.2894    2.2392 H   0  0  0  0  0  0  0  0  0  0  0  0
    0.9223  -10.1343    3.2642 H   0  0  0  0  0  0  0  0  0  0  0  0
    1.1271   -9.4348    1.6814 H   0  0  0  0  0  0  0  0  0  0  0  0
    1.7449   -8.0966    4.3613 H   0  0  0  0  0  0  0  0  0  0  0  0
    2.9008   -8.5676    3.1269 H   0  0  0  0  0  0  0  0  0  0  0  0
    2.1886   -5.5479    4.3453 H   0  0  0  0  0  0  0  0  0  0  0  0
    3.6190   -6.0939    3.4865 H   0  0  0  0  0  0  0  0  0  0  0  0
    1.5056   -4.1583    2.4235 H   0  0  0  0  0  0  0  0  0  0  0  0
    3.3688   -2.8608    3.8580 H   0  0  0  0  0  0  0  0  0  0  0  0
    5.3350   -1.3585    1.2904 H   0  0  0  0  0  0  0  0  0  0  0  0
    5.0437   -1.1188    3.7467 H   0  0  0  0  0  0  0  0  0  0  0  0
    3.4793   -0.3316    3.5011 H   0  0  0  0  0  0  0  0  0  0  0  0
    4.9543    0.4520    2.9704 H   0  0  0  0  0  0  0  0  0  0  0  0
    3.5456   -0.6746   -0.3141 H   0  0  0  0  0  0  0  0  0  0  0  0
    4.1500    0.6869    0.6171 H   0  0  0  0  0  0  0  0  0  0  0  0
    2.5909   -0.0334    1.0222 H   0  0  0  0  0  0  0  0  0  0  0  0
    2.3141   -2.9635    0.1047 H   0  0  0  0  0  0  0  0  0  0  0  0
    3.7357   -3.8079   -1.5403 H   0  0  0  0  0  0  0  0  0  0  0  0
    4.9119   -2.7098   -0.8299 H   0  0  0  0  0  0  0  0  0  0  0  0
    4.9322   -5.5969   -1.0754 H   0  0  0  0  0  0  0  0  0  0  0  0
    6.1678   -4.6662   -0.2342 H   0  0  0  0  0  0  0  0  0  0  0  0
    4.5826   -6.4404    1.1176 H   0  0  0  0  0  0  0  0  0  0  0  0
    5.1236   -4.9412    1.8134 H   0  0  0  0  0  0  0  0  0  0  0  0
   -0.3732   -7.3740    0.9804 H   0  0  0  0  0  0  0  0  0  0  0  0
   -1.5638   -6.8172    2.1384 H   0  0  0  0  0  0  0  0  0  0  0  0
  1  2  1  0
  1 22  1  0
  1 23  1  0
  1 24  1  0
  2 21  1  0
  2  3  1  0
  2 25  1  6
  3  4  1  0
  3 26  1  0
  3 27  1  0
  4  5  1  0
  4 28  1  0
  4 29  1  0
  5 19  1  6
  5  6  1  0
  5 20  1  0
  6  7  1  0
  6 30  1  0
  6 31  1  0
  7 17  1  0
  7  8  1  0
  7 32  1  6
  8  9  2  0
  8 33  1  0
  9 10  1  0
  9 13  1  0
 10 11  1  0
 10 12  1  0
 10 34  1  0
 11 35  1  0
 11 36  1  0
 11 37  1  0
 12 38  1  0
 12 39  1  0
 12 40  1  0
 13 17  1  0
 13 14  1  0
 13 41  1  6
 14 15  1  0
 14 42  1  0
 14 43  1  0
 15 16  1  0
 15 44  1  0
 15 45  1  0
 16 17  1  0
 16 46  1  0
 16 47  1  0
 17 18  1  6
 18 19  1  0
 20 21  1  0
 21 48  1  0
 21 49  1  0
M  END
>  <i_m_ct_stereo_status>  (66) 
1

>  <s_m_source_file>  (66) 
/var/tmp/pbs.5076255.sched01/tmp6mrmgolx/06cp14zw5.sdf

>  <i_m_source_file_index>  (66) 
22

>  <i_lp_mmshare_version>  (66) 
48012

>  <i_f3d_flags>  (66) 
0

>  <s_epik_input>  (66) 
TzFbQ0gyXVtDQEhdKFtDSDNdKVtDSDJdW0NIMl1bQ0BdMTJbQ0gyXVtDQEBIXTNbQ0BAXTQoT08yKVtDQEBIXShDKD1bQ0hdMylbQ0hdKFtDSDNdKVtDSDNdKVtDSDJdW0NIMl1bQ0gyXTQ=

>  <s_epik_cmdline>  (66) 
J2VwaWtfcHl0aG9uJywgJy1waHQnLCAnMi4wJywgJy1waCcsICc3LjAnLCAnLXRuJywgJzgnLCAnLW1hJywgJzIwMCcsICctaW1hZScsICc8aW5maWxlLm1hZT4nLCAnLW9tYWUnLCAnPG91dGZpbGUubWFlPic=

>  <r_lp_tautomer_probability>  (66) 
1

>  <r_epik_Ionization_Penalty>  (66) 
1.87997e-13

>  <r_epik_Ionization_Penalty_Charging>  (66) 
0

>  <r_epik_Ionization_Penalty_Neutral>  (66) 
1.87997e-13

>  <r_epik_State_Penalty>  (66) 
-0

>  <r_epik_Charging_Adjusted_Penalty>  (66) 
0

>  <i_epik_Tot_Q>  (66) 
0

>  <i_epik_Tot_abs_Q>  (66) 
0

>  <s_lp_Force_Field>  (66) 
OPLS3e

>  <r_lp_Energy>  (66) 
22.0661

>  <b_lp_Chiralities_Consistent>  (66) 
1

>  <s_lp_Variant>  (66) 
6:0-1

>  <s_i_glide_gridfile>  (66) 
pfpi4k_grid

>  <i_i_glide_lignum>  (66) 
22

>  <i_i_glide_rotatable_bonds>  (66) 
1

>  <r_i_docking_score>  (66) 
-2.92317

>  <r_i_glide_ligand_efficiency>  (66) 
-0.139199

>  <r_i_glide_ligand_efficiency_sa>  (66) 
-0.384038

>  <r_i_glide_ligand_efficiency_ln>  (66) 
-0.722748

>  <r_i_glide_gscore>  (66) 
-2.92317

>  <r_i_glide_lipo>  (66) 
-0.177744

>  <r_i_glide_hbond>  (66) 
-0.0940071

>  <r_i_glide_metal>  (66) 
-0

>  <r_i_glide_rewards>  (66) 
-1.41537

>  <r_i_glide_evdw>  (66) 
-18.8304

>  <r_i_glide_ecoul>  (66) 
-1.8332

>  <r_i_glide_erotb>  (66) 
0

>  <r_i_glide_esite>  (66) 
-0.019556

>  <r_i_glide_emodel>  (66) 
-24.2017

>  <r_i_glide_energy>  (66) 
-20.6636

>  <r_i_glide_einternal>  (66) 
0.113621

>  <r_i_glide_intrahb_reward>  (66) 
-0

>  <i_i_glide_confnum>  (66) 
3

>  <i_i_glide_posenum>  (66) 
35

>  <r_i_glide_eff_state_penalty>  (66) 
0

>  <ligand_id>  (66) 
6

>  <original_smiles>  (66) 
CC1CCC2(CC3C=C(C(C)C)C4CCCC34OO2)OC1

>  <smiles>  (66) 
[H]C1=C(C([H])(C([H])([H])[H])C([H])([H])[H])C2([H])C([H])([H])C([H])([H])C([H])([H])C23OOC2(OC([H])([H])C([H])(C([H])([H])[H])C([H])([H])C2([H])[H])C([H])([H])C13[H]

$$$$
7:0:0
     RDKit          3D

 27 28  0  0  1  0  0  0  0  0999 V2000
    2.2226   -3.4666   -2.2230 C   0  0  0  0  0  0  0  0  0  0  0  0
    3.6648   -3.1317   -1.8192 C   0  0  1  0  0  0  0  0  0  0  0  0
    3.7236   -2.8812   -0.3000 C   0  0  0  0  0  0  0  0  0  0  0  0
    5.1848   -2.6519    0.2205 C   0  0  0  0  0  0  0  0  0  0  0  0
    6.2247   -2.5582   -0.9195 C   0  0  0  0  0  0  0  0  0  0  0  0
    7.3838   -2.2286   -0.6394 O   0  0  0  0  0  0  0  0  0  0  0  0
    5.6725   -2.8708   -2.2559 C   0  0  1  0  0  0  0  0  0  0  0  0
    4.7676   -4.0944   -2.2892 C   0  0  0  0  0  0  0  0  0  0  0  0
    4.4160   -2.0727   -2.6868 C   0  0  0  0  0  0  0  0  0  0  0  0
    4.0869   -2.0107   -4.1839 C   0  0  0  0  0  0  0  0  0  0  0  0
    4.2861   -0.6090   -2.2375 C   0  0  0  0  0  0  0  0  0  0  0  0
    1.5334   -2.6491   -2.0937 H   0  0  0  0  0  0  0  0  0  0  0  0
    1.8149   -4.2917   -1.6385 H   0  0  0  0  0  0  0  0  0  0  0  0
    2.1673   -3.7598   -3.2780 H   0  0  0  0  0  0  0  0  0  0  0  0
    3.1033   -2.0217   -0.0323 H   0  0  0  0  0  0  0  0  0  0  0  0
    3.2985   -3.7283    0.2402 H   0  0  0  0  0  0  0  0  0  0  0  0
    5.2308   -1.7409    0.8139 H   0  0  0  0  0  0  0  0  0  0  0  0
    5.4747   -3.4767    0.8686 H   0  0  0  0  0  0  0  0  0  0  0  0
    6.4273   -2.9045   -3.0648 H   0  0  0  0  0  0  0  0  0  0  0  0
    5.0119   -4.8668   -1.5548 H   0  0  0  0  0  0  0  0  0  0  0  0
    4.6251   -4.5350   -3.2669 H   0  0  0  0  0  0  0  0  0  0  0  0
    4.7776   -1.3588   -4.7112 H   0  0  0  0  0  0  0  0  0  0  0  0
    3.0857   -1.6175   -4.3584 H   0  0  0  0  0  0  0  0  0  0  0  0
    4.1202   -2.9919   -4.6613 H   0  0  0  0  0  0  0  0  0  0  0  0
    4.9979    0.0445   -2.7335 H   0  0  0  0  0  0  0  0  0  0  0  0
    4.4633   -0.4575   -1.1690 H   0  0  0  0  0  0  0  0  0  0  0  0
    3.2795   -0.2564   -2.4447 H   0  0  0  0  0  0  0  0  0  0  0  0
  2  1  1  6
  1 12  1  0
  1 13  1  0
  1 14  1  0
  2  8  1  0
  2  9  1  0
  2  3  1  0
  3  4  1  0
  3 15  1  0
  3 16  1  0
  4  5  1  0
  4 17  1  0
  4 18  1  0
  5  6  2  0
  5  7  1  0
  7  8  1  0
  7  9  1  0
  7 19  1  6
  8 20  1  0
  8 21  1  0
  9 10  1  0
  9 11  1  0
 10 22  1  0
 10 23  1  0
 10 24  1  0
 11 25  1  0
 11 26  1  0
 11 27  1  0
M  END
>  <i_m_ct_stereo_status>  (67) 
1

>  <s_m_source_file>  (67) 
/var/tmp/pbs.5076255.sched01/tmp6mrmgolx/06cp14zw5.sdf

>  <i_m_source_file_index>  (67) 
23

>  <i_lp_mmshare_version>  (67) 
48012

>  <i_f3d_flags>  (67) 
0

>  <s_epik_input>  (67) 
W0NIM11bQ0BAXTEyW0NIMl1bQ0gyXUMoPU8pW0NAQEhdKFtDSDJdMSlDMihbQ0gzXSlbQ0gzXQ==

>  <s_epik_cmdline>  (67) 
J2VwaWtfcHl0aG9uJywgJy1waHQnLCAnMi4wJywgJy1waCcsICc3LjAnLCAnLXRuJywgJzgnLCAnLW1hJywgJzIwMCcsICctaW1hZScsICc8aW5maWxlLm1hZT4nLCAnLW9tYWUnLCAnPG91dGZpbGUubWFlPic=

>  <r_lp_tautomer_probability>  (67) 
1

>  <r_epik_Ionization_Penalty>  (67) 
7.73563e-14

>  <r_epik_Ionization_Penalty_Charging>  (67) 
0

>  <r_epik_Ionization_Penalty_Neutral>  (67) 
7.73563e-14

>  <r_epik_State_Penalty>  (67) 
-0

>  <r_epik_Charging_Adjusted_Penalty>  (67) 
0

>  <i_epik_Tot_Q>  (67) 
0

>  <i_epik_Tot_abs_Q>  (67) 
0

>  <s_lp_Force_Field>  (67) 
OPLS3e

>  <r_lp_Energy>  (67) 
27.7164

>  <b_lp_Chiralities_Consistent>  (67) 
1

>  <s_lp_Variant>  (67) 
7:0-1

>  <s_i_glide_gridfile>  (67) 
pfpi4k_grid

>  <i_i_glide_lignum>  (67) 
23

>  <i_i_glide_rotatable_bonds>  (67) 
0

>  <r_i_docking_score>  (67) 
-3.85703

>  <r_i_glide_ligand_efficiency>  (67) 
-0.350639

>  <r_i_glide_ligand_efficiency_sa>  (67) 
-0.779815

>  <r_i_glide_ligand_efficiency_ln>  (67) 
-1.13512

>  <r_i_glide_gscore>  (67) 
-3.85703

>  <r_i_glide_lipo>  (67) 
-0.393998

>  <r_i_glide_hbond>  (67) 
-0.16

>  <r_i_glide_metal>  (67) 
-0

>  <r_i_glide_rewards>  (67) 
-2.25

>  <r_i_glide_evdw>  (67) 
-15.3861

>  <r_i_glide_ecoul>  (67) 
-1.75807

>  <r_i_glide_erotb>  (67) 
0

>  <r_i_glide_esite>  (67) 
-0.0200204

>  <r_i_glide_emodel>  (67) 
-21.04

>  <r_i_glide_energy>  (67) 
-17.1442

>  <r_i_glide_einternal>  (67) 
0

>  <r_i_glide_intrahb_reward>  (67) 
-0

>  <i_i_glide_confnum>  (67) 
1

>  <i_i_glide_posenum>  (67) 
17

>  <r_i_glide_eff_state_penalty>  (67) 
0

>  <ligand_id>  (67) 
7

>  <original_smiles>  (67) 
CC12CCC(=O)C(C1)C2(C)C

>  <smiles>  (67) 
[H]C([H])([H])C12C([H])([H])C([H])([H])C(=O)C([H])(C1([H])[H])C2(C([H])([H])[H])C([H])([H])[H]

$$$$
7:0:1
     RDKit          3D

 27 28  0  0  1  0  0  0  0  0999 V2000
    5.3818   -1.6138   -2.3167 C   0  0  0  0  0  0  0  0  0  0  0  0
    4.5250   -2.5312   -1.4622 C   0  0  1  0  0  0  0  0  0  0  0  0
    3.0743   -2.5206   -1.9886 C   0  0  0  0  0  0  0  0  0  0  0  0
    2.1573   -3.5463   -1.2524 C   0  0  0  0  0  0  0  0  0  0  0  0
    2.8407   -4.2537   -0.0705 C   0  0  0  0  0  0  0  0  0  0  0  0
    2.1950   -5.0209    0.6399 O   0  0  0  0  0  0  0  0  0  0  0  0
    4.3049   -3.9198    0.0682 C   0  0  1  0  0  0  0  0  0  0  0  0
    5.0444   -3.9637   -1.2715 C   0  0  0  0  0  0  0  0  0  0  0  0
    4.6621   -2.4054    0.0913 C   0  0  0  0  0  0  0  0  0  0  0  0
    6.0500   -2.0634    0.6692 C   0  0  0  0  0  0  0  0  0  0  0  0
    3.7013   -1.4333    0.8072 C   0  0  0  0  0  0  0  0  0  0  0  0
    5.0823   -0.5681   -2.2037 H   0  0  0  0  0  0  0  0  0  0  0  0
    5.3078   -1.8856   -3.3722 H   0  0  0  0  0  0  0  0  0  0  0  0
    6.4291   -1.7056   -2.0271 H   0  0  0  0  0  0  0  0  0  0  0  0
    2.6492   -1.5195   -1.9003 H   0  0  0  0  0  0  0  0  0  0  0  0
    3.0512   -2.7500   -3.0568 H   0  0  0  0  0  0  0  0  0  0  0  0
    1.2595   -3.0546   -0.8961 H   0  0  0  0  0  0  0  0  0  0  0  0
    1.8128   -4.3011   -1.9637 H   0  0  0  0  0  0  0  0  0  0  0  0
    4.8169   -4.4872    0.8483 H   0  0  0  0  0  0  0  0  0  0  0  0
    4.6517   -4.6709   -1.9973 H   0  0  0  0  0  0  0  0  0  0  0  0
    6.1253   -4.0659   -1.1849 H   0  0  0  0  0  0  0  0  0  0  0  0
    6.0767   -2.2202    1.7470 H   0  0  0  0  0  0  0  0  0  0  0  0
    6.3075   -1.0220    0.4789 H   0  0  0  0  0  0  0  0  0  0  0  0
    6.8520   -2.6699    0.2492 H   0  0  0  0  0  0  0  0  0  0  0  0
    3.7258   -1.5755    1.8894 H   0  0  0  0  0  0  0  0  0  0  0  0
    2.6591   -1.5528    0.5035 H   0  0  0  0  0  0  0  0  0  0  0  0
    3.9624   -0.3959    0.5995 H   0  0  0  0  0  0  0  0  0  0  0  0
  2  1  1  6
  1 12  1  0
  1 13  1  0
  1 14  1  0
  2  8  1  0
  2  9  1  0
  2  3  1  0
  3  4  1  0
  3 15  1  0
  3 16  1  0
  4  5  1  0
  4 17  1  0
  4 18  1  0
  5  6  2  0
  5  7  1  0
  7  8  1  0
  7  9  1  0
  7 19  1  1
  8 20  1  0
  8 21  1  0
  9 10  1  0
  9 11  1  0
 10 22  1  0
 10 23  1  0
 10 24  1  0
 11 25  1  0
 11 26  1  0
 11 27  1  0
M  END
>  <i_m_ct_stereo_status>  (68) 
1

>  <s_m_source_file>  (68) 
/var/tmp/pbs.5076255.sched01/tmp6mrmgolx/06cp14zw5.sdf

>  <i_m_source_file_index>  (68) 
23

>  <i_lp_mmshare_version>  (68) 
48012

>  <i_f3d_flags>  (68) 
0

>  <s_epik_input>  (68) 
W0NIM11bQ0BAXTEyW0NIMl1bQ0gyXUMoPU8pW0NAQEhdKFtDSDJdMSlDMihbQ0gzXSlbQ0gzXQ==

>  <s_epik_cmdline>  (68) 
J2VwaWtfcHl0aG9uJywgJy1waHQnLCAnMi4wJywgJy1waCcsICc3LjAnLCAnLXRuJywgJzgnLCAnLW1hJywgJzIwMCcsICctaW1hZScsICc8aW5maWxlLm1hZT4nLCAnLW9tYWUnLCAnPG91dGZpbGUubWFlPic=

>  <r_lp_tautomer_probability>  (68) 
1

>  <r_epik_Ionization_Penalty>  (68) 
7.73563e-14

>  <r_epik_Ionization_Penalty_Charging>  (68) 
0

>  <r_epik_Ionization_Penalty_Neutral>  (68) 
7.73563e-14

>  <r_epik_State_Penalty>  (68) 
-0

>  <r_epik_Charging_Adjusted_Penalty>  (68) 
0

>  <i_epik_Tot_Q>  (68) 
0

>  <i_epik_Tot_abs_Q>  (68) 
0

>  <s_lp_Force_Field>  (68) 
OPLS3e

>  <r_lp_Energy>  (68) 
27.7164

>  <b_lp_Chiralities_Consistent>  (68) 
1

>  <s_lp_Variant>  (68) 
7:0-1

>  <s_i_glide_gridfile>  (68) 
pfpi4k_grid

>  <i_i_glide_lignum>  (68) 
23

>  <i_i_glide_rotatable_bonds>  (68) 
0

>  <r_i_docking_score>  (68) 
-3.19399

>  <r_i_glide_ligand_efficiency>  (68) 
-0.290362

>  <r_i_glide_ligand_efficiency_sa>  (68) 
-0.64576

>  <r_i_glide_ligand_efficiency_ln>  (68) 
-0.93999

>  <r_i_glide_gscore>  (68) 
-3.19399

>  <r_i_glide_lipo>  (68) 
-0.106802

>  <r_i_glide_hbond>  (68) 
-0.0241206

>  <r_i_glide_metal>  (68) 
-0

>  <r_i_glide_rewards>  (68) 
-2.25

>  <r_i_glide_evdw>  (68) 
-10.8954

>  <r_i_glide_ecoul>  (68) 
-1.54349

>  <r_i_glide_erotb>  (68) 
0

>  <r_i_glide_esite>  (68) 
-0.0367719

>  <r_i_glide_emodel>  (68) 
-15.6897

>  <r_i_glide_energy>  (68) 
-12.4389

>  <r_i_glide_einternal>  (68) 
0

>  <r_i_glide_intrahb_reward>  (68) 
-0

>  <i_i_glide_confnum>  (68) 
1

>  <i_i_glide_posenum>  (68) 
1

>  <r_i_glide_eff_state_penalty>  (68) 
0

>  <ligand_id>  (68) 
7

>  <original_smiles>  (68) 
CC12CCC(=O)C(C1)C2(C)C

>  <smiles>  (68) 
[H]C([H])([H])C12C([H])([H])C([H])([H])C(=O)C([H])(C1([H])[H])C2(C([H])([H])[H])C([H])([H])[H]

$$$$
7:0:2
     RDKit          3D

 27 28  0  0  1  0  0  0  0  0999 V2000
    3.2991   -1.9943   -2.6264 C   0  0  0  0  0  0  0  0  0  0  0  0
    3.7599   -2.9266   -1.5011 C   0  0  1  0  0  0  0  0  0  0  0  0
    2.5533   -3.7420   -0.9792 C   0  0  0  0  0  0  0  0  0  0  0  0
    2.9529   -4.8229    0.0787 C   0  0  0  0  0  0  0  0  0  0  0  0
    4.4259   -4.7469    0.5075 C   0  0  0  0  0  0  0  0  0  0  0  0
    4.8276   -5.4678    1.4159 O   0  0  0  0  0  0  0  0  0  0  0  0
    5.2386   -3.7461   -0.2880 C   0  0  1  0  0  0  0  0  0  0  0  0
    4.9739   -3.8248   -1.7937 C   0  0  0  0  0  0  0  0  0  0  0  0
    4.6500   -2.3101   -0.3696 C   0  0  0  0  0  0  0  0  0  0  0  0
    5.6422   -1.2027   -0.7659 C   0  0  0  0  0  0  0  0  0  0  0  0
    3.9311   -1.7404    0.8730 C   0  0  0  0  0  0  0  0  0  0  0  0
    2.6099   -1.2355   -2.2584 H   0  0  0  0  0  0  0  0  0  0  0  0
    2.8013   -2.5444   -3.4276 H   0  0  0  0  0  0  0  0  0  0  0  0
    4.1452   -1.4717   -3.0754 H   0  0  0  0  0  0  0  0  0  0  0  0
    1.8207   -3.0622   -0.5433 H   0  0  0  0  0  0  0  0  0  0  0  0
    2.0376   -4.2343   -1.8056 H   0  0  0  0  0  0  0  0  0  0  0  0
    2.3318   -4.7300    0.9659 H   0  0  0  0  0  0  0  0  0  0  0  0
    2.7887   -5.8231   -0.3215 H   0  0  0  0  0  0  0  0  0  0  0  0
    6.3050   -3.7553   -0.0538 H   0  0  0  0  0  0  0  0  0  0  0  0
    4.7228   -4.8131   -2.1608 H   0  0  0  0  0  0  0  0  0  0  0  0
    5.7432   -3.3812   -2.4235 H   0  0  0  0  0  0  0  0  0  0  0  0
    6.3542   -1.0061    0.0348 H   0  0  0  0  0  0  0  0  0  0  0  0
    5.1192   -0.2719   -0.9829 H   0  0  0  0  0  0  0  0  0  0  0  0
    6.2172   -1.4531   -1.6543 H   0  0  0  0  0  0  0  0  0  0  0  0
    4.6355   -1.5312    1.6789 H   0  0  0  0  0  0  0  0  0  0  0  0
    3.1836   -2.4164    1.2869 H   0  0  0  0  0  0  0  0  0  0  0  0
    3.4064   -0.8149    0.6368 H   0  0  0  0  0  0  0  0  0  0  0  0
  2  1  1  6
  1 12  1  0
  1 13  1  0
  1 14  1  0
  2  8  1  0
  2  9  1  0
  2  3  1  0
  3  4  1  0
  3 15  1  0
  3 16  1  0
  4  5  1  0
  4 17  1  0
  4 18  1  0
  5  6  2  0
  5  7  1  0
  7  8  1  0
  7  9  1  0
  7 19  1  6
  8 20  1  0
  8 21  1  0
  9 10  1  0
  9 11  1  0
 10 22  1  0
 10 23  1  0
 10 24  1  0
 11 25  1  0
 11 26  1  0
 11 27  1  0
M  END
>  <i_m_ct_stereo_status>  (69) 
1

>  <s_m_source_file>  (69) 
/var/tmp/pbs.5076255.sched01/tmp6mrmgolx/06cp14zw5.sdf

>  <i_m_source_file_index>  (69) 
23

>  <i_lp_mmshare_version>  (69) 
48012

>  <i_f3d_flags>  (69) 
0

>  <s_epik_input>  (69) 
W0NIM11bQ0BAXTEyW0NIMl1bQ0gyXUMoPU8pW0NAQEhdKFtDSDJdMSlDMihbQ0gzXSlbQ0gzXQ==

>  <s_epik_cmdline>  (69) 
J2VwaWtfcHl0aG9uJywgJy1waHQnLCAnMi4wJywgJy1waCcsICc3LjAnLCAnLXRuJywgJzgnLCAnLW1hJywgJzIwMCcsICctaW1hZScsICc8aW5maWxlLm1hZT4nLCAnLW9tYWUnLCAnPG91dGZpbGUubWFlPic=

>  <r_lp_tautomer_probability>  (69) 
1

>  <r_epik_Ionization_Penalty>  (69) 
7.73563e-14

>  <r_epik_Ionization_Penalty_Charging>  (69) 
0

>  <r_epik_Ionization_Penalty_Neutral>  (69) 
7.73563e-14

>  <r_epik_State_Penalty>  (69) 
-0

>  <r_epik_Charging_Adjusted_Penalty>  (69) 
0

>  <i_epik_Tot_Q>  (69) 
0

>  <i_epik_Tot_abs_Q>  (69) 
0

>  <s_lp_Force_Field>  (69) 
OPLS3e

>  <r_lp_Energy>  (69) 
27.7164

>  <b_lp_Chiralities_Consistent>  (69) 
1

>  <s_lp_Variant>  (69) 
7:0-1

>  <s_i_glide_gridfile>  (69) 
pfpi4k_grid

>  <i_i_glide_lignum>  (69) 
23

>  <i_i_glide_rotatable_bonds>  (69) 
0

>  <r_i_docking_score>  (69) 
-3.07593

>  <r_i_glide_ligand_efficiency>  (69) 
-0.27963

>  <r_i_glide_ligand_efficiency_sa>  (69) 
-0.621892

>  <r_i_glide_ligand_efficiency_ln>  (69) 
-0.905246

>  <r_i_glide_gscore>  (69) 
-3.07593

>  <r_i_glide_lipo>  (69) 
-0.0552545

>  <r_i_glide_hbond>  (69) 
0

>  <r_i_glide_metal>  (69) 
-0

>  <r_i_glide_rewards>  (69) 
-2.30955

>  <r_i_glide_evdw>  (69) 
-11.8628

>  <r_i_glide_ecoul>  (69) 
-0.786578

>  <r_i_glide_erotb>  (69) 
0

>  <r_i_glide_esite>  (69) 
0

>  <r_i_glide_emodel>  (69) 
-15.785

>  <r_i_glide_energy>  (69) 
-12.6494

>  <r_i_glide_einternal>  (69) 
0

>  <r_i_glide_intrahb_reward>  (69) 
-0

>  <i_i_glide_confnum>  (69) 
1

>  <i_i_glide_posenum>  (69) 
13

>  <r_i_glide_eff_state_penalty>  (69) 
0

>  <ligand_id>  (69) 
7

>  <original_smiles>  (69) 
CC12CCC(=O)C(C1)C2(C)C

>  <smiles>  (69) 
[H]C([H])([H])C12C([H])([H])C([H])([H])C(=O)C([H])(C1([H])[H])C2(C([H])([H])[H])C([H])([H])[H]

$$$$
8:0:0
     RDKit          3D

 65 71  0  0  1  0  0  0  0  0999 V2000
    3.7815   -4.3986    5.9283 C   0  0  0  0  0  0  0  0  0  0  0  0
    3.6426   -4.1393    4.4162 C   0  0  2  0  0  0  0  0  0  0  0  0
    2.5000   -5.0465    3.8788 C   0  0  0  0  0  0  0  0  0  0  0  0
    2.0923   -5.0619    2.3779 C   0  0  0  0  0  0  0  0  0  0  0  0
    2.8765   -4.2490    1.3115 C   0  0  1  0  0  0  0  0  0  0  0  0
    2.5684   -2.8379    1.4112 O   0  0  0  0  0  0  0  0  0  0  0  0
    2.3292   -2.0750    2.5137 C   0  0  0  0  0  0  0  0  0  0  0  0
    1.3159   -2.1807    3.2044 O   0  0  0  0  0  0  0  0  0  0  0  0
    3.3951   -0.9806    2.8654 C   0  0  0  0  0  0  0  0  0  0  0  0
    4.9443   -1.1953    2.6147 C   0  0  0  0  0  0  0  0  0  0  0  0
    5.2795   -2.1914    1.4797 C   0  0  1  0  0  0  0  0  0  0  0  0
    4.5910   -1.4446    0.1865 C   0  0  0  0  0  0  0  0  0  0  0  0
    3.5441   -1.9503   -0.6327 O   0  0  0  0  0  0  0  0  0  0  0  0
    3.7602   -2.7664   -1.7290 C   0  0  0  0  0  0  0  0  0  0  0  0
    2.3666   -3.0589   -2.3051 C   0  0  0  0  0  0  0  0  0  0  0  0
    4.6012   -2.0728   -2.8175 C   0  0  0  0  0  0  0  0  0  0  0  0
    4.2904   -4.0057   -1.4215 O   0  0  0  0  0  0  0  0  0  0  0  0
    5.1353   -4.2352   -0.3088 C   0  0  1  0  0  0  0  0  0  0  0  0
    6.5259   -3.4319   -0.2674 C   0  0  0  0  0  0  0  0  0  0  0  0
    6.7022   -2.3700    0.8831 C   0  0  1  0  0  0  0  0  0  0  0  0
    7.3894   -1.1913    0.4782 O   0  0  0  0  0  0  0  0  0  0  0  0
    4.4142   -4.6084    1.0809 C   0  0  2  0  0  0  0  0  0  0  0  0
    4.6793   -6.1627    1.2812 C   0  0  2  0  0  0  0  0  0  0  0  0
    4.4158   -6.5943    2.6194 O   0  0  0  0  0  0  0  0  0  0  0  0
    5.5969   -6.6941    3.4150 C   0  0  2  0  0  0  0  0  0  0  0  0
    5.9168   -5.3301    4.0506 C   0  0  0  0  0  0  0  0  0  0  0  0
    5.0110   -4.1154    3.6508 C   0  0  1  0  0  0  0  0  0  0  0  0
    5.0934   -3.7204    2.0905 C   0  0  2  0  0  0  0  0  0  0  0  0
    6.6397   -7.0860    2.4222 C   0  0  1  0  0  0  0  0  0  0  0  0
    6.3064   -8.0785    1.4412 O   0  0  0  0  0  0  0  0  0  0  0  0
    6.1040   -6.6854    1.1205 C   0  0  1  0  0  0  0  0  0  0  0  0
    3.9824   -5.4473    6.1505 H   0  0  0  0  0  0  0  0  0  0  0  0
    2.8577   -4.1392    6.4484 H   0  0  0  0  0  0  0  0  0  0  0  0
    4.5751   -3.7922    6.3668 H   0  0  0  0  0  0  0  0  0  0  0  0
    3.3064   -3.1176    4.4791 H   0  0  0  0  0  0  0  0  0  0  0  0
    2.6923   -6.0746    4.1876 H   0  0  0  0  0  0  0  0  0  0  0  0
    1.5974   -4.7870    4.4366 H   0  0  0  0  0  0  0  0  0  0  0  0
    2.0576   -6.1026    2.0525 H   0  0  0  0  0  0  0  0  0  0  0  0
    1.0499   -4.7524    2.3359 H   0  0  0  0  0  0  0  0  0  0  0  0
    2.4095   -4.5339    0.3720 H   0  0  0  0  0  0  0  0  0  0  0  0
    3.0738   -0.0659    2.3666 H   0  0  0  0  0  0  0  0  0  0  0  0
    3.2733   -0.7662    3.9278 H   0  0  0  0  0  0  0  0  0  0  0  0
    5.3572   -0.2198    2.3500 H   0  0  0  0  0  0  0  0  0  0  0  0
    5.4592   -1.4192    3.5429 H   0  0  0  0  0  0  0  0  0  0  0  0
    4.1202   -0.5233    0.5225 H   0  0  0  0  0  0  0  0  0  0  0  0
    5.2964   -0.9890   -0.4994 H   0  0  0  0  0  0  0  0  0  0  0  0
    1.7407   -3.5363   -1.5533 H   0  0  0  0  0  0  0  0  0  0  0  0
    2.4335   -3.7191   -3.1687 H   0  0  0  0  0  0  0  0  0  0  0  0
    1.8837   -2.1306   -2.6125 H   0  0  0  0  0  0  0  0  0  0  0  0
    5.5860   -1.7847   -2.4709 H   0  0  0  0  0  0  0  0  0  0  0  0
    4.0865   -1.1763   -3.1639 H   0  0  0  0  0  0  0  0  0  0  0  0
    4.7250   -2.7538   -3.6607 H   0  0  0  0  0  0  0  0  0  0  0  0
    5.4502   -5.1745   -0.7463 H   0  0  0  0  0  0  0  0  0  0  0  0
    7.3376   -4.1483   -0.1474 H   0  0  0  0  0  0  0  0  0  0  0  0
    6.7389   -2.9989   -1.2404 H   0  0  0  0  0  0  0  0  0  0  0  0
    7.3901   -2.7730    1.6259 H   0  0  0  0  0  0  0  0  0  0  0  0
    7.4431   -0.5855    1.2114 H   0  0  0  0  0  0  0  0  0  0  0  0
    4.0436   -6.7232    0.5971 H   0  0  0  0  0  0  0  0  0  0  0  0
    5.4884   -7.4739    4.1667 H   0  0  0  0  0  0  0  0  0  0  0  0
    5.9395   -5.4583    5.1289 H   0  0  0  0  0  0  0  0  0  0  0  0
    6.9525   -5.0803    3.8352 H   0  0  0  0  0  0  0  0  0  0  0  0
    5.5524   -3.3318    4.1685 H   0  0  0  0  0  0  0  0  0  0  0  0
    6.0681   -4.1858    2.0282 H   0  0  0  0  0  0  0  0  0  0  0  0
    7.7001   -7.0044    2.6655 H   0  0  0  0  0  0  0  0  0  0  0  0
    6.7796   -6.3008    0.3598 H   0  0  0  0  0  0  0  0  0  0  0  0
  1  2  1  0
  1 32  1  0
  1 33  1  0
  1 34  1  0
  2 27  1  0
  2  3  1  0
  2 35  1  1
  3  4  1  0
  3 36  1  0
  3 37  1  0
  4  5  1  0
  4 38  1  0
  4 39  1  0
  5 22  1  0
  5  6  1  0
  5 40  1  6
  6  7  1  0
  7  8  2  0
  7  9  1  0
  9 10  1  0
  9 41  1  0
  9 42  1  0
 11 10  1  1
 10 43  1  0
 10 44  1  0
 11 20  1  0
 11 28  1  0
 11 12  1  0
 12 13  1  0
 12 45  1  0
 12 46  1  0
 13 14  1  0
 14 15  1  0
 14 16  1  0
 14 17  1  0
 15 47  1  0
 15 48  1  0
 15 49  1  0
 16 50  1  0
 16 51  1  0
 16 52  1  0
 17 18  1  0
 18 19  1  0
 22 18  1  6
 18 53  1  6
 19 20  1  0
 19 54  1  0
 19 55  1  0
 20 21  1  0
 20 56  1  1
 21 57  1  0
 22 28  1  0
 22 23  1  0
 23 31  1  0
 23 24  1  0
 23 58  1  6
 24 25  1  0
 25 26  1  0
 25 29  1  0
 25 59  1  1
 26 27  1  0
 26 60  1  0
 26 61  1  0
 27 28  1  0
 27 62  1  1
 28 63  1  6
 29 31  1  0
 29 30  1  0
 29 64  1  1
 30 31  1  0
 31 65  1  6
M  END
>  <i_m_ct_stereo_status>  (70) 
1

>  <s_m_source_file>  (70) 
/var/tmp/pbs.5076255.sched01/tmp6mrmgolx/06cp14zw5.sdf

>  <i_m_source_file_index>  (70) 
24

>  <i_lp_mmshare_version>  (70) 
48012

>  <i_f3d_flags>  (70) 
2

>  <s_epik_input>  (70) 
TzFbQ0BASF0yW0NAQEhdKE8zKVtDQEBIXTNbQ0BIXTFbQ0gyXVtDQEBIXTRbQ0BIXShbQ0gzXSlbQ0gyXVtDSDJdW0NAQEhdKE9DKD1PKVtDSDJdW0NIMl01KVtDQF0yKFtDSF00W0NAXTU2NylbQ0BIXShbQ0gyXVtDQEhdN1tPSF0pT0MoW0NIM10pKFtDSDNdKU9bQ0gyXTY=

>  <s_epik_cmdline>  (70) 
J2VwaWtfcHl0aG9uJywgJy1waHQnLCAnMi4wJywgJy1waCcsICc3LjAnLCAnLXRuJywgJzgnLCAnLW1hJywgJzIwMCcsICctaW1hZScsICc8aW5maWxlLm1hZT4nLCAnLW9tYWUnLCAnPG91dGZpbGUubWFlPic=

>  <r_lp_tautomer_probability>  (70) 
1

>  <r_epik_Ionization_Penalty>  (70) 
5.95212e-08

>  <r_epik_Ionization_Penalty_Charging>  (70) 
0

>  <r_epik_Ionization_Penalty_Neutral>  (70) 
5.95212e-08

>  <r_epik_State_Penalty>  (70) 
-0

>  <r_epik_Charging_Adjusted_Penalty>  (70) 
0

>  <i_epik_Tot_Q>  (70) 
0

>  <i_epik_Tot_abs_Q>  (70) 
0

>  <s_epik_Chemistry_Notes>  (70) 
This compound has an ester and may undergo hydrolysis at high or low pH.

>  <s_lp_Force_Field>  (70) 
OPLS3e

>  <r_lp_Energy>  (70) 
188.685

>  <b_lp_Chiralities_Consistent>  (70) 
0

>  <s_lp_Variant>  (70) 
8:0-1

>  <s_i_glide_gridfile>  (70) 
pfpi4k_grid

>  <i_i_glide_lignum>  (70) 
24

>  <i_i_glide_rotatable_bonds>  (70) 
1

>  <r_i_docking_score>  (70) 
-2.90941

>  <r_i_glide_ligand_efficiency>  (70) 
-0.093852

>  <r_i_glide_ligand_efficiency_sa>  (70) 
-0.294825

>  <r_i_glide_ligand_efficiency_ln>  (70) 
-0.656162

>  <r_i_glide_gscore>  (70) 
-2.90941

>  <r_i_glide_lipo>  (70) 
-0.791542

>  <r_i_glide_hbond>  (70) 
-0.313623

>  <r_i_glide_metal>  (70) 
-0

>  <r_i_glide_rewards>  (70) 
-0.446437

>  <r_i_glide_evdw>  (70) 
-27.486

>  <r_i_glide_ecoul>  (70) 
0.325182

>  <r_i_glide_erotb>  (70) 
0

>  <r_i_glide_esite>  (70) 
-0.0322877

>  <r_i_glide_emodel>  (70) 
-31.7258

>  <r_i_glide_energy>  (70) 
-27.1608

>  <r_i_glide_einternal>  (70) 
0.363036

>  <r_i_glide_intrahb_reward>  (70) 
-0

>  <i_i_glide_confnum>  (70) 
1

>  <i_i_glide_posenum>  (70) 
9

>  <r_i_glide_eff_state_penalty>  (70) 
0

>  <ligand_id>  (70) 
8

>  <original_smiles>  (70) 
CC1CCC2OC(=O)CCC34COC(C)(C)OC(CC3O)C23C2OC(CC1C43)C1OC12

>  <smiles>  (70) 
[H]OC1([H])C([H])([H])C2([H])OC(C([H])([H])[H])(C([H])([H])[H])OC([H])([H])C13C([H])([H])C([H])([H])C(=O)OC1([H])C([H])([H])C([H])([H])C([H])(C([H])([H])[H])C4([H])C([H])([H])C5([H])OC([H])(C6([H])OC56[H])C12C43[H]

$$$$
8:0:1
     RDKit          3D

 65 71  0  0  1  0  0  0  0  0999 V2000
    3.9225   -7.3703    5.5386 C   0  0  0  0  0  0  0  0  0  0  0  0
    3.7882   -6.5468    4.2386 C   0  0  2  0  0  0  0  0  0  0  0  0
    3.5691   -7.5413    3.0592 C   0  0  0  0  0  0  0  0  0  0  0  0
    3.4059   -7.0635    1.5846 C   0  0  0  0  0  0  0  0  0  0  0  0
    3.5586   -5.5700    1.1961 C   0  0  1  0  0  0  0  0  0  0  0  0
    2.3793   -4.8358    1.6072 O   0  0  0  0  0  0  0  0  0  0  0  0
    1.6425   -4.9636    2.7422 C   0  0  0  0  0  0  0  0  0  0  0  0
    0.8211   -5.8705    2.9013 O   0  0  0  0  0  0  0  0  0  0  0  0
    1.6748   -3.7799    3.7669 C   0  0  0  0  0  0  0  0  0  0  0  0
    2.9884   -2.9489    4.0521 C   0  0  0  0  0  0  0  0  0  0  0  0
    3.9880   -2.9138    2.8777 C   0  0  1  0  0  0  0  0  0  0  0  0
    3.0993   -2.1740    1.7178 C   0  0  0  0  0  0  0  0  0  0  0  0
    2.7450   -2.7186    0.4532 O   0  0  0  0  0  0  0  0  0  0  0  0
    3.5456   -2.6315   -0.6726 C   0  0  0  0  0  0  0  0  0  0  0  0
    2.7171   -3.2798   -1.7803 C   0  0  0  0  0  0  0  0  0  0  0  0
    3.8343   -1.1801   -1.1046 C   0  0  0  0  0  0  0  0  0  0  0  0
    4.7122   -3.3667   -0.5987 O   0  0  0  0  0  0  0  0  0  0  0  0
    5.3910   -3.5555    0.6290 C   0  0  1  0  0  0  0  0  0  0  0  0
    5.8897   -2.2575    1.4279 C   0  0  0  0  0  0  0  0  0  0  0  0
    5.2139   -1.9743    2.8297 C   0  0  1  0  0  0  0  0  0  0  0  0
    5.0160   -0.5936    3.0928 O   0  0  0  0  0  0  0  0  0  0  0  0
    4.9635   -4.8565    1.4692 C   0  0  2  0  0  0  0  0  0  0  0  0
    6.1549   -5.8683    1.2656 C   0  0  2  0  0  0  0  0  0  0  0  0
    6.1282   -6.9434    2.2097 O   0  0  0  0  0  0  0  0  0  0  0  0
    7.0092   -6.7477    3.3164 C   0  0  2  0  0  0  0  0  0  0  0  0
    6.3037   -5.9306    4.4130 C   0  0  0  0  0  0  0  0  0  0  0  0
    4.8586   -5.4114    4.0917 C   0  0  1  0  0  0  0  0  0  0  0  0
    4.7955   -4.3531    2.8779 C   0  0  2  0  0  0  0  0  0  0  0  0
    8.1236   -5.9803    2.6949 C   0  0  1  0  0  0  0  0  0  0  0  0
    8.6153   -6.3667    1.4019 O   0  0  0  0  0  0  0  0  0  0  0  0
    7.5766   -5.3809    1.4836 C   0  0  1  0  0  0  0  0  0  0  0  0
    4.7411   -8.0901    5.4896 H   0  0  0  0  0  0  0  0  0  0  0  0
    3.0089   -7.9437    5.7218 H   0  0  0  0  0  0  0  0  0  0  0  0
    4.0744   -6.7255    6.4035 H   0  0  0  0  0  0  0  0  0  0  0  0
    2.8581   -6.0663    4.4992 H   0  0  0  0  0  0  0  0  0  0  0  0
    4.3623   -8.2938    3.0875 H   0  0  0  0  0  0  0  0  0  0  0  0
    2.6724   -8.1255    3.2904 H   0  0  0  0  0  0  0  0  0  0  0  0
    4.0926   -7.6473    0.9693 H   0  0  0  0  0  0  0  0  0  0  0  0
    2.4217   -7.3930    1.2422 H   0  0  0  0  0  0  0  0  0  0  0  0
    3.4802   -5.5786    0.1130 H   0  0  0  0  0  0  0  0  0  0  0  0
    0.8768   -3.0959    3.4684 H   0  0  0  0  0  0  0  0  0  0  0  0
    1.3396   -4.1888    4.7208 H   0  0  0  0  0  0  0  0  0  0  0  0
    2.6801   -1.9223    4.2727 H   0  0  0  0  0  0  0  0  0  0  0  0
    3.4397   -3.2536    4.9876 H   0  0  0  0  0  0  0  0  0  0  0  0
    2.1098   -1.9543    2.1113 H   0  0  0  0  0  0  0  0  0  0  0  0
    3.3917   -1.1503    1.5129 H   0  0  0  0  0  0  0  0  0  0  0  0
    2.4490   -4.2779   -1.4691 H   0  0  0  0  0  0  0  0  0  0  0  0
    3.2779   -3.3210   -2.7170 H   0  0  0  0  0  0  0  0  0  0  0  0
    1.7869   -2.7326   -1.9408 H   0  0  0  0  0  0  0  0  0  0  0  0
    4.3154   -0.5777   -0.3415 H   0  0  0  0  0  0  0  0  0  0  0  0
    2.9016   -0.7044   -1.3598 H   0  0  0  0  0  0  0  0  0  0  0  0
    4.4578   -1.1841   -2.0011 H   0  0  0  0  0  0  0  0  0  0  0  0
    6.2904   -3.8087    0.0785 H   0  0  0  0  0  0  0  0  0  0  0  0
    6.9522   -2.3663    1.6279 H   0  0  0  0  0  0  0  0  0  0  0  0
    5.8640   -1.3808    0.7912 H   0  0  0  0  0  0  0  0  0  0  0  0
    5.8737   -2.2234    3.6575 H   0  0  0  0  0  0  0  0  0  0  0  0
    4.3723   -0.2511    2.4984 H   0  0  0  0  0  0  0  0  0  0  0  0
    6.1110   -6.2659    0.2539 H   0  0  0  0  0  0  0  0  0  0  0  0
    7.3755   -7.7003    3.6932 H   0  0  0  0  0  0  0  0  0  0  0  0
    6.3025   -6.5257    5.3218 H   0  0  0  0  0  0  0  0  0  0  0  0
    6.9252   -5.0861    4.7013 H   0  0  0  0  0  0  0  0  0  0  0  0
    4.6992   -4.8238    4.9891 H   0  0  0  0  0  0  0  0  0  0  0  0
    5.8345   -4.1036    3.0454 H   0  0  0  0  0  0  0  0  0  0  0  0
    8.8621   -5.4744    3.3214 H   0  0  0  0  0  0  0  0  0  0  0  0
    7.9218   -4.4004    1.1495 H   0  0  0  0  0  0  0  0  0  0  0  0
  1  2  1  0
  1 32  1  0
  1 33  1  0
  1 34  1  0
  2 27  1  0
  2  3  1  0
  2 35  1  1
  3  4  1  0
  3 36  1  0
  3 37  1  0
  4  5  1  0
  4 38  1  0
  4 39  1  0
  5 22  1  0
  5  6  1  0
  5 40  1  6
  6  7  1  0
  7  8  2  0
  7  9  1  0
  9 10  1  0
  9 41  1  0
  9 42  1  0
 11 10  1  1
 10 43  1  0
 10 44  1  0
 11 20  1  0
 11 28  1  0
 11 12  1  0
 12 13  1  0
 12 45  1  0
 12 46  1  0
 13 14  1  0
 14 15  1  0
 14 16  1  0
 14 17  1  0
 15 47  1  0
 15 48  1  0
 15 49  1  0
 16 50  1  0
 16 51  1  0
 16 52  1  0
 17 18  1  0
 18 19  1  0
 22 18  1  6
 18 53  1  6
 19 20  1  0
 19 54  1  0
 19 55  1  0
 20 21  1  0
 20 56  1  1
 21 57  1  0
 22 28  1  0
 22 23  1  0
 23 31  1  0
 23 24  1  0
 23 58  1  6
 24 25  1  0
 25 26  1  0
 25 29  1  0
 25 59  1  1
 26 27  1  0
 26 60  1  0
 26 61  1  0
 27 28  1  0
 27 62  1  1
 28 63  1  1
 29 31  1  0
 29 30  1  0
 29 64  1  1
 30 31  1  0
 31 65  1  1
M  END
>  <i_m_ct_stereo_status>  (71) 
1

>  <s_m_source_file>  (71) 
/var/tmp/pbs.5076255.sched01/tmp6mrmgolx/06cp14zw5.sdf

>  <i_m_source_file_index>  (71) 
24

>  <i_lp_mmshare_version>  (71) 
48012

>  <i_f3d_flags>  (71) 
2

>  <s_epik_input>  (71) 
TzFbQ0BASF0yW0NAQEhdKE8zKVtDQEBIXTNbQ0BIXTFbQ0gyXVtDQEBIXTRbQ0BIXShbQ0gzXSlbQ0gyXVtDSDJdW0NAQEhdKE9DKD1PKVtDSDJdW0NIMl01KVtDQF0yKFtDSF00W0NAXTU2NylbQ0BIXShbQ0gyXVtDQEhdN1tPSF0pT0MoW0NIM10pKFtDSDNdKU9bQ0gyXTY=

>  <s_epik_cmdline>  (71) 
J2VwaWtfcHl0aG9uJywgJy1waHQnLCAnMi4wJywgJy1waCcsICc3LjAnLCAnLXRuJywgJzgnLCAnLW1hJywgJzIwMCcsICctaW1hZScsICc8aW5maWxlLm1hZT4nLCAnLW9tYWUnLCAnPG91dGZpbGUubWFlPic=

>  <r_lp_tautomer_probability>  (71) 
1

>  <r_epik_Ionization_Penalty>  (71) 
5.95212e-08

>  <r_epik_Ionization_Penalty_Charging>  (71) 
0

>  <r_epik_Ionization_Penalty_Neutral>  (71) 
5.95212e-08

>  <r_epik_State_Penalty>  (71) 
-0

>  <r_epik_Charging_Adjusted_Penalty>  (71) 
0

>  <i_epik_Tot_Q>  (71) 
0

>  <i_epik_Tot_abs_Q>  (71) 
0

>  <s_epik_Chemistry_Notes>  (71) 
This compound has an ester and may undergo hydrolysis at high or low pH.

>  <s_lp_Force_Field>  (71) 
OPLS3e

>  <r_lp_Energy>  (71) 
188.685

>  <b_lp_Chiralities_Consistent>  (71) 
0

>  <s_lp_Variant>  (71) 
8:0-1

>  <s_i_glide_gridfile>  (71) 
pfpi4k_grid

>  <i_i_glide_lignum>  (71) 
24

>  <i_i_glide_rotatable_bonds>  (71) 
1

>  <r_i_docking_score>  (71) 
-2.52889

>  <r_i_glide_ligand_efficiency>  (71) 
-0.081577

>  <r_i_glide_ligand_efficiency_sa>  (71) 
-0.256264

>  <r_i_glide_ligand_efficiency_ln>  (71) 
-0.570341

>  <r_i_glide_gscore>  (71) 
-2.52889

>  <r_i_glide_lipo>  (71) 
-0.65154

>  <r_i_glide_hbond>  (71) 
-0.00230128

>  <r_i_glide_metal>  (71) 
-0

>  <r_i_glide_rewards>  (71) 
-0.446437

>  <r_i_glide_evdw>  (71) 
-23.6274

>  <r_i_glide_ecoul>  (71) 
-1.27157

>  <r_i_glide_erotb>  (71) 
0

>  <r_i_glide_esite>  (71) 
-0.056503

>  <r_i_glide_emodel>  (71) 
-28.8921

>  <r_i_glide_energy>  (71) 
-24.899

>  <r_i_glide_einternal>  (71) 
0.0285668

>  <r_i_glide_intrahb_reward>  (71) 
-0

>  <i_i_glide_confnum>  (71) 
2

>  <i_i_glide_posenum>  (71) 
36

>  <r_i_glide_eff_state_penalty>  (71) 
0

>  <ligand_id>  (71) 
8

>  <original_smiles>  (71) 
CC1CCC2OC(=O)CCC34COC(C)(C)OC(CC3O)C23C2OC(CC1C43)C1OC12

>  <smiles>  (71) 
[H]OC1([H])C([H])([H])C2([H])OC(C([H])([H])[H])(C([H])([H])[H])OC([H])([H])C13C([H])([H])C([H])([H])C(=O)OC1([H])C([H])([H])C([H])([H])C([H])(C([H])([H])[H])C4([H])C([H])([H])C5([H])OC([H])(C6([H])OC56[H])C12C43[H]

$$$$
8:0:2
     RDKit          3D

 65 71  0  0  1  0  0  0  0  0999 V2000
    3.7547   -2.9275    6.1477 C   0  0  0  0  0  0  0  0  0  0  0  0
    3.6261   -2.9653    4.6125 C   0  0  2  0  0  0  0  0  0  0  0  0
    2.2973   -3.6892    4.2713 C   0  0  0  0  0  0  0  0  0  0  0  0
    1.8497   -3.9236    2.8058 C   0  0  0  0  0  0  0  0  0  0  0  0
    2.7518   -3.5558    1.5950 C   0  0  1  0  0  0  0  0  0  0  0  0
    2.7556   -2.1251    1.3790 O   0  0  0  0  0  0  0  0  0  0  0  0
    2.7307   -1.1142    2.2879 C   0  0  0  0  0  0  0  0  0  0  0  0
    1.7395   -0.8386    2.9686 O   0  0  0  0  0  0  0  0  0  0  0  0
    4.0259   -0.2451    2.4211 C   0  0  0  0  0  0  0  0  0  0  0  0
    5.4786   -0.8493    2.2432 C   0  0  0  0  0  0  0  0  0  0  0  0
    5.5503   -2.1053    1.3467 C   0  0  1  0  0  0  0  0  0  0  0  0
    5.0020   -1.5047   -0.0821 C   0  0  0  0  0  0  0  0  0  0  0  0
    3.8417   -1.9157   -0.7932 O   0  0  0  0  0  0  0  0  0  0  0  0
    3.8343   -2.9804   -1.6816 C   0  0  0  0  0  0  0  0  0  0  0  0
    2.3926   -3.0555   -2.2065 C   0  0  0  0  0  0  0  0  0  0  0  0
    4.7734   -2.7414   -2.8843 C   0  0  0  0  0  0  0  0  0  0  0  0
    4.0708   -4.2113   -1.1008 O   0  0  0  0  0  0  0  0  0  0  0  0
    4.8957   -4.3921    0.0357 C   0  0  1  0  0  0  0  0  0  0  0  0
    6.4271   -3.9335   -0.0757 C   0  0  0  0  0  0  0  0  0  0  0  0
    6.8776   -2.7203    0.8198 C   0  0  1  0  0  0  0  0  0  0  0  0
    7.7961   -1.8567    0.1515 O   0  0  0  0  0  0  0  0  0  0  0  0
    4.1597   -4.2951    1.4617 C   0  0  2  0  0  0  0  0  0  0  0  0
    4.0769   -5.7955    1.9832 C   0  0  2  0  0  0  0  0  0  0  0  0
    3.7678   -5.8647    3.3779 O   0  0  0  0  0  0  0  0  0  0  0  0
    4.9221   -6.0532    4.1932 C   0  0  2  0  0  0  0  0  0  0  0  0
    5.5542   -4.6926    4.5380 C   0  0  0  0  0  0  0  0  0  0  0  0
    4.9345   -3.4142    3.8764 C   0  0  1  0  0  0  0  0  0  0  0  0
    5.0520   -3.3882    2.2682 C   0  0  2  0  0  0  0  0  0  0  0  0
    5.8172   -6.8675    3.3152 C   0  0  1  0  0  0  0  0  0  0  0  0
    5.2365   -7.9539    2.5843 O   0  0  0  0  0  0  0  0  0  0  0  0
    5.3339   -6.6673    1.9468 C   0  0  1  0  0  0  0  0  0  0  0  0
    3.7234   -3.9246    6.5890 H   0  0  0  0  0  0  0  0  0  0  0  0
    2.9294   -2.3642    6.5875 H   0  0  0  0  0  0  0  0  0  0  0  0
    4.6782   -2.4380    6.4581 H   0  0  0  0  0  0  0  0  0  0  0  0
    3.5242   -1.9058    4.4485 H   0  0  0  0  0  0  0  0  0  0  0  0
    2.2643   -4.6461    4.7933 H   0  0  0  0  0  0  0  0  0  0  0  0
    1.4922   -3.1216    4.7440 H   0  0  0  0  0  0  0  0  0  0  0  0
    1.5535   -4.9681    2.7045 H   0  0  0  0  0  0  0  0  0  0  0  0
    0.9206   -3.3734    2.6905 H   0  0  0  0  0  0  0  0  0  0  0  0
    2.2021   -3.9202    0.7317 H   0  0  0  0  0  0  0  0  0  0  0  0
    3.9021    0.5942    1.7360 H   0  0  0  0  0  0  0  0  0  0  0  0
    3.9935    0.2138    3.4099 H   0  0  0  0  0  0  0  0  0  0  0  0
    6.0902   -0.0772    1.7779 H   0  0  0  0  0  0  0  0  0  0  0  0
    5.9675   -0.9766    3.2023 H   0  0  0  0  0  0  0  0  0  0  0  0
    4.7632   -0.4512    0.0453 H   0  0  0  0  0  0  0  0  0  0  0  0
    5.7656   -1.3748   -0.8404 H   0  0  0  0  0  0  0  0  0  0  0  0
    1.7016   -3.2191   -1.3788 H   0  0  0  0  0  0  0  0  0  0  0  0
    2.2759   -3.8579   -2.9355 H   0  0  0  0  0  0  0  0  0  0  0  0
    2.1271   -2.1144   -2.6859 H   0  0  0  0  0  0  0  0  0  0  0  0
    5.8129   -2.6141   -2.6022 H   0  0  0  0  0  0  0  0  0  0  0  0
    4.4594   -1.8468   -3.4208 H   0  0  0  0  0  0  0  0  0  0  0  0
    4.7101   -3.5949   -3.5616 H   0  0  0  0  0  0  0  0  0  0  0  0
    4.9839   -5.4468   -0.1958 H   0  0  0  0  0  0  0  0  0  0  0  0
    7.0618   -4.7733    0.2024 H   0  0  0  0  0  0  0  0  0  0  0  0
    6.6884   -3.7701   -1.1152 H   0  0  0  0  0  0  0  0  0  0  0  0
    7.4819   -3.0845    1.6481 H   0  0  0  0  0  0  0  0  0  0  0  0
    8.6231   -2.3063    0.0486 H   0  0  0  0  0  0  0  0  0  0  0  0
    3.2984   -6.3192    1.4291 H   0  0  0  0  0  0  0  0  0  0  0  0
    4.6696   -6.6133    5.0918 H   0  0  0  0  0  0  0  0  0  0  0  0
    5.5840   -4.5940    5.6207 H   0  0  0  0  0  0  0  0  0  0  0  0
    6.6126   -4.7389    4.2949 H   0  0  0  0  0  0  0  0  0  0  0  0
    5.6566   -2.6844    4.2234 H   0  0  0  0  0  0  0  0  0  0  0  0
    5.8966   -4.0626    2.3200 H   0  0  0  0  0  0  0  0  0  0  0  0
    6.8755   -6.9799    3.5557 H   0  0  0  0  0  0  0  0  0  0  0  0
    6.0357   -6.6458    1.1153 H   0  0  0  0  0  0  0  0  0  0  0  0
  1  2  1  0
  1 32  1  0
  1 33  1  0
  1 34  1  0
  2 27  1  0
  2  3  1  0
  2 35  1  6
  3  4  1  0
  3 36  1  0
  3 37  1  0
  4  5  1  0
  4 38  1  0
  4 39  1  0
  5 22  1  0
  5  6  1  0
  5 40  1  6
  6  7  1  0
  7  8  2  0
  7  9  1  0
  9 10  1  0
  9 41  1  0
  9 42  1  0
 11 10  1  1
 10 43  1  0
 10 44  1  0
 11 20  1  0
 11 28  1  0
 11 12  1  0
 12 13  1  0
 12 45  1  0
 12 46  1  0
 13 14  1  0
 14 15  1  0
 14 16  1  0
 14 17  1  0
 15 47  1  0
 15 48  1  0
 15 49  1  0
 16 50  1  0
 16 51  1  0
 16 52  1  0
 17 18  1  0
 18 19  1  0
 22 18  1  6
 18 53  1  6
 19 20  1  0
 19 54  1  0
 19 55  1  0
 20 21  1  0
 20 56  1  1
 21 57  1  0
 22 28  1  0
 22 23  1  0
 23 31  1  0
 23 24  1  0
 23 58  1  6
 24 25  1  0
 25 26  1  0
 25 29  1  0
 25 59  1  1
 26 27  1  0
 26 60  1  0
 26 61  1  0
 27 28  1  0
 27 62  1  1
 28 63  1  1
 29 31  1  0
 29 30  1  0
 29 64  1  6
 30 31  1  0
 31 65  1  6
M  END
>  <i_m_ct_stereo_status>  (72) 
1

>  <s_m_source_file>  (72) 
/var/tmp/pbs.5076255.sched01/tmp6mrmgolx/06cp14zw5.sdf

>  <i_m_source_file_index>  (72) 
24

>  <i_lp_mmshare_version>  (72) 
48012

>  <i_f3d_flags>  (72) 
2

>  <s_epik_input>  (72) 
TzFbQ0BASF0yW0NAQEhdKE8zKVtDQEBIXTNbQ0BIXTFbQ0gyXVtDQEBIXTRbQ0BIXShbQ0gzXSlbQ0gyXVtDSDJdW0NAQEhdKE9DKD1PKVtDSDJdW0NIMl01KVtDQF0yKFtDSF00W0NAXTU2NylbQ0BIXShbQ0gyXVtDQEhdN1tPSF0pT0MoW0NIM10pKFtDSDNdKU9bQ0gyXTY=

>  <s_epik_cmdline>  (72) 
J2VwaWtfcHl0aG9uJywgJy1waHQnLCAnMi4wJywgJy1waCcsICc3LjAnLCAnLXRuJywgJzgnLCAnLW1hJywgJzIwMCcsICctaW1hZScsICc8aW5maWxlLm1hZT4nLCAnLW9tYWUnLCAnPG91dGZpbGUubWFlPic=

>  <r_lp_tautomer_probability>  (72) 
1

>  <r_epik_Ionization_Penalty>  (72) 
5.95212e-08

>  <r_epik_Ionization_Penalty_Charging>  (72) 
0

>  <r_epik_Ionization_Penalty_Neutral>  (72) 
5.95212e-08

>  <r_epik_State_Penalty>  (72) 
-0

>  <r_epik_Charging_Adjusted_Penalty>  (72) 
0

>  <i_epik_Tot_Q>  (72) 
0

>  <i_epik_Tot_abs_Q>  (72) 
0

>  <s_epik_Chemistry_Notes>  (72) 
This compound has an ester and may undergo hydrolysis at high or low pH.

>  <s_lp_Force_Field>  (72) 
OPLS3e

>  <r_lp_Energy>  (72) 
188.685

>  <b_lp_Chiralities_Consistent>  (72) 
0

>  <s_lp_Variant>  (72) 
8:0-1

>  <s_i_glide_gridfile>  (72) 
pfpi4k_grid

>  <i_i_glide_lignum>  (72) 
24

>  <i_i_glide_rotatable_bonds>  (72) 
1

>  <r_i_docking_score>  (72) 
-2.46029

>  <r_i_glide_ligand_efficiency>  (72) 
-0.0793642

>  <r_i_glide_ligand_efficiency_sa>  (72) 
-0.249313

>  <r_i_glide_ligand_efficiency_ln>  (72) 
-0.554871

>  <r_i_glide_gscore>  (72) 
-2.46029

>  <r_i_glide_lipo>  (72) 
-0.764495

>  <r_i_glide_hbond>  (72) 
-0.0655809

>  <r_i_glide_metal>  (72) 
-0

>  <r_i_glide_rewards>  (72) 
-0.446437

>  <r_i_glide_evdw>  (72) 
-27.3739

>  <r_i_glide_ecoul>  (72) 
1.45411

>  <r_i_glide_erotb>  (72) 
0

>  <r_i_glide_esite>  (72) 
-0.0331981

>  <r_i_glide_emodel>  (72) 
-29.6708

>  <r_i_glide_energy>  (72) 
-25.9198

>  <r_i_glide_einternal>  (72) 
0.369209

>  <r_i_glide_intrahb_reward>  (72) 
-0

>  <i_i_glide_confnum>  (72) 
1

>  <i_i_glide_posenum>  (72) 
33

>  <r_i_glide_eff_state_penalty>  (72) 
0

>  <ligand_id>  (72) 
8

>  <original_smiles>  (72) 
CC1CCC2OC(=O)CCC34COC(C)(C)OC(CC3O)C23C2OC(CC1C43)C1OC12

>  <smiles>  (72) 
[H]OC1([H])C([H])([H])C2([H])OC(C([H])([H])[H])(C([H])([H])[H])OC([H])([H])C13C([H])([H])C([H])([H])C(=O)OC1([H])C([H])([H])C([H])([H])C([H])(C([H])([H])[H])C4([H])C([H])([H])C5([H])OC([H])(C6([H])OC56[H])C12C43[H]

$$$$
9:0:0
     RDKit          3D

 57 61  0  0  1  0  0  0  0  0999 V2000
   -1.7342   -7.7732    4.4507 C   0  0  0  0  0  0  0  0  0  0  0  0
   -0.7258   -8.4009    3.4852 C   0  0  0  0  0  0  0  0  0  0  0  0
   -1.4779   -9.3259    2.5176 C   0  0  0  0  0  0  0  0  0  0  0  0
    0.0774   -7.3272    2.7645 C   0  0  0  0  0  0  0  0  0  0  0  0
   -0.3804   -6.5218    1.9534 O   0  0  0  0  0  0  0  0  0  0  0  0
    1.5542   -7.4514    3.1730 C   0  0  2  0  0  0  0  0  0  0  0  0
    2.3584   -6.1312    2.9936 C   0  0  0  0  0  0  0  0  0  0  0  0
    4.1600   -6.1892    3.4894 S   0  0  0  0  0  0  0  0  0  0  0  0
    4.2941   -5.4794    4.7657 O   0  0  0  0  0  0  0  0  0  0  0  0
    4.6993   -7.5456    3.3277 O   0  0  0  0  0  0  0  0  0  0  0  0
    4.9288   -5.2105    2.2798 N   0  0  0  0  0  0  0  0  0  0  0  0
    4.8290   -3.7355    2.3258 C   0  0  0  0  0  0  0  0  0  0  0  0
    4.1583   -3.1656    1.0608 C   0  0  0  0  0  0  0  0  0  0  0  0
    4.7691   -3.7156   -0.2329 C   0  0  0  0  0  0  0  0  0  0  0  0
    6.1862   -3.2452   -0.5260 C   0  0  0  0  0  0  0  0  0  0  0  0
    6.3039   -2.6353   -1.7114 C   0  0  0  0  0  0  0  0  0  0  0  0
    4.9763   -2.5583   -2.3236 C   0  0  0  0  0  0  0  0  0  0  0  0
    4.5532   -1.9779   -3.5229 C   0  0  0  0  0  0  0  0  0  0  0  0
    3.1953   -2.0378   -3.8375 C   0  0  0  0  0  0  0  0  0  0  0  0
    2.2783   -2.6616   -2.9775 C   0  0  0  0  0  0  0  0  0  0  0  0
    2.7042   -3.2209   -1.7698 C   0  0  0  0  0  0  0  0  0  0  0  0
    4.0701   -3.1671   -1.4653 C   0  0  0  0  0  0  0  0  0  0  0  0
    4.7447   -5.2487   -0.2176 C   0  0  0  0  0  0  0  0  0  0  0  0
    5.4422   -5.8157    1.0315 C   0  0  0  0  0  0  0  0  0  0  0  0
    2.0911   -8.7410    2.4833 C   0  0  0  0  0  0  0  0  0  0  0  0
    1.3535   -9.8728    3.2509 C   0  0  0  0  0  0  0  0  0  0  0  0
    0.4467   -9.0976    4.2408 C   0  0  1  0  0  0  0  0  0  0  0  0
    1.3715   -7.9236    4.6156 C   0  0  0  0  0  0  0  0  0  0  0  0
   -2.1291   -8.5475    5.1085 H   0  0  0  0  0  0  0  0  0  0  0  0
   -2.5759   -7.3343    3.9177 H   0  0  0  0  0  0  0  0  0  0  0  0
   -1.3069   -6.9885    5.0742 H   0  0  0  0  0  0  0  0  0  0  0  0
   -1.7631  -10.2502    3.0181 H   0  0  0  0  0  0  0  0  0  0  0  0
   -0.8643   -9.6206    1.6605 H   0  0  0  0  0  0  0  0  0  0  0  0
   -2.3771   -8.8706    2.1086 H   0  0  0  0  0  0  0  0  0  0  0  0
    2.2957   -5.7833    1.9648 H   0  0  0  0  0  0  0  0  0  0  0  0
    1.9053   -5.3403    3.5950 H   0  0  0  0  0  0  0  0  0  0  0  0
    4.2634   -3.4265    3.2070 H   0  0  0  0  0  0  0  0  0  0  0  0
    5.8334   -3.3300    2.4368 H   0  0  0  0  0  0  0  0  0  0  0  0
    3.0989   -3.4108    1.0822 H   0  0  0  0  0  0  0  0  0  0  0  0
    4.2246   -2.0763    1.0680 H   0  0  0  0  0  0  0  0  0  0  0  0
    7.0022   -3.4890    0.1580 H   0  0  0  0  0  0  0  0  0  0  0  0
    7.2417   -2.2993   -2.1630 H   0  0  0  0  0  0  0  0  0  0  0  0
    5.2197   -1.4800   -4.2031 H   0  0  0  0  0  0  0  0  0  0  0  0
    2.8498   -1.5702   -4.7326 H   0  0  0  0  0  0  0  0  0  0  0  0
    1.2457   -2.6694   -3.2462 H   0  0  0  0  0  0  0  0  0  0  0  0
    1.9961   -3.6673   -1.0921 H   0  0  0  0  0  0  0  0  0  0  0  0
    3.7209   -5.6153   -0.2834 H   0  0  0  0  0  0  0  0  0  0  0  0
    5.2576   -5.6203   -1.1012 H   0  0  0  0  0  0  0  0  0  0  0  0
    6.5179   -5.6396    0.9969 H   0  0  0  0  0  0  0  0  0  0  0  0
    5.3240   -6.9013    1.0423 H   0  0  0  0  0  0  0  0  0  0  0  0
    1.8758   -8.7440    1.4084 H   0  0  0  0  0  0  0  0  0  0  0  0
    3.1467   -8.9076    2.6218 H   0  0  0  0  0  0  0  0  0  0  0  0
    0.8298  -10.5570    2.5871 H   0  0  0  0  0  0  0  0  0  0  0  0
    2.0790  -10.4760    3.7971 H   0  0  0  0  0  0  0  0  0  0  0  0
    0.1284   -9.7015    5.0945 H   0  0  0  0  0  0  0  0  0  0  0  0
    2.3075   -8.2376    5.0743 H   0  0  0  0  0  0  0  0  0  0  0  0
    0.9055   -7.1813    5.2684 H   0  0  0  0  0  0  0  0  0  0  0  0
  1  2  1  0
  1 29  1  0
  1 30  1  0
  1 31  1  0
  2 27  1  0
  2  3  1  0
  2  4  1  0
  3 32  1  0
  3 33  1  0
  3 34  1  0
  4  5  2  0
  4  6  1  0
  6 28  1  0
  6  7  1  1
  6 25  1  0
  7  8  1  0
  7 35  1  0
  7 36  1  0
  8  9  2  0
  8 10  2  0
  8 11  1  0
 11 24  1  0
 11 12  1  0
 12 13  1  0
 12 37  1  0
 12 38  1  0
 13 14  1  0
 13 39  1  0
 13 40  1  0
 14 22  1  0
 14 15  1  0
 14 23  1  0
 15 16  2  0
 15 41  1  0
 16 17  1  0
 16 42  1  0
 17 22  2  0
 17 18  1  0
 18 19  2  0
 18 43  1  0
 19 20  1  0
 19 44  1  0
 20 21  2  0
 20 45  1  0
 21 22  1  0
 21 46  1  0
 23 24  1  0
 23 47  1  0
 23 48  1  0
 24 49  1  0
 24 50  1  0
 25 26  1  0
 25 51  1  0
 25 52  1  0
 26 27  1  0
 26 53  1  0
 26 54  1  0
 27 28  1  0
 27 55  1  1
 28 56  1  0
 28 57  1  0
M  END
>  <i_m_ct_stereo_status>  (73) 
1

>  <s_m_source_file>  (73) 
/var/tmp/pbs.5076255.sched01/tmp6mrmgolx/06cp14zw5.sdf

>  <i_m_source_file_index>  (73) 
25

>  <i_lp_mmshare_version>  (73) 
48012

>  <i_f3d_flags>  (73) 
0

>  <s_epik_input>  (73) 
W0NIMl0xW0NIMl1bQ0BASF0oW0NIMl0yKUMoW0NIM10pKFtDSDNdKUMoPU8pW0NAXTEyW0NIMl1TKD1PKSg9TylOKFtDSDJdW0NIMl0zKVtDSDJdW0NIMl1DMzRjNWMoW0NIXT1bQ0hdNClbY0hdW2NIXVtjSF1bY0hdNQ==

>  <s_epik_cmdline>  (73) 
J2VwaWtfcHl0aG9uJywgJy1waHQnLCAnMi4wJywgJy1waCcsICc3LjAnLCAnLXRuJywgJzgnLCAnLW1hJywgJzIwMCcsICctaW1hZScsICc8aW5maWxlLm1hZT4nLCAnLW9tYWUnLCAnPG91dGZpbGUubWFlPic=

>  <r_lp_tautomer_probability>  (73) 
1

>  <r_epik_Ionization_Penalty>  (73) 
1.59367e-09

>  <r_epik_Ionization_Penalty_Charging>  (73) 
0

>  <r_epik_Ionization_Penalty_Neutral>  (73) 
1.59367e-09

>  <r_epik_State_Penalty>  (73) 
-0

>  <r_epik_Charging_Adjusted_Penalty>  (73) 
0

>  <i_epik_Tot_Q>  (73) 
0

>  <i_epik_Tot_abs_Q>  (73) 
0

>  <s_lp_Force_Field>  (73) 
OPLS3e

>  <r_lp_Energy>  (73) 
54.391

>  <b_lp_Chiralities_Consistent>  (73) 
1

>  <s_lp_Variant>  (73) 
9:0-1

>  <s_i_glide_gridfile>  (73) 
pfpi4k_grid

>  <i_i_glide_lignum>  (73) 
25

>  <i_i_glide_rotatable_bonds>  (73) 
3

>  <r_i_docking_score>  (73) 
-3.57156

>  <r_i_glide_ligand_efficiency>  (73) 
-0.127556

>  <r_i_glide_ligand_efficiency_sa>  (73) 
-0.387334

>  <r_i_glide_ligand_efficiency_ln>  (73) 
-0.82442

>  <r_i_glide_gscore>  (73) 
-3.57156

>  <r_i_glide_lipo>  (73) 
-0.977632

>  <r_i_glide_hbond>  (73) 
-0.21705

>  <r_i_glide_metal>  (73) 
-0

>  <r_i_glide_rewards>  (73) 
-0.694509

>  <r_i_glide_evdw>  (73) 
-28.7663

>  <r_i_glide_ecoul>  (73) 
-3.70901

>  <r_i_glide_erotb>  (73) 
0.36825

>  <r_i_glide_esite>  (73) 
-0.0559513

>  <r_i_glide_emodel>  (73) 
-39.4712

>  <r_i_glide_energy>  (73) 
-32.4753

>  <r_i_glide_einternal>  (73) 
2.19234

>  <r_i_glide_intrahb_reward>  (73) 
-0

>  <i_i_glide_confnum>  (73) 
1

>  <i_i_glide_posenum>  (73) 
14

>  <r_i_glide_eff_state_penalty>  (73) 
0

>  <ligand_id>  (73) 
9

>  <original_smiles>  (73) 
CC1(C)C(=O)C2(CS(=O)(=O)N3CCC4(C=Cc5ccccc54)CC3)CCC1C2

>  <smiles>  (73) 
[H]C1=C([H])C2(c3c([H])c([H])c([H])c([H])c31)C([H])([H])C([H])([H])N(S(=O)(=O)C([H])([H])C13C(=O)C(C([H])([H])[H])(C([H])([H])[H])C([H])(C([H])([H])C1([H])[H])C3([H])[H])C([H])([H])C2([H])[H]

$$$$
9:0:1
     RDKit          3D

 57 61  0  0  1  0  0  0  0  0999 V2000
   -0.5821   -8.4553    5.0875 C   0  0  0  0  0  0  0  0  0  0  0  0
    0.2298   -8.5714    3.7936 C   0  0  0  0  0  0  0  0  0  0  0  0
   -0.6455   -9.1980    2.6942 C   0  0  0  0  0  0  0  0  0  0  0  0
    0.7793   -7.2113    3.3861 C   0  0  0  0  0  0  0  0  0  0  0  0
    0.1098   -6.2422    3.0362 O   0  0  0  0  0  0  0  0  0  0  0  0
    2.3159   -7.2670    3.4612 C   0  0  2  0  0  0  0  0  0  0  0  0
    2.9797   -5.8760    3.6383 C   0  0  0  0  0  0  0  0  0  0  0  0
    4.8263   -5.9047    3.9328 S   0  0  0  0  0  0  0  0  0  0  0  0
    5.1074   -5.0824    5.1215 O   0  0  0  0  0  0  0  0  0  0  0  0
    5.3371   -7.2837    3.8565 O   0  0  0  0  0  0  0  0  0  0  0  0
    5.4603   -5.0451    2.5606 N   0  0  0  0  0  0  0  0  0  0  0  0
    5.3458   -3.5727    2.4710 C   0  0  0  0  0  0  0  0  0  0  0  0
    4.5410   -3.1264    1.2362 C   0  0  0  0  0  0  0  0  0  0  0  0
    5.0174   -3.8032   -0.0557 C   0  0  0  0  0  0  0  0  0  0  0  0
    6.4021   -3.3749   -0.5334 C   0  0  0  0  0  0  0  0  0  0  0  0
    6.3697   -2.8787   -1.7899 C   0  0  0  0  0  0  0  0  0  0  0  0
    4.9780   -2.8623   -2.2679 C   0  0  0  0  0  0  0  0  0  0  0  0
    4.4218   -2.4097   -3.4720 C   0  0  0  0  0  0  0  0  0  0  0  0
    3.0359   -2.5026   -3.6243 C   0  0  0  0  0  0  0  0  0  0  0  0
    2.2272   -3.0224   -2.6018 C   0  0  0  0  0  0  0  0  0  0  0  0
    2.7891   -3.4527   -1.3991 C   0  0  0  0  0  0  0  0  0  0  0  0
    4.1792   -3.3819   -1.2533 C   0  0  0  0  0  0  0  0  0  0  0  0
    5.0095   -5.3276    0.1157 C   0  0  0  0  0  0  0  0  0  0  0  0
    5.8495   -5.7699    1.3296 C   0  0  0  0  0  0  0  0  0  0  0  0
    2.8040   -8.1443    2.2784 C   0  0  0  0  0  0  0  0  0  0  0  0
    2.3170   -9.5656    2.6793 C   0  0  0  0  0  0  0  0  0  0  0  0
    1.5759   -9.3164    4.0196 C   0  0  1  0  0  0  0  0  0  0  0  0
    2.4703   -8.2326    4.6368 C   0  0  0  0  0  0  0  0  0  0  0  0
   -0.7838   -9.4396    5.5080 H   0  0  0  0  0  0  0  0  0  0  0  0
   -1.5437   -7.9802    4.8919 H   0  0  0  0  0  0  0  0  0  0  0  0
   -0.0878   -7.8765    5.8621 H   0  0  0  0  0  0  0  0  0  0  0  0
   -0.7695  -10.2648    2.8735 H   0  0  0  0  0  0  0  0  0  0  0  0
   -0.2211   -9.0734    1.6995 H   0  0  0  0  0  0  0  0  0  0  0  0
   -1.6395   -8.7542    2.6556 H   0  0  0  0  0  0  0  0  0  0  0  0
    2.7832   -5.2336    2.7800 H   0  0  0  0  0  0  0  0  0  0  0  0
    2.5414   -5.3676    4.4980 H   0  0  0  0  0  0  0  0  0  0  0  0
    4.8834   -3.1749    3.3765 H   0  0  0  0  0  0  0  0  0  0  0  0
    6.3475   -3.1537    2.4270 H   0  0  0  0  0  0  0  0  0  0  0  0
    3.4918   -3.3643    1.3949 H   0  0  0  0  0  0  0  0  0  0  0  0
    4.5985   -2.0421    1.1305 H   0  0  0  0  0  0  0  0  0  0  0  0
    7.2823   -3.5560    0.1006 H   0  0  0  0  0  0  0  0  0  0  0  0
    7.2467   -2.5859   -2.3767 H   0  0  0  0  0  0  0  0  0  0  0  0
    5.0226   -1.9908   -4.2625 H   0  0  0  0  0  0  0  0  0  0  0  0
    2.5989   -2.1515   -4.5360 H   0  0  0  0  0  0  0  0  0  0  0  0
    1.1685   -3.0595   -2.7433 H   0  0  0  0  0  0  0  0  0  0  0  0
    2.1712   -3.8399   -0.6083 H   0  0  0  0  0  0  0  0  0  0  0  0
    3.9894   -5.6956    0.2072 H   0  0  0  0  0  0  0  0  0  0  0  0
    5.4148   -5.7923   -0.7782 H   0  0  0  0  0  0  0  0  0  0  0  0
    6.9136   -5.5885    1.1667 H   0  0  0  0  0  0  0  0  0  0  0  0
    5.7523   -6.8485    1.4682 H   0  0  0  0  0  0  0  0  0  0  0  0
    2.3965   -7.8116    1.3211 H   0  0  0  0  0  0  0  0  0  0  0  0
    3.8853   -8.1538    2.1782 H   0  0  0  0  0  0  0  0  0  0  0  0
    1.6980  -10.0247    1.9125 H   0  0  0  0  0  0  0  0  0  0  0  0
    3.1684  -10.2313    2.8241 H   0  0  0  0  0  0  0  0  0  0  0  0
    1.4840  -10.2134    4.6334 H   0  0  0  0  0  0  0  0  0  0  0  0
    3.4900   -8.5817    4.7911 H   0  0  0  0  0  0  0  0  0  0  0  0
    2.1067   -7.8309    5.5841 H   0  0  0  0  0  0  0  0  0  0  0  0
  1  2  1  0
  1 29  1  0
  1 30  1  0
  1 31  1  0
  2 27  1  0
  2  3  1  0
  2  4  1  0
  3 32  1  0
  3 33  1  0
  3 34  1  0
  4  5  2  0
  4  6  1  0
  6 28  1  0
  6  7  1  1
  6 25  1  0
  7  8  1  0
  7 35  1  0
  7 36  1  0
  8  9  2  0
  8 10  2  0
  8 11  1  0
 11 24  1  0
 11 12  1  0
 12 13  1  0
 12 37  1  0
 12 38  1  0
 13 14  1  0
 13 39  1  0
 13 40  1  0
 14 22  1  0
 14 15  1  0
 14 23  1  0
 15 16  2  0
 15 41  1  0
 16 17  1  0
 16 42  1  0
 17 22  2  0
 17 18  1  0
 18 19  2  0
 18 43  1  0
 19 20  1  0
 19 44  1  0
 20 21  2  0
 20 45  1  0
 21 22  1  0
 21 46  1  0
 23 24  1  0
 23 47  1  0
 23 48  1  0
 24 49  1  0
 24 50  1  0
 25 26  1  0
 25 51  1  0
 25 52  1  0
 26 27  1  0
 26 53  1  0
 26 54  1  0
 27 28  1  0
 27 55  1  1
 28 56  1  0
 28 57  1  0
M  END
>  <i_m_ct_stereo_status>  (74) 
1

>  <s_m_source_file>  (74) 
/var/tmp/pbs.5076255.sched01/tmp6mrmgolx/06cp14zw5.sdf

>  <i_m_source_file_index>  (74) 
25

>  <i_lp_mmshare_version>  (74) 
48012

>  <i_f3d_flags>  (74) 
0

>  <s_epik_input>  (74) 
W0NIMl0xW0NIMl1bQ0BASF0oW0NIMl0yKUMoW0NIM10pKFtDSDNdKUMoPU8pW0NAXTEyW0NIMl1TKD1PKSg9TylOKFtDSDJdW0NIMl0zKVtDSDJdW0NIMl1DMzRjNWMoW0NIXT1bQ0hdNClbY0hdW2NIXVtjSF1bY0hdNQ==

>  <s_epik_cmdline>  (74) 
J2VwaWtfcHl0aG9uJywgJy1waHQnLCAnMi4wJywgJy1waCcsICc3LjAnLCAnLXRuJywgJzgnLCAnLW1hJywgJzIwMCcsICctaW1hZScsICc8aW5maWxlLm1hZT4nLCAnLW9tYWUnLCAnPG91dGZpbGUubWFlPic=

>  <r_lp_tautomer_probability>  (74) 
1

>  <r_epik_Ionization_Penalty>  (74) 
1.59367e-09

>  <r_epik_Ionization_Penalty_Charging>  (74) 
0

>  <r_epik_Ionization_Penalty_Neutral>  (74) 
1.59367e-09

>  <r_epik_State_Penalty>  (74) 
-0

>  <r_epik_Charging_Adjusted_Penalty>  (74) 
0

>  <i_epik_Tot_Q>  (74) 
0

>  <i_epik_Tot_abs_Q>  (74) 
0

>  <s_lp_Force_Field>  (74) 
OPLS3e

>  <r_lp_Energy>  (74) 
54.391

>  <b_lp_Chiralities_Consistent>  (74) 
1

>  <s_lp_Variant>  (74) 
9:0-1

>  <s_i_glide_gridfile>  (74) 
pfpi4k_grid

>  <i_i_glide_lignum>  (74) 
25

>  <i_i_glide_rotatable_bonds>  (74) 
3

>  <r_i_docking_score>  (74) 
-3.32713

>  <r_i_glide_ligand_efficiency>  (74) 
-0.118826

>  <r_i_glide_ligand_efficiency_sa>  (74) 
-0.360826

>  <r_i_glide_ligand_efficiency_ln>  (74) 
-0.767999

>  <r_i_glide_gscore>  (74) 
-3.32713

>  <r_i_glide_lipo>  (74) 
-1.0366

>  <r_i_glide_hbond>  (74) 
-0.125744

>  <r_i_glide_metal>  (74) 
-0

>  <r_i_glide_rewards>  (74) 
-0.703775

>  <r_i_glide_evdw>  (74) 
-30.8369

>  <r_i_glide_ecoul>  (74) 
-1.7361

>  <r_i_glide_erotb>  (74) 
0.36825

>  <r_i_glide_esite>  (74) 
-0.0269987

>  <r_i_glide_emodel>  (74) 
-39.9453

>  <r_i_glide_energy>  (74) 
-32.573

>  <r_i_glide_einternal>  (74) 
1.47838

>  <r_i_glide_intrahb_reward>  (74) 
-0

>  <i_i_glide_confnum>  (74) 
1

>  <i_i_glide_posenum>  (74) 
9

>  <r_i_glide_eff_state_penalty>  (74) 
0

>  <ligand_id>  (74) 
9

>  <original_smiles>  (74) 
CC1(C)C(=O)C2(CS(=O)(=O)N3CCC4(C=Cc5ccccc54)CC3)CCC1C2

>  <smiles>  (74) 
[H]C1=C([H])C2(c3c([H])c([H])c([H])c([H])c31)C([H])([H])C([H])([H])N(S(=O)(=O)C([H])([H])C13C(=O)C(C([H])([H])[H])(C([H])([H])[H])C([H])(C([H])([H])C1([H])[H])C3([H])[H])C([H])([H])C2([H])[H]

$$$$
9:0:2
     RDKit          3D

 57 61  0  0  1  0  0  0  0  0999 V2000
    2.9516   -2.7568   -2.8779 C   0  0  0  0  0  0  0  0  0  0  0  0
    4.2205   -2.9502   -2.0305 C   0  0  0  0  0  0  0  0  0  0  0  0
    5.3263   -3.5631   -2.9051 C   0  0  0  0  0  0  0  0  0  0  0  0
    4.6458   -1.6309   -1.3797 C   0  0  0  0  0  0  0  0  0  0  0  0
    5.0437   -0.6353   -1.9686 O   0  0  0  0  0  0  0  0  0  0  0  0
    4.5197   -1.7870    0.1453 C   0  0  2  0  0  0  0  0  0  0  0  0
    4.3501   -0.4402    0.8978 C   0  0  0  0  0  0  0  0  0  0  0  0
    3.9342   -0.5658    2.7198 S   0  0  0  0  0  0  0  0  0  0  0  0
    3.6108   -1.9484    3.0873 O   0  0  0  0  0  0  0  0  0  0  0  0
    4.9991    0.1422    3.4631 O   0  0  0  0  0  0  0  0  0  0  0  0
    2.4586    0.3693    2.8505 N   0  0  0  0  0  0  0  0  0  0  0  0
    2.4743    1.8121    3.1760 C   0  0  0  0  0  0  0  0  0  0  0  0
    1.6691    2.0952    4.4568 C   0  0  0  0  0  0  0  0  0  0  0  0
    0.2571    1.4826    4.4221 C   0  0  0  0  0  0  0  0  0  0  0  0
   -0.6969    2.1438    3.4210 C   0  0  0  0  0  0  0  0  0  0  0  0
   -1.8066    2.6066    4.0057 C   0  0  0  0  0  0  0  0  0  0  0  0
   -1.7164    2.3795    5.4606 C   0  0  0  0  0  0  0  0  0  0  0  0
   -2.6020    2.7241    6.4904 C   0  0  0  0  0  0  0  0  0  0  0  0
   -2.2192    2.4018    7.7981 C   0  0  0  0  0  0  0  0  0  0  0  0
   -0.9912    1.7719    8.0619 C   0  0  0  0  0  0  0  0  0  0  0  0
   -0.1163    1.4297    7.0219 C   0  0  0  0  0  0  0  0  0  0  0  0
   -0.5064    1.7412    5.7160 C   0  0  0  0  0  0  0  0  0  0  0  0
    0.3369   -0.0158    4.0993 C   0  0  0  0  0  0  0  0  0  0  0  0
    1.1303   -0.2894    2.8012 C   0  0  0  0  0  0  0  0  0  0  0  0
    5.6616   -2.7271    0.6247 C   0  0  0  0  0  0  0  0  0  0  0  0
    5.2440   -4.1007    0.0390 C   0  0  0  0  0  0  0  0  0  0  0  0
    3.9372   -3.7717   -0.7332 C   0  0  1  0  0  0  0  0  0  0  0  0
    3.3214   -2.7364    0.2038 C   0  0  0  0  0  0  0  0  0  0  0  0
    2.5089   -3.7113   -3.1546 H   0  0  0  0  0  0  0  0  0  0  0  0
    3.1717   -2.2173   -3.7960 H   0  0  0  0  0  0  0  0  0  0  0  0
    2.1860   -2.1857   -2.3596 H   0  0  0  0  0  0  0  0  0  0  0  0
    5.1117   -4.6147   -3.0961 H   0  0  0  0  0  0  0  0  0  0  0  0
    6.3141   -3.5017   -2.4492 H   0  0  0  0  0  0  0  0  0  0  0  0
    5.4010   -3.0635   -3.8673 H   0  0  0  0  0  0  0  0  0  0  0  0
    5.2611    0.1575    0.8080 H   0  0  0  0  0  0  0  0  0  0  0  0
    3.5567    0.1434    0.4238 H   0  0  0  0  0  0  0  0  0  0  0  0
    3.5002    2.1535    3.3189 H   0  0  0  0  0  0  0  0  0  0  0  0
    2.0777    2.3725    2.3304 H   0  0  0  0  0  0  0  0  0  0  0  0
    2.2106    1.6803    5.3060 H   0  0  0  0  0  0  0  0  0  0  0  0
    1.6063    3.1696    4.6216 H   0  0  0  0  0  0  0  0  0  0  0  0
   -0.4587    2.1365    2.3358 H   0  0  0  0  0  0  0  0  0  0  0  0
   -2.6577    3.0452    3.4677 H   0  0  0  0  0  0  0  0  0  0  0  0
   -3.5367    3.2048    6.2560 H   0  0  0  0  0  0  0  0  0  0  0  0
   -2.8779    2.6482    8.5954 H   0  0  0  0  0  0  0  0  0  0  0  0
   -0.7209    1.5537    9.0683 H   0  0  0  0  0  0  0  0  0  0  0  0
    0.8290    0.9634    7.2132 H   0  0  0  0  0  0  0  0  0  0  0  0
    0.7919   -0.5530    4.9295 H   0  0  0  0  0  0  0  0  0  0  0  0
   -0.6711   -0.4183    3.9869 H   0  0  0  0  0  0  0  0  0  0  0  0
    0.5998    0.0764    1.9197 H   0  0  0  0  0  0  0  0  0  0  0  0
    1.2388   -1.3686    2.6561 H   0  0  0  0  0  0  0  0  0  0  0  0
    6.6429   -2.4004    0.2668 H   0  0  0  0  0  0  0  0  0  0  0  0
    5.7094   -2.7789    1.7155 H   0  0  0  0  0  0  0  0  0  0  0  0
    6.0197   -4.5481   -0.5812 H   0  0  0  0  0  0  0  0  0  0  0  0
    5.0506   -4.8121    0.8437 H   0  0  0  0  0  0  0  0  0  0  0  0
    3.3005   -4.6420   -0.8836 H   0  0  0  0  0  0  0  0  0  0  0  0
    3.1218   -3.1734    1.1809 H   0  0  0  0  0  0  0  0  0  0  0  0
    2.4039   -2.2717   -0.1554 H   0  0  0  0  0  0  0  0  0  0  0  0
  1  2  1  0
  1 29  1  0
  1 30  1  0
  1 31  1  0
  2 27  1  0
  2  3  1  0
  2  4  1  0
  3 32  1  0
  3 33  1  0
  3 34  1  0
  4  5  2  0
  4  6  1  0
  6 28  1  0
  6  7  1  1
  6 25  1  0
  7  8  1  0
  7 35  1  0
  7 36  1  0
  8  9  2  0
  8 10  2  0
  8 11  1  0
 11 24  1  0
 11 12  1  0
 12 13  1  0
 12 37  1  0
 12 38  1  0
 13 14  1  0
 13 39  1  0
 13 40  1  0
 14 22  1  0
 14 15  1  0
 14 23  1  0
 15 16  2  0
 15 41  1  0
 16 17  1  0
 16 42  1  0
 17 22  2  0
 17 18  1  0
 18 19  2  0
 18 43  1  0
 19 20  1  0
 19 44  1  0
 20 21  2  0
 20 45  1  0
 21 22  1  0
 21 46  1  0
 23 24  1  0
 23 47  1  0
 23 48  1  0
 24 49  1  0
 24 50  1  0
 25 26  1  0
 25 51  1  0
 25 52  1  0
 26 27  1  0
 26 53  1  0
 26 54  1  0
 27 28  1  0
 27 55  1  6
 28 56  1  0
 28 57  1  0
M  END
>  <i_m_ct_stereo_status>  (75) 
1

>  <s_m_source_file>  (75) 
/var/tmp/pbs.5076255.sched01/tmp6mrmgolx/06cp14zw5.sdf

>  <i_m_source_file_index>  (75) 
25

>  <i_lp_mmshare_version>  (75) 
48012

>  <i_f3d_flags>  (75) 
0

>  <s_epik_input>  (75) 
W0NIMl0xW0NIMl1bQ0BASF0oW0NIMl0yKUMoW0NIM10pKFtDSDNdKUMoPU8pW0NAXTEyW0NIMl1TKD1PKSg9TylOKFtDSDJdW0NIMl0zKVtDSDJdW0NIMl1DMzRjNWMoW0NIXT1bQ0hdNClbY0hdW2NIXVtjSF1bY0hdNQ==

>  <s_epik_cmdline>  (75) 
J2VwaWtfcHl0aG9uJywgJy1waHQnLCAnMi4wJywgJy1waCcsICc3LjAnLCAnLXRuJywgJzgnLCAnLW1hJywgJzIwMCcsICctaW1hZScsICc8aW5maWxlLm1hZT4nLCAnLW9tYWUnLCAnPG91dGZpbGUubWFlPic=

>  <r_lp_tautomer_probability>  (75) 
1

>  <r_epik_Ionization_Penalty>  (75) 
1.59367e-09

>  <r_epik_Ionization_Penalty_Charging>  (75) 
0

>  <r_epik_Ionization_Penalty_Neutral>  (75) 
1.59367e-09

>  <r_epik_State_Penalty>  (75) 
-0

>  <r_epik_Charging_Adjusted_Penalty>  (75) 
0

>  <i_epik_Tot_Q>  (75) 
0

>  <i_epik_Tot_abs_Q>  (75) 
0

>  <s_lp_Force_Field>  (75) 
OPLS3e

>  <r_lp_Energy>  (75) 
54.391

>  <b_lp_Chiralities_Consistent>  (75) 
1

>  <s_lp_Variant>  (75) 
9:0-1

>  <s_i_glide_gridfile>  (75) 
pfpi4k_grid

>  <i_i_glide_lignum>  (75) 
25

>  <i_i_glide_rotatable_bonds>  (75) 
3

>  <r_i_docking_score>  (75) 
-3.2598

>  <r_i_glide_ligand_efficiency>  (75) 
-0.116422

>  <r_i_glide_ligand_efficiency_sa>  (75) 
-0.353525

>  <r_i_glide_ligand_efficiency_ln>  (75) 
-0.752459

>  <r_i_glide_gscore>  (75) 
-3.2598

>  <r_i_glide_lipo>  (75) 
-0.583826

>  <r_i_glide_hbond>  (75) 
0

>  <r_i_glide_metal>  (75) 
-0

>  <r_i_glide_rewards>  (75) 
-0.725508

>  <r_i_glide_evdw>  (75) 
-35.9472

>  <r_i_glide_ecoul>  (75) 
-3.18471

>  <r_i_glide_erotb>  (75) 
0.36825

>  <r_i_glide_esite>  (75) 
-0.0436554

>  <r_i_glide_emodel>  (75) 
-45.6001

>  <r_i_glide_energy>  (75) 
-39.1319

>  <r_i_glide_einternal>  (75) 
3.10807

>  <r_i_glide_intrahb_reward>  (75) 
-0

>  <i_i_glide_confnum>  (75) 
4

>  <i_i_glide_posenum>  (75) 
21

>  <r_i_glide_eff_state_penalty>  (75) 
0

>  <ligand_id>  (75) 
9

>  <original_smiles>  (75) 
CC1(C)C(=O)C2(CS(=O)(=O)N3CCC4(C=Cc5ccccc54)CC3)CCC1C2

>  <smiles>  (75) 
[H]C1=C([H])C2(c3c([H])c([H])c([H])c([H])c31)C([H])([H])C([H])([H])N(S(=O)(=O)C([H])([H])C13C(=O)C(C([H])([H])[H])(C([H])([H])[H])C([H])(C([H])([H])C1([H])[H])C3([H])[H])C([H])([H])C2([H])[H]

$$$$
10:0:0
     RDKit          3D

 53 58  0  0  1  0  0  0  0  0999 V2000
    5.1971   -6.5608    1.0442 C   0  0  0  0  0  0  0  0  0  0  0  0
    4.5183   -5.4298    1.3011 C   0  0  0  0  0  0  0  0  0  0  0  0
    3.6292   -4.7677    0.2503 C   0  0  0  0  0  0  0  0  0  0  0  0
    3.7652   -3.2552    0.2872 C   0  0  0  0  0  0  0  0  0  0  0  0
    3.8118   -2.6590    1.4941 C   0  0  0  0  0  0  0  0  0  0  0  0
    4.0860   -1.1906    1.7234 C   0  0  1  0  0  0  0  0  0  0  0  0
    4.7263   -0.5695    0.4944 C   0  0  0  0  0  0  0  0  0  0  0  0
    4.6269   -1.1192   -0.7307 C   0  0  0  0  0  0  0  0  0  0  0  0
    3.9720   -2.4676   -1.0161 C   0  0  1  0  0  0  0  0  0  0  0  0
    4.8121   -3.2050   -2.0790 C   0  0  0  0  0  0  0  0  0  0  0  0
    2.7546   -0.4780    2.0460 C   0  0  0  0  0  0  0  0  0  0  0  0
    2.6175    0.6877    1.6695 O   0  0  0  0  0  0  0  0  0  0  0  0
    1.6725   -1.1369    2.8258 C   0  0  0  0  0  0  0  0  0  0  0  0
    1.7185   -2.2621    3.5826 C   0  0  0  0  0  0  0  0  0  0  0  0
    2.8491   -3.2639    3.9010 C   0  0  2  0  0  0  0  0  0  0  0  0
    2.3039   -4.5024    4.6295 C   0  0  0  0  0  0  0  0  0  0  0  0
    1.4082   -5.4452    3.8028 C   0  0  0  0  0  0  0  0  0  0  0  0
    1.1742   -5.2015    2.6188 O   0  0  0  0  0  0  0  0  0  0  0  0
    0.8553   -6.6359    4.5063 C   0  0  0  0  0  0  0  0  0  0  0  0
    1.3278   -7.0049    5.7890 C   0  0  0  0  0  0  0  0  0  0  0  0
    0.8083   -8.1534    6.4080 C   0  0  0  0  0  0  0  0  0  0  0  0
   -0.1653   -8.8984    5.7280 C   0  0  0  0  0  0  0  0  0  0  0  0
   -0.5815   -8.4666    4.4550 C   0  0  0  0  0  0  0  0  0  0  0  0
   -0.0952   -7.3544    3.8597 N   0  0  0  0  0  0  0  0  0  0  0  0
    3.9690   -2.6089    4.7176 C   0  0  0  0  0  0  0  0  0  0  0  0
    3.7709   -1.6764    5.9050 C   0  0  0  0  0  0  0  0  0  0  0  0
    4.7733   -2.4921    3.6538 C   0  0  0  0  0  0  0  0  0  0  0  0
    4.9682   -1.2181    2.9644 C   0  0  0  0  0  0  0  0  0  0  0  0
    5.6716   -0.2747    3.3285 O   0  0  0  0  0  0  0  0  0  0  0  0
    3.9405   -3.4341    2.7912 C   0  0  2  0  0  0  0  0  0  0  0  0
    4.6371   -4.7828    2.6400 C   0  0  0  0  0  0  0  0  0  0  0  0
    5.2166   -5.3578    3.5660 O   0  0  0  0  0  0  0  0  0  0  0  0
    5.8256   -7.0335    1.7889 H   0  0  0  0  0  0  0  0  0  0  0  0
    5.1142   -7.0473    0.0841 H   0  0  0  0  0  0  0  0  0  0  0  0
    3.8476   -5.1889   -0.7242 H   0  0  0  0  0  0  0  0  0  0  0  0
    2.5871   -5.0064    0.4580 H   0  0  0  0  0  0  0  0  0  0  0  0
    5.1928    0.3958    0.6153 H   0  0  0  0  0  0  0  0  0  0  0  0
    5.0174   -0.5874   -1.5860 H   0  0  0  0  0  0  0  0  0  0  0  0
    2.9849   -2.2743   -1.4416 H   0  0  0  0  0  0  0  0  0  0  0  0
    5.7782   -3.5293   -1.6888 H   0  0  0  0  0  0  0  0  0  0  0  0
    5.0052   -2.5638   -2.9374 H   0  0  0  0  0  0  0  0  0  0  0  0
    4.2987   -4.0769   -2.4809 H   0  0  0  0  0  0  0  0  0  0  0  0
    0.7123   -0.6359    2.7639 H   0  0  0  0  0  0  0  0  0  0  0  0
    0.7782   -2.5328    4.0342 H   0  0  0  0  0  0  0  0  0  0  0  0
    3.1374   -5.0966    5.0050 H   0  0  0  0  0  0  0  0  0  0  0  0
    1.7412   -4.1980    5.5080 H   0  0  0  0  0  0  0  0  0  0  0  0
    2.0878   -6.4434    6.3105 H   0  0  0  0  0  0  0  0  0  0  0  0
    1.1600   -8.4563    7.3839 H   0  0  0  0  0  0  0  0  0  0  0  0
   -0.5839   -9.7978    6.1571 H   0  0  0  0  0  0  0  0  0  0  0  0
   -1.3228   -9.0269    3.9041 H   0  0  0  0  0  0  0  0  0  0  0  0
    3.3102   -2.2170    6.7388 H   0  0  0  0  0  0  0  0  0  0  0  0
    3.1622   -0.8028    5.6684 H   0  0  0  0  0  0  0  0  0  0  0  0
    4.7441   -1.3246    6.2490 H   0  0  0  0  0  0  0  0  0  0  0  0
  1  2  2  0
  1 33  1  0
  1 34  1  0
  2 31  1  0
  2  3  1  0
  3  4  1  0
  3 35  1  0
  3 36  1  0
  4  9  1  0
  4  5  2  0
  5 30  1  0
  5  6  1  0
  6 28  1  1
  6  7  1  0
  6 11  1  0
  7  8  2  0
  7 37  1  0
  8  9  1  0
  8 38  1  0
  9 10  1  0
  9 39  1  6
 10 40  1  0
 10 41  1  0
 10 42  1  0
 11 12  2  0
 11 13  1  0
 13 14  2  0
 13 43  1  0
 14 15  1  0
 14 44  1  0
 15 30  1  0
 15 16  1  1
 15 25  1  0
 16 17  1  0
 16 45  1  0
 16 46  1  0
 17 18  2  0
 17 19  1  0
 19 24  1  0
 19 20  2  0
 20 21  1  0
 20 47  1  0
 21 22  2  0
 21 48  1  0
 22 23  1  0
 22 49  1  0
 23 24  2  0
 23 50  1  0
 25 26  1  0
 25 27  2  0
 26 51  1  0
 26 52  1  0
 26 53  1  0
 27 28  1  0
 27 30  1  0
 28 29  2  0
 30 31  1  6
 31 32  2  0
M  END
>  <i_m_ct_stereo_status>  (76) 
1

>  <s_m_source_file>  (76) 
/var/tmp/pbs.5076255.sched01/tmp6mrmgolx/06cp14zw5.sdf

>  <i_m_source_file_index>  (76) 
26

>  <i_lp_mmshare_version>  (76) 
48012

>  <i_f3d_flags>  (76) 
0

>  <s_epik_input>  (76) 
W0NIXTE9W0NIXVtDQEBIXShbQ0gzXSlDPTJbQ0gyXUMoPVtDSDJdKUMoPU8pW0NAQF0zKEMyW0NAQF0xNDUpW0NAXShbQ0hdPVtDSF1DND1PKShDKFtDSDNdKT1DM0M1PU8pW0NIMl1DKD1PKWM2W2NIXVtjSF1bY0hdW2NIXW42

>  <s_epik_cmdline>  (76) 
J2VwaWtfcHl0aG9uJywgJy1waHQnLCAnMi4wJywgJy1waCcsICc3LjAnLCAnLXRuJywgJzgnLCAnLW1hJywgJzIwMCcsICctaW1hZScsICc8aW5maWxlLm1hZT4nLCAnLW9tYWUnLCAnPG91dGZpbGUubWFlPic=

>  <r_lp_tautomer_probability>  (76) 
1

>  <r_epik_Ionization_Penalty>  (76) 
3.84622e-07

>  <r_epik_Ionization_Penalty_Charging>  (76) 
0

>  <r_epik_Ionization_Penalty_Neutral>  (76) 
3.84622e-07

>  <r_epik_State_Penalty>  (76) 
-0

>  <r_epik_Charging_Adjusted_Penalty>  (76) 
0

>  <i_epik_Tot_Q>  (76) 
0

>  <i_epik_Tot_abs_Q>  (76) 
0

>  <s_lp_Force_Field>  (76) 
OPLS3e

>  <r_lp_Energy>  (76) 
89.1844

>  <b_lp_Chiralities_Consistent>  (76) 
1

>  <s_lp_Variant>  (76) 
10:0-1

>  <s_i_glide_gridfile>  (76) 
pfpi4k_grid

>  <i_i_glide_lignum>  (76) 
26

>  <i_i_glide_rotatable_bonds>  (76) 
3

>  <r_i_docking_score>  (76) 
-2.67373

>  <r_i_glide_ligand_efficiency>  (76) 
-0.0835541

>  <r_i_glide_ligand_efficiency_sa>  (76) 
-0.265268

>  <r_i_glide_ligand_efficiency_ln>  (76) 
-0.598721

>  <r_i_glide_gscore>  (76) 
-2.67373

>  <r_i_glide_lipo>  (76) 
-0.400215

>  <r_i_glide_hbond>  (76) 
-0.0129216

>  <r_i_glide_metal>  (76) 
-0

>  <r_i_glide_rewards>  (76) 
-0.653788

>  <r_i_glide_evdw>  (76) 
-28.7553

>  <r_i_glide_ecoul>  (76) 
-3.06659

>  <r_i_glide_erotb>  (76) 
0.331582

>  <r_i_glide_esite>  (76) 
-0.0406345

>  <r_i_glide_emodel>  (76) 
-33.7748

>  <r_i_glide_energy>  (76) 
-31.8219

>  <r_i_glide_einternal>  (76) 
5.91249

>  <r_i_glide_intrahb_reward>  (76) 
-0

>  <i_i_glide_confnum>  (76) 
2

>  <i_i_glide_posenum>  (76) 
15

>  <r_i_glide_eff_state_penalty>  (76) 
0

>  <ligand_id>  (76) 
10

>  <original_smiles>  (76) 
C=C1CC2=C3C4(C=CC2C)C(=O)C=CC2(CC(=O)c5ccccn5)C(C)=C(C4=O)C32C1=O

>  <smiles>  (76) 
[H]C([H])=C1C(=O)C23C4=C(C([H])([H])[H])C2(C([H])([H])C(=O)c2nc([H])c([H])c([H])c2[H])C([H])=C([H])C(=O)C2(C4=O)C([H])=C([H])C([H])(C([H])([H])[H])C(=C23)C1([H])[H]

$$$$
10:0:1
     RDKit          3D

 53 58  0  0  1  0  0  0  0  0999 V2000
    2.9870    4.2747    3.7766 C   0  0  0  0  0  0  0  0  0  0  0  0
    2.3098    3.1230    3.9086 C   0  0  0  0  0  0  0  0  0  0  0  0
    0.9416    2.9158    3.2593 C   0  0  0  0  0  0  0  0  0  0  0  0
    0.0013    2.1701    4.1885 C   0  0  0  0  0  0  0  0  0  0  0  0
    0.4989    1.1312    4.8865 C   0  0  0  0  0  0  0  0  0  0  0  0
   -0.2570    0.3647    5.9496 C   0  0  1  0  0  0  0  0  0  0  0  0
   -1.4327    1.1800    6.4576 C   0  0  0  0  0  0  0  0  0  0  0  0
   -1.9791    2.1796    5.7411 C   0  0  0  0  0  0  0  0  0  0  0  0
   -1.4291    2.6792    4.4093 C   0  0  1  0  0  0  0  0  0  0  0  0
   -1.5449    4.2151    4.3850 C   0  0  0  0  0  0  0  0  0  0  0  0
   -0.7432   -0.9696    5.3452 C   0  0  0  0  0  0  0  0  0  0  0  0
   -1.8458   -1.4069    5.6897 O   0  0  0  0  0  0  0  0  0  0  0  0
    0.0789   -1.7425    4.3802 C   0  0  0  0  0  0  0  0  0  0  0  0
    1.3748   -1.5884    4.0190 C   0  0  0  0  0  0  0  0  0  0  0  0
    2.4682   -0.6011    4.4711 C   0  0  2  0  0  0  0  0  0  0  0  0
    3.7105   -0.7390    3.5793 C   0  0  0  0  0  0  0  0  0  0  0  0
    3.5427   -0.3394    2.0998 C   0  0  0  0  0  0  0  0  0  0  0  0
    2.7126    0.5148    1.7890 O   0  0  0  0  0  0  0  0  0  0  0  0
    4.4403   -0.9992    1.1058 C   0  0  0  0  0  0  0  0  0  0  0  0
    5.4605   -1.8975    1.5064 C   0  0  0  0  0  0  0  0  0  0  0  0
    6.2547   -2.5131    0.5267 C   0  0  0  0  0  0  0  0  0  0  0  0
    6.0427   -2.2004   -0.8252 C   0  0  0  0  0  0  0  0  0  0  0  0
    5.0146   -1.2889   -1.1400 C   0  0  0  0  0  0  0  0  0  0  0  0
    4.2433   -0.7032   -0.2007 N   0  0  0  0  0  0  0  0  0  0  0  0
    2.8359   -0.8162    5.9449 C   0  0  0  0  0  0  0  0  0  0  0  0
    3.0585   -2.1712    6.6055 C   0  0  0  0  0  0  0  0  0  0  0  0
    2.1286    0.2511    6.3448 C   0  0  0  0  0  0  0  0  0  0  0  0
    0.8242    0.1038    6.9838 C   0  0  0  0  0  0  0  0  0  0  0  0
    0.5927   -0.2365    8.1458 O   0  0  0  0  0  0  0  0  0  0  0  0
    1.9770    0.8080    4.9380 C   0  0  2  0  0  0  0  0  0  0  0  0
    2.8860    2.0166    4.7236 C   0  0  0  0  0  0  0  0  0  0  0  0
    4.0427    2.0787    5.1528 O   0  0  0  0  0  0  0  0  0  0  0  0
    3.9585    4.4155    4.2270 H   0  0  0  0  0  0  0  0  0  0  0  0
    2.5898    5.0843    3.1796 H   0  0  0  0  0  0  0  0  0  0  0  0
    0.5476    3.8720    2.9274 H   0  0  0  0  0  0  0  0  0  0  0  0
    1.0458    2.3146    2.3583 H   0  0  0  0  0  0  0  0  0  0  0  0
   -1.8780    0.8935    7.3950 H   0  0  0  0  0  0  0  0  0  0  0  0
   -2.8691    2.6715    6.1063 H   0  0  0  0  0  0  0  0  0  0  0  0
   -2.0526    2.2772    3.6089 H   0  0  0  0  0  0  0  0  0  0  0  0
   -0.8606    4.6946    5.0909 H   0  0  0  0  0  0  0  0  0  0  0  0
   -2.5548    4.5166    4.6465 H   0  0  0  0  0  0  0  0  0  0  0  0
   -1.3602    4.6227    3.3905 H   0  0  0  0  0  0  0  0  0  0  0  0
   -0.4662   -2.5314    3.8701 H   0  0  0  0  0  0  0  0  0  0  0  0
    1.7041   -2.2726    3.2548 H   0  0  0  0  0  0  0  0  0  0  0  0
    4.5399   -0.1507    3.9727 H   0  0  0  0  0  0  0  0  0  0  0  0
    4.0183   -1.7794    3.6408 H   0  0  0  0  0  0  0  0  0  0  0  0
    5.6515   -2.1441    2.5389 H   0  0  0  0  0  0  0  0  0  0  0  0
    7.0249   -3.2137    0.8232 H   0  0  0  0  0  0  0  0  0  0  0  0
    6.6404   -2.6533   -1.6032 H   0  0  0  0  0  0  0  0  0  0  0  0
    4.8175   -1.0087   -2.1648 H   0  0  0  0  0  0  0  0  0  0  0  0
    3.9324   -2.6791    6.1839 H   0  0  0  0  0  0  0  0  0  0  0  0
    2.1911   -2.8287    6.5212 H   0  0  0  0  0  0  0  0  0  0  0  0
    3.2559   -2.0138    7.6652 H   0  0  0  0  0  0  0  0  0  0  0  0
  1  2  2  0
  1 33  1  0
  1 34  1  0
  2 31  1  0
  2  3  1  0
  3  4  1  0
  3 35  1  0
  3 36  1  0
  4  9  1  0
  4  5  2  0
  5 30  1  0
  5  6  1  0
  6 28  1  1
  6  7  1  0
  6 11  1  0
  7  8  2  0
  7 37  1  0
  8  9  1  0
  8 38  1  0
  9 10  1  0
  9 39  1  6
 10 40  1  0
 10 41  1  0
 10 42  1  0
 11 12  2  0
 11 13  1  0
 13 14  2  0
 13 43  1  0
 14 15  1  0
 14 44  1  0
 15 30  1  0
 15 16  1  6
 15 25  1  0
 16 17  1  0
 16 45  1  0
 16 46  1  0
 17 18  2  0
 17 19  1  0
 19 24  1  0
 19 20  2  0
 20 21  1  0
 20 47  1  0
 21 22  2  0
 21 48  1  0
 22 23  1  0
 22 49  1  0
 23 24  2  0
 23 50  1  0
 25 26  1  0
 25 27  2  0
 26 51  1  0
 26 52  1  0
 26 53  1  0
 27 28  1  0
 27 30  1  0
 28 29  2  0
 30 31  1  1
 31 32  2  0
M  END
>  <i_m_ct_stereo_status>  (77) 
1

>  <s_m_source_file>  (77) 
/var/tmp/pbs.5076255.sched01/tmp6mrmgolx/06cp14zw5.sdf

>  <i_m_source_file_index>  (77) 
26

>  <i_lp_mmshare_version>  (77) 
48012

>  <i_f3d_flags>  (77) 
0

>  <s_epik_input>  (77) 
W0NIXTE9W0NIXVtDQEBIXShbQ0gzXSlDPTJbQ0gyXUMoPVtDSDJdKUMoPU8pW0NAQF0zKEMyW0NAQF0xNDUpW0NAXShbQ0hdPVtDSF1DND1PKShDKFtDSDNdKT1DM0M1PU8pW0NIMl1DKD1PKWM2W2NIXVtjSF1bY0hdW2NIXW42

>  <s_epik_cmdline>  (77) 
J2VwaWtfcHl0aG9uJywgJy1waHQnLCAnMi4wJywgJy1waCcsICc3LjAnLCAnLXRuJywgJzgnLCAnLW1hJywgJzIwMCcsICctaW1hZScsICc8aW5maWxlLm1hZT4nLCAnLW9tYWUnLCAnPG91dGZpbGUubWFlPic=

>  <r_lp_tautomer_probability>  (77) 
1

>  <r_epik_Ionization_Penalty>  (77) 
3.84622e-07

>  <r_epik_Ionization_Penalty_Charging>  (77) 
0

>  <r_epik_Ionization_Penalty_Neutral>  (77) 
3.84622e-07

>  <r_epik_State_Penalty>  (77) 
-0

>  <r_epik_Charging_Adjusted_Penalty>  (77) 
0

>  <i_epik_Tot_Q>  (77) 
0

>  <i_epik_Tot_abs_Q>  (77) 
0

>  <s_lp_Force_Field>  (77) 
OPLS3e

>  <r_lp_Energy>  (77) 
89.1844

>  <b_lp_Chiralities_Consistent>  (77) 
1

>  <s_lp_Variant>  (77) 
10:0-1

>  <s_i_glide_gridfile>  (77) 
pfpi4k_grid

>  <i_i_glide_lignum>  (77) 
26

>  <i_i_glide_rotatable_bonds>  (77) 
3

>  <r_i_docking_score>  (77) 
-2.35472

>  <r_i_glide_ligand_efficiency>  (77) 
-0.0735851

>  <r_i_glide_ligand_efficiency_sa>  (77) 
-0.233618

>  <r_i_glide_ligand_efficiency_ln>  (77) 
-0.527287

>  <r_i_glide_gscore>  (77) 
-2.35472

>  <r_i_glide_lipo>  (77) 
-0.242051

>  <r_i_glide_hbond>  (77) 
-0.00937647

>  <r_i_glide_metal>  (77) 
-0

>  <r_i_glide_rewards>  (77) 
-0.526016

>  <r_i_glide_evdw>  (77) 
-30.077

>  <r_i_glide_ecoul>  (77) 
-2.41646

>  <r_i_glide_erotb>  (77) 
0.331582

>  <r_i_glide_esite>  (77) 
-0.0425447

>  <r_i_glide_emodel>  (77) 
-33.7594

>  <r_i_glide_energy>  (77) 
-32.4934

>  <r_i_glide_einternal>  (77) 
5.95655

>  <r_i_glide_intrahb_reward>  (77) 
-0

>  <i_i_glide_confnum>  (77) 
6

>  <i_i_glide_posenum>  (77) 
37

>  <r_i_glide_eff_state_penalty>  (77) 
0

>  <ligand_id>  (77) 
10

>  <original_smiles>  (77) 
C=C1CC2=C3C4(C=CC2C)C(=O)C=CC2(CC(=O)c5ccccn5)C(C)=C(C4=O)C32C1=O

>  <smiles>  (77) 
[H]C([H])=C1C(=O)C23C4=C(C([H])([H])[H])C2(C([H])([H])C(=O)c2nc([H])c([H])c([H])c2[H])C([H])=C([H])C(=O)C2(C4=O)C([H])=C([H])C([H])(C([H])([H])[H])C(=C23)C1([H])[H]

$$$$
10:0:2
     RDKit          3D

 53 58  0  0  1  0  0  0  0  0999 V2000
    2.9750    4.1990    3.7169 C   0  0  0  0  0  0  0  0  0  0  0  0
    2.2847    3.0541    3.8570 C   0  0  0  0  0  0  0  0  0  0  0  0
    0.9019    2.8688    3.2373 C   0  0  0  0  0  0  0  0  0  0  0  0
   -0.0303    2.1326    4.1822 C   0  0  0  0  0  0  0  0  0  0  0  0
    0.4698    1.0778    4.8548 C   0  0  0  0  0  0  0  0  0  0  0  0
   -0.2711    0.3177    5.9327 C   0  0  1  0  0  0  0  0  0  0  0  0
   -1.4192    1.1450    6.4814 C   0  0  0  0  0  0  0  0  0  0  0  0
   -1.9711    2.1588    5.7874 C   0  0  0  0  0  0  0  0  0  0  0  0
   -1.4460    2.6643    4.4486 C   0  0  1  0  0  0  0  0  0  0  0  0
   -1.5433    4.1996    4.4459 C   0  0  0  0  0  0  0  0  0  0  0  0
   -0.8023   -1.0001    5.3338 C   0  0  0  0  0  0  0  0  0  0  0  0
   -1.9100   -1.4137    5.6943 O   0  0  0  0  0  0  0  0  0  0  0  0
   -0.0147   -1.7744    4.3470 C   0  0  0  0  0  0  0  0  0  0  0  0
    1.2683   -1.6373    3.9477 C   0  0  0  0  0  0  0  0  0  0  0  0
    2.4085   -0.6853    4.3637 C   0  0  2  0  0  0  0  0  0  0  0  0
    3.6312   -0.8297    3.4289 C   0  0  0  0  0  0  0  0  0  0  0  0
    3.3953   -0.4400    1.9570 C   0  0  0  0  0  0  0  0  0  0  0  0
    3.0531    0.7094    1.6805 O   0  0  0  0  0  0  0  0  0  0  0  0
    3.6893   -1.4713    0.9264 C   0  0  0  0  0  0  0  0  0  0  0  0
    3.3997   -2.8357    1.1735 C   0  0  0  0  0  0  0  0  0  0  0  0
    3.6466   -3.7809    0.1701 C   0  0  0  0  0  0  0  0  0  0  0  0
    4.1966   -3.3518   -1.0451 C   0  0  0  0  0  0  0  0  0  0  0  0
    4.4624   -1.9779   -1.2111 C   0  0  0  0  0  0  0  0  0  0  0  0
    4.2188   -1.0598   -0.2500 N   0  0  0  0  0  0  0  0  0  0  0  0
    2.8131   -0.9164    5.8250 C   0  0  0  0  0  0  0  0  0  0  0  0
    3.0216   -2.2810    6.4683 C   0  0  0  0  0  0  0  0  0  0  0  0
    2.1313    0.1565    6.2563 C   0  0  0  0  0  0  0  0  0  0  0  0
    0.8387    0.0282    6.9310 C   0  0  0  0  0  0  0  0  0  0  0  0
    0.6291   -0.3271    8.0945 O   0  0  0  0  0  0  0  0  0  0  0  0
    1.9484    0.7294    4.8607 C   0  0  2  0  0  0  0  0  0  0  0  0
    2.8665    1.9286    4.6443 C   0  0  0  0  0  0  0  0  0  0  0  0
    4.0338    1.9712    5.0448 O   0  0  0  0  0  0  0  0  0  0  0  0
    3.9594    4.3156    4.1406 H   0  0  0  0  0  0  0  0  0  0  0  0
    2.5797    5.0209    3.1354 H   0  0  0  0  0  0  0  0  0  0  0  0
    0.5131    3.8331    2.9212 H   0  0  0  0  0  0  0  0  0  0  0  0
    0.9892    2.2680    2.3314 H   0  0  0  0  0  0  0  0  0  0  0  0
   -1.8432    0.8479    7.4259 H   0  0  0  0  0  0  0  0  0  0  0  0
   -2.8417    2.6581    6.1804 H   0  0  0  0  0  0  0  0  0  0  0  0
   -2.0969    2.2820    3.6615 H   0  0  0  0  0  0  0  0  0  0  0  0
   -0.8396    4.6627    5.1410 H   0  0  0  0  0  0  0  0  0  0  0  0
   -2.5436    4.5103    4.7361 H   0  0  0  0  0  0  0  0  0  0  0  0
   -1.3784    4.6200    3.4552 H   0  0  0  0  0  0  0  0  0  0  0  0
   -0.5802   -2.5493    3.8421 H   0  0  0  0  0  0  0  0  0  0  0  0
    1.5190   -2.3202    3.1637 H   0  0  0  0  0  0  0  0  0  0  0  0
    4.4621   -0.2196    3.7839 H   0  0  0  0  0  0  0  0  0  0  0  0
    4.0150   -1.8483    3.4824 H   0  0  0  0  0  0  0  0  0  0  0  0
    2.9948   -3.1825    2.1063 H   0  0  0  0  0  0  0  0  0  0  0  0
    3.4227   -4.8231    0.3439 H   0  0  0  0  0  0  0  0  0  0  0  0
    4.4144   -4.0586   -1.8316 H   0  0  0  0  0  0  0  0  0  0  0  0
    4.8940   -1.6034   -2.1293 H   0  0  0  0  0  0  0  0  0  0  0  0
    3.8733   -2.7988    6.0183 H   0  0  0  0  0  0  0  0  0  0  0  0
    2.1409   -2.9226    6.4001 H   0  0  0  0  0  0  0  0  0  0  0  0
    3.2505   -2.1388    7.5239 H   0  0  0  0  0  0  0  0  0  0  0  0
  1  2  2  0
  1 33  1  0
  1 34  1  0
  2 31  1  0
  2  3  1  0
  3  4  1  0
  3 35  1  0
  3 36  1  0
  4  9  1  0
  4  5  2  0
  5 30  1  0
  5  6  1  0
  6 28  1  1
  6  7  1  0
  6 11  1  0
  7  8  2  0
  7 37  1  0
  8  9  1  0
  8 38  1  0
  9 10  1  0
  9 39  1  6
 10 40  1  0
 10 41  1  0
 10 42  1  0
 11 12  2  0
 11 13  1  0
 13 14  2  0
 13 43  1  0
 14 15  1  0
 14 44  1  0
 15 30  1  0
 15 16  1  6
 15 25  1  0
 16 17  1  0
 16 45  1  0
 16 46  1  0
 17 18  2  0
 17 19  1  0
 19 24  1  0
 19 20  2  0
 20 21  1  0
 20 47  1  0
 21 22  2  0
 21 48  1  0
 22 23  1  0
 22 49  1  0
 23 24  2  0
 23 50  1  0
 25 26  1  0
 25 27  2  0
 26 51  1  0
 26 52  1  0
 26 53  1  0
 27 28  1  0
 27 30  1  0
 28 29  2  0
 30 31  1  1
 31 32  2  0
M  END
>  <i_m_ct_stereo_status>  (78) 
1

>  <s_m_source_file>  (78) 
/var/tmp/pbs.5076255.sched01/tmp6mrmgolx/06cp14zw5.sdf

>  <i_m_source_file_index>  (78) 
26

>  <i_lp_mmshare_version>  (78) 
48012

>  <i_f3d_flags>  (78) 
0

>  <s_epik_input>  (78) 
W0NIXTE9W0NIXVtDQEBIXShbQ0gzXSlDPTJbQ0gyXUMoPVtDSDJdKUMoPU8pW0NAQF0zKEMyW0NAQF0xNDUpW0NAXShbQ0hdPVtDSF1DND1PKShDKFtDSDNdKT1DM0M1PU8pW0NIMl1DKD1PKWM2W2NIXVtjSF1bY0hdW2NIXW42

>  <s_epik_cmdline>  (78) 
J2VwaWtfcHl0aG9uJywgJy1waHQnLCAnMi4wJywgJy1waCcsICc3LjAnLCAnLXRuJywgJzgnLCAnLW1hJywgJzIwMCcsICctaW1hZScsICc8aW5maWxlLm1hZT4nLCAnLW9tYWUnLCAnPG91dGZpbGUubWFlPic=

>  <r_lp_tautomer_probability>  (78) 
1

>  <r_epik_Ionization_Penalty>  (78) 
3.84622e-07

>  <r_epik_Ionization_Penalty_Charging>  (78) 
0

>  <r_epik_Ionization_Penalty_Neutral>  (78) 
3.84622e-07

>  <r_epik_State_Penalty>  (78) 
-0

>  <r_epik_Charging_Adjusted_Penalty>  (78) 
0

>  <i_epik_Tot_Q>  (78) 
0

>  <i_epik_Tot_abs_Q>  (78) 
0

>  <s_lp_Force_Field>  (78) 
OPLS3e

>  <r_lp_Energy>  (78) 
89.1844

>  <b_lp_Chiralities_Consistent>  (78) 
1

>  <s_lp_Variant>  (78) 
10:0-1

>  <s_i_glide_gridfile>  (78) 
pfpi4k_grid

>  <i_i_glide_lignum>  (78) 
26

>  <i_i_glide_rotatable_bonds>  (78) 
3

>  <r_i_docking_score>  (78) 
-2.24084

>  <r_i_glide_ligand_efficiency>  (78) 
-0.0700263

>  <r_i_glide_ligand_efficiency_sa>  (78) 
-0.22232

>  <r_i_glide_ligand_efficiency_ln>  (78) 
-0.501785

>  <r_i_glide_gscore>  (78) 
-2.24084

>  <r_i_glide_lipo>  (78) 
-0.0151208

>  <r_i_glide_hbond>  (78) 
-0.011881

>  <r_i_glide_metal>  (78) 
-0

>  <r_i_glide_rewards>  (78) 
-0.521864

>  <r_i_glide_evdw>  (78) 
-29.3843

>  <r_i_glide_ecoul>  (78) 
-3.35207

>  <r_i_glide_erotb>  (78) 
0.331582

>  <r_i_glide_esite>  (78) 
-0.0515304

>  <r_i_glide_emodel>  (78) 
-33.5079

>  <r_i_glide_energy>  (78) 
-32.7364

>  <r_i_glide_einternal>  (78) 
6.36543

>  <r_i_glide_intrahb_reward>  (78) 
-0

>  <i_i_glide_confnum>  (78) 
4

>  <i_i_glide_posenum>  (78) 
29

>  <r_i_glide_eff_state_penalty>  (78) 
0

>  <ligand_id>  (78) 
10

>  <original_smiles>  (78) 
C=C1CC2=C3C4(C=CC2C)C(=O)C=CC2(CC(=O)c5ccccn5)C(C)=C(C4=O)C32C1=O

>  <smiles>  (78) 
[H]C([H])=C1C(=O)C23C4=C(C([H])([H])[H])C2(C([H])([H])C(=O)c2nc([H])c([H])c([H])c2[H])C([H])=C([H])C(=O)C2(C4=O)C([H])=C([H])C([H])(C([H])([H])[H])C(=C23)C1([H])[H]

$$$$
11:1:0
     RDKit          3D

 50 52  0  0  1  0  0  0  0  0999 V2000
    3.3682   -0.3309    3.4650 C   0  0  0  0  0  0  0  0  0  0  0  0
    4.3516   -1.0886    2.5756 C   0  0  0  0  0  0  0  0  0  0  0  0
    5.5535   -0.8435    2.6161 O   0  0  0  0  0  0  0  0  0  0  0  0
    3.7266   -2.0122    1.7818 O   0  0  0  0  0  0  0  0  0  0  0  0
    4.5398   -2.6836    0.8436 C   0  0  2  0  0  0  0  0  0  0  0  0
    5.0417   -1.7581   -0.3020 C   0  0  2  0  0  0  0  0  0  0  0  0
    3.8670   -0.9971   -0.9614 C   0  0  0  0  0  0  0  0  0  0  0  0
    3.1097   -1.6289   -2.1462 C   0  0  1  0  0  0  0  0  0  0  0  0
    3.5405   -1.3777   -3.6228 C   0  0  0  0  0  0  0  0  0  0  0  0
    2.4768   -0.7448   -4.5774 C   0  0  0  0  0  0  0  0  0  0  0  0
    4.6086   -0.3527   -3.6954 C   0  0  0  0  0  0  0  0  0  0  0  0
    3.9775   -2.7751   -4.0729 C   0  0  0  0  0  0  0  0  0  0  0  0
    4.1640   -3.6180   -2.8157 C   0  0  1  0  0  0  0  0  0  0  0  0
    5.5507   -3.3236   -2.2688 C   0  0  0  0  0  0  0  0  0  0  0  0
    5.9465   -2.5606   -1.2249 C   0  0  0  0  0  0  0  0  0  0  0  0
    7.4052   -2.5050   -0.8571 C   0  0  0  0  0  0  0  0  0  0  0  0
    2.9479   -3.1560   -1.9427 C   0  0  2  0  0  0  0  0  0  0  0  0
    1.5914   -3.5457   -2.5488 C   0  0  0  0  0  0  0  0  0  0  0  0
    2.7607   -3.7362   -0.4889 C   0  0  0  0  0  0  0  0  0  0  0  0
    3.9340   -3.8997    0.3641 N   0  0  0  0  0  0  0  0  0  0  0  0
    3.7711   -4.9383    1.3713 C   0  0  0  0  0  0  0  0  0  0  0  0
    2.7918   -1.0314    4.0648 H   0  0  0  0  0  0  0  0  0  0  0  0
    2.6862    0.2639    2.8590 H   0  0  0  0  0  0  0  0  0  0  0  0
    3.8973    0.3451    4.1366 H   0  0  0  0  0  0  0  0  0  0  0  0
    5.4195   -3.0047    1.4022 H   0  0  0  0  0  0  0  0  0  0  0  0
    5.6827   -0.9757    0.1173 H   0  0  0  0  0  0  0  0  0  0  0  0
    3.1202   -0.7354   -0.2153 H   0  0  0  0  0  0  0  0  0  0  0  0
    4.2141   -0.0202   -1.2437 H   0  0  0  0  0  0  0  0  0  0  0  0
    2.2100   -1.0513   -2.2004 H   0  0  0  0  0  0  0  0  0  0  0  0
    2.8288   -0.5359   -5.5979 H   0  0  0  0  0  0  0  0  0  0  0  0
    2.0962    0.1853   -4.1552 H   0  0  0  0  0  0  0  0  0  0  0  0
    1.6005   -1.3418   -4.7536 H   0  0  0  0  0  0  0  0  0  0  0  0
    4.9445   -0.3308   -4.7325 H   0  0  0  0  0  0  0  0  0  0  0  0
    5.4104   -0.6641   -3.0190 H   0  0  0  0  0  0  0  0  0  0  0  0
    4.2346    0.6395   -3.4075 H   0  0  0  0  0  0  0  0  0  0  0  0
    3.2271   -3.2028   -4.7358 H   0  0  0  0  0  0  0  0  0  0  0  0
    4.9177   -2.7661   -4.5759 H   0  0  0  0  0  0  0  0  0  0  0  0
    4.2872   -4.6472   -3.1246 H   0  0  0  0  0  0  0  0  0  0  0  0
    6.3023   -3.8461   -2.8363 H   0  0  0  0  0  0  0  0  0  0  0  0
    7.5547   -2.8374    0.1679 H   0  0  0  0  0  0  0  0  0  0  0  0
    7.7360   -1.4791   -0.8831 H   0  0  0  0  0  0  0  0  0  0  0  0
    8.0069   -3.1106   -1.5385 H   0  0  0  0  0  0  0  0  0  0  0  0
    1.4435   -4.6266   -2.4429 H   0  0  0  0  0  0  0  0  0  0  0  0
    1.4892   -3.2960   -3.6039 H   0  0  0  0  0  0  0  0  0  0  0  0
    0.7439   -3.0980   -2.0208 H   0  0  0  0  0  0  0  0  0  0  0  0
    1.9827   -3.1839    0.0465 H   0  0  0  0  0  0  0  0  0  0  0  0
    2.3638   -4.7512   -0.5903 H   0  0  0  0  0  0  0  0  0  0  0  0
    3.5960   -5.8977    0.8853 H   0  0  0  0  0  0  0  0  0  0  0  0
    2.9375   -4.7318    2.0430 H   0  0  0  0  0  0  0  0  0  0  0  0
    4.6784   -5.0383    1.9664 H   0  0  0  0  0  0  0  0  0  0  0  0
  1  2  1  0
  1 22  1  0
  1 23  1  0
  1 24  1  0
  2  3  2  0
  2  4  1  0
  4  5  1  0
  5 20  1  0
  5  6  1  0
  5 25  1  1
  6 15  1  0
  6  7  1  0
  6 26  1  1
  7  8  1  0
  7 27  1  0
  7 28  1  0
  8 17  1  0
  8  9  1  0
  8 29  1  6
  9 10  1  0
  9 11  1  0
  9 12  1  0
 10 30  1  0
 10 31  1  0
 10 32  1  0
 11 33  1  0
 11 34  1  0
 11 35  1  0
 12 13  1  0
 12 36  1  0
 12 37  1  0
 13 14  1  0
 13 17  1  0
 13 38  1  6
 14 15  2  0
 14 39  1  0
 15 16  1  0
 16 40  1  0
 16 41  1  0
 16 42  1  0
 17 18  1  6
 17 19  1  0
 18 43  1  0
 18 44  1  0
 18 45  1  0
 19 20  1  0
 19 46  1  0
 19 47  1  0
 20 21  1  0
 21 48  1  0
 21 49  1  0
 21 50  1  0
M  END
>  <i_m_ct_stereo_status>  (79) 
1

>  <s_m_source_file>  (79) 
/var/tmp/pbs.5076255.sched01/tmp6mrmgolx/06cp14zw5.sdf

>  <i_m_source_file_index>  (79) 
28

>  <i_lp_mmshare_version>  (79) 
48012

>  <i_f3d_flags>  (79) 
0

>  <s_epik_input>  (79) 
W0NIM11DKD1PKU9bQ0BASF0oTihbQ0gyXTEpW0NIM10pW0NASF0oW0NIMl1bQ0BASF0yW0NAXTEzW0NIM10pQyhbQ0gzXSk9W0NIXVtDQEBIXTNbQ0gyXUMyKFtDSDNdKVtDSDNd

>  <s_epik_cmdline>  (79) 
J2VwaWtfcHl0aG9uJywgJy1waHQnLCAnMi4wJywgJy1waCcsICc3LjAnLCAnLXRuJywgJzgnLCAnLW1hJywgJzIwMCcsICctaW1hZScsICc8aW5maWxlLm1hZT4nLCAnLW9tYWUnLCAnPG91dGZpbGUubWFlPic=

>  <r_epik_Ionization_Penalty>  (79) 
0.424231

>  <r_epik_Ionization_Penalty_Charging>  (79) 
0

>  <r_epik_Ionization_Penalty_Neutral>  (79) 
0.424231

>  <r_epik_State_Penalty>  (79) 
0.425151

>  <r_epik_Charging_Adjusted_Penalty>  (79) 
0.425151

>  <i_epik_Tot_Q>  (79) 
0

>  <i_epik_Tot_abs_Q>  (79) 
0

>  <s_epik_Chemistry_Notes>  (79) 
This compound has an ester and may undergo hydrolysis at high or low pH. This compound contains an acetal/aminal-like group ( X-CH(R)-Y where X, Y are N, S, or O) that may be acid/base labile, releasing an aldehyde.

>  <s_lp_Force_Field>  (79) 
OPLS3e

>  <r_lp_Energy>  (79) 
52.8437

>  <b_lp_Chiralities_Consistent>  (79) 
1

>  <s_lp_Variant>  (79) 
11:0-2

>  <s_i_glide_gridfile>  (79) 
pfpi4k_grid

>  <i_i_glide_lignum>  (79) 
28

>  <i_i_glide_rotatable_bonds>  (79) 
2

>  <r_i_docking_score>  (79) 
-2.24658

>  <r_i_glide_ligand_efficiency>  (79) 
-0.10698

>  <r_i_glide_ligand_efficiency_sa>  (79) 
-0.29515

>  <r_i_glide_ligand_efficiency_ln>  (79) 
-0.555462

>  <r_i_glide_gscore>  (79) 
-2.24658

>  <r_i_glide_lipo>  (79) 
-0.743081

>  <r_i_glide_hbond>  (79) 
0

>  <r_i_glide_metal>  (79) 
-0

>  <r_i_glide_rewards>  (79) 
-1.48931

>  <r_i_glide_evdw>  (79) 
-4.20289

>  <r_i_glide_ecoul>  (79) 
-0.125468

>  <r_i_glide_erotb>  (79) 
0.214774

>  <r_i_glide_esite>  (79) 
0

>  <r_i_glide_emodel>  (79) 
-8.49951

>  <r_i_glide_energy>  (79) 
-4.32836

>  <r_i_glide_einternal>  (79) 
0.298656

>  <r_i_glide_intrahb_reward>  (79) 
-0

>  <i_i_glide_confnum>  (79) 
3

>  <i_i_glide_posenum>  (79) 
10

>  <r_i_glide_eff_state_penalty>  (79) 
0

>  <ligand_id>  (79) 
11

>  <original_smiles>  (79) 
CC(=O)OC1C2CC3C(C)(C)CC(C=C2C)C3(C)CN1C

>  <smiles>  (79) 
[H]C1=C(C([H])([H])[H])C2([H])C([H])(OC(=O)C([H])([H])[H])N(C([H])([H])[H])C([H])([H])C3(C([H])([H])[H])C1([H])C([H])([H])C(C([H])([H])[H])(C([H])([H])[H])C3([H])C2([H])[H]

$$$$
12:1:0
     RDKit          3D

 43 45  0  0  1  0  0  0  0  0999 V2000
    2.3546   -5.6585    2.7408 C   0  0  0  0  0  0  0  0  0  0  0  0
    3.5254   -5.6067    1.7638 C   0  0  0  0  0  0  0  0  0  0  0  0
    4.2799   -6.9361    1.6689 C   0  0  0  0  0  0  0  0  0  0  0  0
    4.4835   -4.4582    2.1101 C   0  0  0  0  0  0  0  0  0  0  0  0
    4.9348   -3.3725    1.4388 C   0  0  0  0  0  0  0  0  0  0  0  0
    4.7193   -2.8091    0.0795 C   0  0  0  0  0  0  0  0  0  0  0  0
    5.3993   -1.6719   -0.2421 C   0  0  0  0  0  0  0  0  0  0  0  0
    6.2167   -0.9741    0.6506 N   0  0  0  0  0  0  0  0  0  0  0  0
    5.3837   -0.9311   -1.5949 C   0  0  0  0  0  0  0  0  0  0  0  0
    4.1865   -1.1912   -2.4771 C   0  0  0  0  0  0  0  0  0  0  0  0
    3.0306   -1.3261   -1.8318 C   0  0  0  0  0  0  0  0  0  0  0  0
    2.6890   -2.7801   -1.6525 C   0  0  2  0  0  0  0  0  0  0  0  0
    3.8898   -3.5154   -1.0111 C   0  0  1  0  0  0  0  0  0  0  0  0
    4.7371   -4.0459   -2.1715 C   0  0  0  0  0  0  0  0  0  0  0  0
    4.0094   -3.5263   -3.4042 C   0  0  2  0  0  0  0  0  0  0  0  0
    4.4485   -2.1036   -3.6716 C   0  0  0  0  0  0  0  0  0  0  0  0
    2.6280   -3.4519   -2.9620 N   0  0  2  0  0  0  0  0  0  0  0  0
    1.7055   -2.9048   -3.9497 C   0  0  0  0  0  0  0  0  0  0  0  0
    1.8233   -4.7033    2.7644 H   0  0  0  0  0  0  0  0  0  0  0  0
    2.6724   -5.9229    3.7487 H   0  0  0  0  0  0  0  0  0  0  0  0
    1.6447   -6.4109    2.3971 H   0  0  0  0  0  0  0  0  0  0  0  0
    2.9830   -5.5490    0.8362 H   0  0  0  0  0  0  0  0  0  0  0  0
    5.0693   -6.8843    0.9128 H   0  0  0  0  0  0  0  0  0  0  0  0
    3.5830   -7.7120    1.3502 H   0  0  0  0  0  0  0  0  0  0  0  0
    4.7169   -7.2320    2.6269 H   0  0  0  0  0  0  0  0  0  0  0  0
    4.8855   -4.5483    3.1159 H   0  0  0  0  0  0  0  0  0  0  0  0
    5.6186   -2.8111    2.0647 H   0  0  0  0  0  0  0  0  0  0  0  0
    6.3747   -1.2741    1.5972 H   0  0  0  0  0  0  0  0  0  0  0  0
    6.6621   -0.0918    0.4543 H   0  0  0  0  0  0  0  0  0  0  0  0
    6.2986   -1.1680   -2.1373 H   0  0  0  0  0  0  0  0  0  0  0  0
    5.2824    0.1147   -1.3578 H   0  0  0  0  0  0  0  0  0  0  0  0
    2.9307   -0.7949   -0.8953 H   0  0  0  0  0  0  0  0  0  0  0  0
    1.7878   -2.9392   -1.0742 H   0  0  0  0  0  0  0  0  0  0  0  0
    3.4068   -4.3794   -0.6392 H   0  0  0  0  0  0  0  0  0  0  0  0
    5.7987   -3.8192   -2.1243 H   0  0  0  0  0  0  0  0  0  0  0  0
    4.6864   -5.1156   -2.1048 H   0  0  0  0  0  0  0  0  0  0  0  0
    4.1360   -4.1664   -4.2729 H   0  0  0  0  0  0  0  0  0  0  0  0
    3.9863   -1.6656   -4.5502 H   0  0  0  0  0  0  0  0  0  0  0  0
    5.4737   -2.2122   -3.8822 H   0  0  0  0  0  0  0  0  0  0  0  0
    1.8490   -1.8623   -4.2416 H   0  0  0  0  0  0  0  0  0  0  0  0
    0.7548   -3.0233   -3.4834 H   0  0  0  0  0  0  0  0  0  0  0  0
    1.6576   -3.5356   -4.8246 H   0  0  0  0  0  0  0  0  0  0  0  0
    2.3542   -4.4052   -2.7767 H   0  0  0  0  0  0  0  0  0  0  0  0
  1  2  1  0
  1 19  1  0
  1 20  1  0
  1 21  1  0
  2  3  1  0
  2 22  1  0
  2  4  1  0
  3 23  1  0
  3 24  1  0
  3 25  1  0
  4  5  2  0
  4 26  1  0
  5  6  1  0
  5 27  1  0
  6  7  2  0
  6 13  1  0
  7  8  1  0
  7  9  1  0
  8 29  1  0
  8 28  1  0
  9 10  1  0
  9 30  1  0
  9 31  1  0
 10 16  1  0
 10 11  2  0
 11 12  1  0
 11 32  1  0
 12 17  1  0
 12 13  1  0
 12 33  1  1
 13 14  1  0
 13 34  1  1
 14 15  1  0
 14 35  1  0
 14 36  1  0
 15 16  1  0
 15 17  1  0
 15 37  1  6
 16 38  1  0
 16 39  1  0
 17 18  1  0
 17 43  1  1
 18 40  1  0
 18 41  1  0
 18 42  1  0
M  CHG  1  17   1
M  END
>  <i_m_ct_stereo_status>  (80) 
1

>  <s_m_source_file>  (80) 
/var/tmp/pbs.5076255.sched01/tmp6mrmgolx/06cp14zw5.sdf

>  <i_m_source_file_index>  (80) 
30

>  <i_lp_mmshare_version>  (80) 
48012

>  <i_f3d_flags>  (80) 
0

>  <s_epik_input>  (80) 
W0NIM11bQ0hdKFtDSDNdKS9bQ0hdPVtDSF0vW0NASF0oL0MoPU4vW0hdKVtDSDJdMSlbQ0hdKFtDQEhdMltDSF09QzEzKVtDSDJdW0NASF0oW0NIMl0zKU4yW0NIM10=

>  <s_epik_cmdline>  (80) 
J2VwaWtfcHl0aG9uJywgJy1waHQnLCAnMi4wJywgJy1waCcsICc3LjAnLCAnLXRuJywgJzgnLCAnLW1hJywgJzIwMCcsICctaW1hZScsICc8aW5maWxlLm1hZT4nLCAnLW9tYWUnLCAnPG91dGZpbGUubWFlPic=

>  <r_lp_tautomer_probability>  (80) 
0.499998

>  <r_epik_Ionization_Penalty>  (80) 
0.0118367

>  <r_epik_Ionization_Penalty_Charging>  (80) 
0.0118256

>  <r_epik_Ionization_Penalty_Neutral>  (80) 
1.11531e-05

>  <r_epik_State_Penalty>  (80) 
0.596091

>  <r_epik_Charging_Adjusted_Penalty>  (80) 
0.607917

>  <i_epik_Tot_Q>  (80) 
1

>  <i_epik_Tot_abs_Q>  (80) 
1

>  <s_lp_Force_Field>  (80) 
OPLS3e

>  <r_lp_Energy>  (80) 
76.3832

>  <b_lp_Chiralities_Consistent>  (80) 
1

>  <s_lp_Variant>  (80) 
12:0-2

>  <s_i_glide_gridfile>  (80) 
pfpi4k_grid

>  <i_i_glide_lignum>  (80) 
30

>  <i_i_glide_rotatable_bonds>  (80) 
2

>  <r_i_docking_score>  (80) 
-3.08592

>  <r_i_glide_ligand_efficiency>  (80) 
-0.17144

>  <r_i_glide_ligand_efficiency_sa>  (80) 
-0.4493

>  <r_i_glide_ligand_efficiency_ln>  (80) 
-0.793219

>  <r_i_glide_gscore>  (80) 
-3.08592

>  <r_i_glide_lipo>  (80) 
-0.398817

>  <r_i_glide_hbond>  (80) 
-0.0810537

>  <r_i_glide_metal>  (80) 
-0

>  <r_i_glide_rewards>  (80) 
-1.73602

>  <r_i_glide_evdw>  (80) 
-7.25665

>  <r_i_glide_ecoul>  (80) 
-7.23568

>  <r_i_glide_erotb>  (80) 
0.578163

>  <r_i_glide_esite>  (80) 
0

>  <r_i_glide_emodel>  (80) 
-16.3754

>  <r_i_glide_energy>  (80) 
-14.4923

>  <r_i_glide_einternal>  (80) 
0.0293197

>  <r_i_glide_intrahb_reward>  (80) 
-0

>  <i_i_glide_confnum>  (80) 
1

>  <i_i_glide_posenum>  (80) 
1

>  <r_i_glide_eff_state_penalty>  (80) 
0

>  <ligand_id>  (80) 
12

>  <original_smiles>  (80) 
CC(C)C=CC1C(=N)CC2=CC3C1CC(C2)N3C

>  <smiles>  (80) 
[H]C(=C([H])C([H])(C([H])([H])[H])C([H])([H])[H])C1=C(N([H])[H])C([H])([H])C2=C([H])C3([H])C1([H])C([H])([H])C([H])(C2([H])[H])[N+]3([H])C([H])([H])[H]

$$$$
12:2:0
     RDKit          3D

 43 45  0  0  1  0  0  0  0  0999 V2000
    0.1862   -7.0657    0.9973 C   0  0  0  0  0  0  0  0  0  0  0  0
    1.2672   -6.8672    2.0724 C   0  0  0  0  0  0  0  0  0  0  0  0
    0.6549   -6.3909    3.3979 C   0  0  0  0  0  0  0  0  0  0  0  0
    2.3980   -5.9446    1.6388 C   0  0  0  0  0  0  0  0  0  0  0  0
    2.4830   -5.2647    0.4757 C   0  0  0  0  0  0  0  0  0  0  0  0
    3.6066   -4.3340    0.0367 C   0  0  2  0  0  0  0  0  0  0  0  0
    4.9279   -4.6110    0.8058 C   0  0  0  0  0  0  0  0  0  0  0  0
    5.5086   -5.8220    0.4877 N   0  0  0  0  0  0  0  0  0  0  0  0
    5.5010   -3.7948    1.7210 C   0  0  0  0  0  0  0  0  0  0  0  0
    4.8965   -2.5239    2.0576 C   0  0  0  0  0  0  0  0  0  0  0  0
    3.5769   -2.6026    2.3189 C   0  0  0  0  0  0  0  0  0  0  0  0
    2.6858   -2.0887    1.2103 C   0  0  2  0  0  0  0  0  0  0  0  0
    3.0908   -2.8509   -0.0935 C   0  0  1  0  0  0  0  0  0  0  0  0
    4.1188   -1.9102   -0.7721 C   0  0  0  0  0  0  0  0  0  0  0  0
    4.3595   -0.8043    0.2682 C   0  0  2  0  0  0  0  0  0  0  0  0
    5.4027   -1.2924    1.3133 C   0  0  0  0  0  0  0  0  0  0  0  0
    3.0193   -0.6876    0.8890 N   0  0  2  0  0  0  0  0  0  0  0  0
    2.8774    0.3148    1.9737 C   0  0  0  0  0  0  0  0  0  0  0  0
    0.6239   -7.4630    0.0852 H   0  0  0  0  0  0  0  0  0  0  0  0
   -0.3104   -6.1371    0.7375 H   0  0  0  0  0  0  0  0  0  0  0  0
   -0.5840   -7.7668    1.3214 H   0  0  0  0  0  0  0  0  0  0  0  0
    1.7311   -7.8383    2.2570 H   0  0  0  0  0  0  0  0  0  0  0  0
    1.4029   -6.3509    4.1912 H   0  0  0  0  0  0  0  0  0  0  0  0
   -0.1295   -7.0713    3.7330 H   0  0  0  0  0  0  0  0  0  0  0  0
    0.2199   -5.3966    3.3060 H   0  0  0  0  0  0  0  0  0  0  0  0
    3.1934   -5.8539    2.3649 H   0  0  0  0  0  0  0  0  0  0  0  0
    1.7054   -5.3528   -0.2653 H   0  0  0  0  0  0  0  0  0  0  0  0
    3.8122   -4.6501   -0.9877 H   0  0  0  0  0  0  0  0  0  0  0  0
    5.0869   -6.4496   -0.1845 H   0  0  0  0  0  0  0  0  0  0  0  0
    6.4194   -4.0899    2.2032 H   0  0  0  0  0  0  0  0  0  0  0  0
    6.3675   -6.1300    0.9167 H   0  0  0  0  0  0  0  0  0  0  0  0
    3.1734   -3.5170    2.7261 H   0  0  0  0  0  0  0  0  0  0  0  0
    1.6356   -2.2025    1.4733 H   0  0  0  0  0  0  0  0  0  0  0  0
    2.2172   -2.8693   -0.7476 H   0  0  0  0  0  0  0  0  0  0  0  0
    5.0407   -2.4172   -1.0704 H   0  0  0  0  0  0  0  0  0  0  0  0
    3.6712   -1.4764   -1.6676 H   0  0  0  0  0  0  0  0  0  0  0  0
    4.6790    0.1297   -0.1949 H   0  0  0  0  0  0  0  0  0  0  0  0
    6.3648   -1.5061    0.8433 H   0  0  0  0  0  0  0  0  0  0  0  0
    5.5885   -0.5156    2.0586 H   0  0  0  0  0  0  0  0  0  0  0  0
    3.4877    0.0885    2.8487 H   0  0  0  0  0  0  0  0  0  0  0  0
    1.8349    0.3631    2.2895 H   0  0  0  0  0  0  0  0  0  0  0  0
    3.1622    1.3046    1.6126 H   0  0  0  0  0  0  0  0  0  0  0  0
    2.3650   -0.4401    0.1482 H   0  0  0  0  0  0  0  0  0  0  0  0
  1  2  1  0
  1 19  1  0
  1 20  1  0
  1 21  1  0
  2  3  1  0
  2  4  1  0
  2 22  1  0
  3 23  1  0
  3 24  1  0
  3 25  1  0
  4  5  2  3
  4 26  1  0
  5  6  1  0
  5 27  1  0
  6 13  1  0
  6 28  1  6
  6  7  1  0
  7  8  1  0
  7  9  2  0
  8 29  1  0
  8 31  1  0
  9 30  1  0
  9 10  1  0
 10 16  1  0
 10 11  2  0
 11 12  1  0
 11 32  1  0
 12 17  1  0
 12 13  1  0
 12 33  1  1
 13 14  1  0
 13 34  1  6
 14 15  1  0
 14 35  1  0
 14 36  1  0
 15 16  1  0
 15 17  1  0
 15 37  1  6
 16 38  1  0
 16 39  1  0
 17 18  1  0
 17 43  1  6
 18 40  1  0
 18 41  1  0
 18 42  1  0
M  CHG  1  17   1
M  END
>  <i_m_ct_stereo_status>  (81) 
1

>  <s_m_source_file>  (81) 
/var/tmp/pbs.5076255.sched01/tmp6mrmgolx/06cp14zw5.sdf

>  <i_m_source_file_index>  (81) 
31

>  <i_lp_mmshare_version>  (81) 
48012

>  <i_f3d_flags>  (81) 
0

>  <s_epik_input>  (81) 
W0NIM11bQ0hdKFtDSDNdKS9bQ0hdPVtDSF0vW0NASF0oL0MoPU4vW0hdKVtDSDJdMSlbQ0hdKFtDQEhdMltDSF09QzEzKVtDSDJdW0NASF0oW0NIMl0zKU4yW0NIM10=

>  <s_epik_cmdline>  (81) 
J2VwaWtfcHl0aG9uJywgJy1waHQnLCAnMi4wJywgJy1waCcsICc3LjAnLCAnLXRuJywgJzgnLCAnLW1hJywgJzIwMCcsICctaW1hZScsICc8aW5maWxlLm1hZT4nLCAnLW9tYWUnLCAnPG91dGZpbGUubWFlPic=

>  <r_epik_Ionization_Penalty>  (81) 
0.029765

>  <r_epik_Ionization_Penalty_Charging>  (81) 
0.029764

>  <r_epik_Ionization_Penalty_Neutral>  (81) 
9.14785e-07

>  <r_epik_State_Penalty>  (81) 
1.18929

>  <r_epik_Charging_Adjusted_Penalty>  (81) 
1.21905

>  <i_epik_Tot_Q>  (81) 
1

>  <i_epik_Tot_abs_Q>  (81) 
1

>  <s_lp_Force_Field>  (81) 
OPLS3e

>  <r_lp_Energy>  (81) 
58.158

>  <b_lp_Chiralities_Consistent>  (81) 
1

>  <s_lp_Variant>  (81) 
12:0-3

>  <s_i_glide_gridfile>  (81) 
pfpi4k_grid

>  <i_i_glide_lignum>  (81) 
31

>  <i_i_glide_rotatable_bonds>  (81) 
2

>  <r_i_docking_score>  (81) 
-3.18725

>  <r_i_glide_ligand_efficiency>  (81) 
-0.17707

>  <r_i_glide_ligand_efficiency_sa>  (81) 
-0.464053

>  <r_i_glide_ligand_efficiency_ln>  (81) 
-0.819266

>  <r_i_glide_gscore>  (81) 
-3.18725

>  <r_i_glide_lipo>  (81) 
-0.330081

>  <r_i_glide_hbond>  (81) 
-0.18081

>  <r_i_glide_metal>  (81) 
-0

>  <r_i_glide_rewards>  (81) 
-1.73602

>  <r_i_glide_evdw>  (81) 
-15.9296

>  <r_i_glide_ecoul>  (81) 
-4.38425

>  <r_i_glide_erotb>  (81) 
0.578163

>  <r_i_glide_esite>  (81) 
-0.0643811

>  <r_i_glide_emodel>  (81) 
-25.4223

>  <r_i_glide_energy>  (81) 
-20.3138

>  <r_i_glide_einternal>  (81) 
1.39766

>  <r_i_glide_intrahb_reward>  (81) 
-0

>  <i_i_glide_confnum>  (81) 
5

>  <i_i_glide_posenum>  (81) 
6

>  <r_i_glide_eff_state_penalty>  (81) 
0

>  <ligand_id>  (81) 
12

>  <original_smiles>  (81) 
CC(C)C=CC1C(=N)CC2=CC3C1CC(C2)N3C

>  <smiles>  (81) 
[H]C1=C(N([H])[H])C([H])(C([H])=C([H])C([H])(C([H])([H])[H])C([H])([H])[H])C2([H])C([H])([H])C3([H])C([H])([H])C1=C([H])C2([H])[N+]3([H])C([H])([H])[H]

$$$$
12:2:1
     RDKit          3D

 43 45  0  0  1  0  0  0  0  0999 V2000
    0.1150   -6.2908    3.8150 C   0  0  0  0  0  0  0  0  0  0  0  0
   -0.0915   -6.9776    2.4525 C   0  0  0  0  0  0  0  0  0  0  0  0
   -0.1793   -8.5036    2.6200 C   0  0  0  0  0  0  0  0  0  0  0  0
    0.9590   -6.5873    1.4145 C   0  0  0  0  0  0  0  0  0  0  0  0
    1.9357   -5.6673    1.5750 C   0  0  0  0  0  0  0  0  0  0  0  0
    2.9687   -5.2663    0.5332 C   0  0  2  0  0  0  0  0  0  0  0  0
    4.3921   -5.6933    0.9957 C   0  0  0  0  0  0  0  0  0  0  0  0
    4.5907   -7.0590    0.9905 N   0  0  0  0  0  0  0  0  0  0  0  0
    5.4001   -4.8636    1.3637 C   0  0  0  0  0  0  0  0  0  0  0  0
    5.2171   -3.4290    1.3759 C   0  0  0  0  0  0  0  0  0  0  0  0
    4.0880   -3.0390    1.9970 C   0  0  0  0  0  0  0  0  0  0  0  0
    2.9812   -2.6082    1.0624 C   0  0  2  0  0  0  0  0  0  0  0  0
    2.7560   -3.7817    0.0492 C   0  0  1  0  0  0  0  0  0  0  0  0
    3.6367   -3.4058   -1.1622 C   0  0  0  0  0  0  0  0  0  0  0  0
    4.4307   -2.1801   -0.6893 C   0  0  2  0  0  0  0  0  0  0  0  0
    5.6568   -2.6524    0.1381 C   0  0  0  0  0  0  0  0  0  0  0  0
    3.4443   -1.5072    0.1906 N   0  0  2  0  0  0  0  0  0  0  0  0
    3.8897   -0.2569    0.8537 C   0  0  0  0  0  0  0  0  0  0  0  0
    0.0998   -5.2053    3.7251 H   0  0  0  0  0  0  0  0  0  0  0  0
    1.0785   -6.5711    4.2422 H   0  0  0  0  0  0  0  0  0  0  0  0
   -0.6553   -6.5693    4.5352 H   0  0  0  0  0  0  0  0  0  0  0  0
   -1.0529   -6.6573    2.0526 H   0  0  0  0  0  0  0  0  0  0  0  0
   -0.4390   -8.9917    1.6809 H   0  0  0  0  0  0  0  0  0  0  0  0
   -0.9500   -8.7836    3.3418 H   0  0  0  0  0  0  0  0  0  0  0  0
    0.7631   -8.9271    2.9689 H   0  0  0  0  0  0  0  0  0  0  0  0
    0.8828   -7.1210    0.4769 H   0  0  0  0  0  0  0  0  0  0  0  0
    2.0304   -5.1384    2.5094 H   0  0  0  0  0  0  0  0  0  0  0  0
    2.7514   -5.8860   -0.3240 H   0  0  0  0  0  0  0  0  0  0  0  0
    3.8683   -7.7087    0.7134 H   0  0  0  0  0  0  0  0  0  0  0  0
    6.3585   -5.2703    1.6500 H   0  0  0  0  0  0  0  0  0  0  0  0
    5.4797   -7.4659    1.2343 H   0  0  0  0  0  0  0  0  0  0  0  0
    3.6938   -3.6507    2.7938 H   0  0  0  0  0  0  0  0  0  0  0  0
    2.0890   -2.3323    1.6242 H   0  0  0  0  0  0  0  0  0  0  0  0
    1.7388   -3.7043   -0.3216 H   0  0  0  0  0  0  0  0  0  0  0  0
    4.2755   -4.2239   -1.5010 H   0  0  0  0  0  0  0  0  0  0  0  0
    2.9902   -3.1263   -1.9946 H   0  0  0  0  0  0  0  0  0  0  0  0
    4.7377   -1.5496   -1.5262 H   0  0  0  0  0  0  0  0  0  0  0  0
    6.3301   -3.2581   -0.4702 H   0  0  0  0  0  0  0  0  0  0  0  0
    6.2350   -1.7924    0.4806 H   0  0  0  0  0  0  0  0  0  0  0  0
    4.7108   -0.4058    1.5549 H   0  0  0  0  0  0  0  0  0  0  0  0
    3.0542    0.1885    1.3957 H   0  0  0  0  0  0  0  0  0  0  0  0
    4.2140    0.4635    0.1037 H   0  0  0  0  0  0  0  0  0  0  0  0
    2.6441   -1.2630   -0.3880 H   0  0  0  0  0  0  0  0  0  0  0  0
  1  2  1  0
  1 19  1  0
  1 20  1  0
  1 21  1  0
  2  3  1  0
  2  4  1  0
  2 22  1  0
  3 23  1  0
  3 24  1  0
  3 25  1  0
  4  5  2  3
  4 26  1  0
  5  6  1  0
  5 27  1  0
  6 13  1  0
  6 28  1  6
  6  7  1  0
  7  8  1  0
  7  9  2  0
  8 29  1  0
  8 31  1  0
  9 30  1  0
  9 10  1  0
 10 16  1  0
 10 11  2  0
 11 12  1  0
 11 32  1  0
 12 17  1  0
 12 13  1  0
 12 33  1  1
 13 14  1  0
 13 34  1  6
 14 15  1  0
 14 35  1  0
 14 36  1  0
 15 16  1  0
 15 17  1  0
 15 37  1  6
 16 38  1  0
 16 39  1  0
 17 18  1  0
 17 43  1  6
 18 40  1  0
 18 41  1  0
 18 42  1  0
M  CHG  1  17   1
M  END
>  <i_m_ct_stereo_status>  (82) 
1

>  <s_m_source_file>  (82) 
/var/tmp/pbs.5076255.sched01/tmp6mrmgolx/06cp14zw5.sdf

>  <i_m_source_file_index>  (82) 
31

>  <i_lp_mmshare_version>  (82) 
48012

>  <i_f3d_flags>  (82) 
0

>  <s_epik_input>  (82) 
W0NIM11bQ0hdKFtDSDNdKS9bQ0hdPVtDSF0vW0NASF0oL0MoPU4vW0hdKVtDSDJdMSlbQ0hdKFtDQEhdMltDSF09QzEzKVtDSDJdW0NASF0oW0NIMl0zKU4yW0NIM10=

>  <s_epik_cmdline>  (82) 
J2VwaWtfcHl0aG9uJywgJy1waHQnLCAnMi4wJywgJy1waCcsICc3LjAnLCAnLXRuJywgJzgnLCAnLW1hJywgJzIwMCcsICctaW1hZScsICc8aW5maWxlLm1hZT4nLCAnLW9tYWUnLCAnPG91dGZpbGUubWFlPic=

>  <r_epik_Ionization_Penalty>  (82) 
0.029765

>  <r_epik_Ionization_Penalty_Charging>  (82) 
0.029764

>  <r_epik_Ionization_Penalty_Neutral>  (82) 
9.14785e-07

>  <r_epik_State_Penalty>  (82) 
1.18929

>  <r_epik_Charging_Adjusted_Penalty>  (82) 
1.21905

>  <i_epik_Tot_Q>  (82) 
1

>  <i_epik_Tot_abs_Q>  (82) 
1

>  <s_lp_Force_Field>  (82) 
OPLS3e

>  <r_lp_Energy>  (82) 
58.158

>  <b_lp_Chiralities_Consistent>  (82) 
1

>  <s_lp_Variant>  (82) 
12:0-3

>  <s_i_glide_gridfile>  (82) 
pfpi4k_grid

>  <i_i_glide_lignum>  (82) 
31

>  <i_i_glide_rotatable_bonds>  (82) 
2

>  <r_i_docking_score>  (82) 
-3.13482

>  <r_i_glide_ligand_efficiency>  (82) 
-0.174157

>  <r_i_glide_ligand_efficiency_sa>  (82) 
-0.45642

>  <r_i_glide_ligand_efficiency_ln>  (82) 
-0.80579

>  <r_i_glide_gscore>  (82) 
-3.13482

>  <r_i_glide_lipo>  (82) 
-0.270527

>  <r_i_glide_hbond>  (82) 
-0.2

>  <r_i_glide_metal>  (82) 
-0

>  <r_i_glide_rewards>  (82) 
-1.73602

>  <r_i_glide_evdw>  (82) 
-15.9222

>  <r_i_glide_ecoul>  (82) 
-4.22254

>  <r_i_glide_erotb>  (82) 
0.578163

>  <r_i_glide_esite>  (82) 
-0.0769415

>  <r_i_glide_emodel>  (82) 
-25.4368

>  <r_i_glide_energy>  (82) 
-20.1447

>  <r_i_glide_einternal>  (82) 
0.79705

>  <r_i_glide_intrahb_reward>  (82) 
-0

>  <i_i_glide_confnum>  (82) 
3

>  <i_i_glide_posenum>  (82) 
34

>  <r_i_glide_eff_state_penalty>  (82) 
0

>  <ligand_id>  (82) 
12

>  <original_smiles>  (82) 
CC(C)C=CC1C(=N)CC2=CC3C1CC(C2)N3C

>  <smiles>  (82) 
[H]C1=C(N([H])[H])C([H])(C([H])=C([H])C([H])(C([H])([H])[H])C([H])([H])[H])C2([H])C([H])([H])C3([H])C([H])([H])C1=C([H])C2([H])[N+]3([H])C([H])([H])[H]

$$$$
12:2:2
     RDKit          3D

 43 45  0  0  1  0  0  0  0  0999 V2000
   -1.5991   -8.7409    2.0942 C   0  0  0  0  0  0  0  0  0  0  0  0
   -1.0305   -8.5237    3.5044 C   0  0  0  0  0  0  0  0  0  0  0  0
   -1.0721   -7.0461    3.9045 C   0  0  0  0  0  0  0  0  0  0  0  0
    0.3662   -9.0935    3.6828 C   0  0  0  0  0  0  0  0  0  0  0  0
    1.1687   -9.5820    2.7118 C   0  0  0  0  0  0  0  0  0  0  0  0
    2.5705  -10.1559    2.8778 C   0  0  2  0  0  0  0  0  0  0  0  0
    2.8997  -10.4707    4.3659 C   0  0  0  0  0  0  0  0  0  0  0  0
    2.1763  -11.5265    4.8789 N   0  0  0  0  0  0  0  0  0  0  0  0
    3.7896   -9.8040    5.1362 C   0  0  0  0  0  0  0  0  0  0  0  0
    4.5521   -8.7004    4.5976 C   0  0  0  0  0  0  0  0  0  0  0  0
    3.8058   -7.8019    3.9271 C   0  0  0  0  0  0  0  0  0  0  0  0
    3.9353   -7.8765    2.4224 C   0  0  2  0  0  0  0  0  0  0  0  0
    3.6124   -9.3509    2.0123 C   0  0  1  0  0  0  0  0  0  0  0  0
    5.0031  -10.0280    1.9527 C   0  0  0  0  0  0  0  0  0  0  0  0
    5.9714   -8.9757    2.5144 C   0  0  2  0  0  0  0  0  0  0  0  0
    5.9476   -9.0166    4.0629 C   0  0  0  0  0  0  0  0  0  0  0  0
    5.3521   -7.7243    2.0252 N   0  0  2  0  0  0  0  0  0  0  0  0
    6.0300   -6.4558    2.3852 C   0  0  0  0  0  0  0  0  0  0  0  0
   -1.6346   -9.8044    1.8558 H   0  0  0  0  0  0  0  0  0  0  0  0
   -0.9984   -8.2395    1.3339 H   0  0  0  0  0  0  0  0  0  0  0  0
   -2.6110   -8.3538    2.0216 H   0  0  0  0  0  0  0  0  0  0  0  0
   -1.6757   -9.0568    4.2007 H   0  0  0  0  0  0  0  0  0  0  0  0
   -0.7606   -6.9085    4.9403 H   0  0  0  0  0  0  0  0  0  0  0  0
   -2.0871   -6.6598    3.8175 H   0  0  0  0  0  0  0  0  0  0  0  0
   -0.4117   -6.4474    3.2760 H   0  0  0  0  0  0  0  0  0  0  0  0
    0.7068   -9.0907    4.7076 H   0  0  0  0  0  0  0  0  0  0  0  0
    0.8300   -9.5921    1.6868 H   0  0  0  0  0  0  0  0  0  0  0  0
    2.5015  -11.1340    2.4039 H   0  0  0  0  0  0  0  0  0  0  0  0
    1.4955  -12.0314    4.3273 H   0  0  0  0  0  0  0  0  0  0  0  0
    3.9349  -10.1013    6.1653 H   0  0  0  0  0  0  0  0  0  0  0  0
    2.2372  -11.8291    5.8494 H   0  0  0  0  0  0  0  0  0  0  0  0
    2.7717   -7.6616    4.2073 H   0  0  0  0  0  0  0  0  0  0  0  0
    3.2899   -7.1411    1.9409 H   0  0  0  0  0  0  0  0  0  0  0  0
    3.2363   -9.3284    0.9860 H   0  0  0  0  0  0  0  0  0  0  0  0
    5.0437  -10.9739    2.4974 H   0  0  0  0  0  0  0  0  0  0  0  0
    5.2613  -10.2426    0.9145 H   0  0  0  0  0  0  0  0  0  0  0  0
    6.9849   -9.1152    2.1315 H   0  0  0  0  0  0  0  0  0  0  0  0
    6.2822   -9.9868    4.4323 H   0  0  0  0  0  0  0  0  0  0  0  0
    6.6330   -8.2710    4.4711 H   0  0  0  0  0  0  0  0  0  0  0  0
    6.0428   -6.2651    3.4582 H   0  0  0  0  0  0  0  0  0  0  0  0
    5.5267   -5.6192    1.8967 H   0  0  0  0  0  0  0  0  0  0  0  0
    7.0624   -6.4747    2.0288 H   0  0  0  0  0  0  0  0  0  0  0  0
    5.3692   -7.7903    1.0165 H   0  0  0  0  0  0  0  0  0  0  0  0
  1  2  1  0
  1 19  1  0
  1 20  1  0
  1 21  1  0
  2  3  1  0
  2  4  1  0
  2 22  1  0
  3 23  1  0
  3 24  1  0
  3 25  1  0
  4  5  2  3
  4 26  1  0
  5  6  1  0
  5 27  1  0
  6 13  1  0
  6 28  1  6
  6  7  1  0
  7  8  1  0
  7  9  2  0
  8 29  1  0
  8 31  1  0
  9 30  1  0
  9 10  1  0
 10 16  1  0
 10 11  2  0
 11 12  1  0
 11 32  1  0
 12 17  1  0
 12 13  1  0
 12 33  1  6
 13 14  1  0
 13 34  1  6
 14 15  1  0
 14 35  1  0
 14 36  1  0
 15 16  1  0
 15 17  1  0
 15 37  1  6
 16 38  1  0
 16 39  1  0
 17 18  1  0
 17 43  1  6
 18 40  1  0
 18 41  1  0
 18 42  1  0
M  CHG  1  17   1
M  END
>  <i_m_ct_stereo_status>  (83) 
1

>  <s_m_source_file>  (83) 
/var/tmp/pbs.5076255.sched01/tmp6mrmgolx/06cp14zw5.sdf

>  <i_m_source_file_index>  (83) 
31

>  <i_lp_mmshare_version>  (83) 
48012

>  <i_f3d_flags>  (83) 
0

>  <s_epik_input>  (83) 
W0NIM11bQ0hdKFtDSDNdKS9bQ0hdPVtDSF0vW0NASF0oL0MoPU4vW0hdKVtDSDJdMSlbQ0hdKFtDQEhdMltDSF09QzEzKVtDSDJdW0NASF0oW0NIMl0zKU4yW0NIM10=

>  <s_epik_cmdline>  (83) 
J2VwaWtfcHl0aG9uJywgJy1waHQnLCAnMi4wJywgJy1waCcsICc3LjAnLCAnLXRuJywgJzgnLCAnLW1hJywgJzIwMCcsICctaW1hZScsICc8aW5maWxlLm1hZT4nLCAnLW9tYWUnLCAnPG91dGZpbGUubWFlPic=

>  <r_epik_Ionization_Penalty>  (83) 
0.029765

>  <r_epik_Ionization_Penalty_Charging>  (83) 
0.029764

>  <r_epik_Ionization_Penalty_Neutral>  (83) 
9.14785e-07

>  <r_epik_State_Penalty>  (83) 
1.18929

>  <r_epik_Charging_Adjusted_Penalty>  (83) 
1.21905

>  <i_epik_Tot_Q>  (83) 
1

>  <i_epik_Tot_abs_Q>  (83) 
1

>  <s_lp_Force_Field>  (83) 
OPLS3e

>  <r_lp_Energy>  (83) 
58.158

>  <b_lp_Chiralities_Consistent>  (83) 
1

>  <s_lp_Variant>  (83) 
12:0-3

>  <s_i_glide_gridfile>  (83) 
pfpi4k_grid

>  <i_i_glide_lignum>  (83) 
31

>  <i_i_glide_rotatable_bonds>  (83) 
2

>  <r_i_docking_score>  (83) 
-2.84947

>  <r_i_glide_ligand_efficiency>  (83) 
-0.158304

>  <r_i_glide_ligand_efficiency_sa>  (83) 
-0.414874

>  <r_i_glide_ligand_efficiency_ln>  (83) 
-0.732442

>  <r_i_glide_gscore>  (83) 
-2.84947

>  <r_i_glide_lipo>  (83) 
-0.210426

>  <r_i_glide_hbond>  (83) 
-0.144681

>  <r_i_glide_metal>  (83) 
-0

>  <r_i_glide_rewards>  (83) 
-1.73602

>  <r_i_glide_evdw>  (83) 
-14.911

>  <r_i_glide_ecoul>  (83) 
-3.45182

>  <r_i_glide_erotb>  (83) 
0.578163

>  <r_i_glide_esite>  (83) 
-0.0731815

>  <r_i_glide_emodel>  (83) 
-22.8607

>  <r_i_glide_energy>  (83) 
-18.3628

>  <r_i_glide_einternal>  (83) 
1.39092

>  <r_i_glide_intrahb_reward>  (83) 
-0

>  <i_i_glide_confnum>  (83) 
5

>  <i_i_glide_posenum>  (83) 
33

>  <r_i_glide_eff_state_penalty>  (83) 
0

>  <ligand_id>  (83) 
12

>  <original_smiles>  (83) 
CC(C)C=CC1C(=N)CC2=CC3C1CC(C2)N3C

>  <smiles>  (83) 
[H]C1=C(N([H])[H])C([H])(C([H])=C([H])C([H])(C([H])([H])[H])C([H])([H])[H])C2([H])C([H])([H])C3([H])C([H])([H])C1=C([H])C2([H])[N+]3([H])C([H])([H])[H]

$$$$
12:3:0
     RDKit          3D

 43 45  0  0  1  0  0  0  0  0999 V2000
   -1.8208   -7.7311    3.1715 C   0  0  0  0  0  0  0  0  0  0  0  0
   -0.6072   -8.3067    2.4281 C   0  0  0  0  0  0  0  0  0  0  0  0
   -0.7076   -9.8365    2.4031 C   0  0  0  0  0  0  0  0  0  0  0  0
    0.7048   -7.7162    2.9839 C   0  0  0  0  0  0  0  0  0  0  0  0
    1.7038   -8.3163    3.6597 C   0  0  0  0  0  0  0  0  0  0  0  0
    1.8382   -9.7795    4.1112 C   0  0  2  0  0  0  0  0  0  0  0  0
    1.9786   -9.8502    5.6352 C   0  0  0  0  0  0  0  0  0  0  0  0
    0.8397   -9.4922    6.3371 N   0  0  0  0  0  0  0  0  0  0  0  0
    3.0798  -10.3391    6.3156 C   0  0  0  0  0  0  0  0  0  0  0  0
    4.2516  -10.7493    5.5623 C   0  0  0  0  0  0  0  0  0  0  0  0
    4.6298   -9.8639    4.6265 C   0  0  0  0  0  0  0  0  0  0  0  0
    4.3138  -10.2894    3.1943 C   0  0  2  0  0  0  0  0  0  0  0  0
    2.7802  -10.5949    3.1673 C   0  0  1  0  0  0  0  0  0  0  0  0
    2.7053  -12.1228    3.4088 C   0  0  0  0  0  0  0  0  0  0  0  0
    4.1354  -12.5274    3.7645 C   0  0  2  0  0  0  0  0  0  0  0  0
    4.4119  -12.2303    5.2690 C   0  0  0  0  0  0  0  0  0  0  0  0
    4.9139  -11.6064    2.9067 N   0  0  2  0  0  0  0  0  0  0  0  0
    6.3906  -11.6809    2.9751 C   0  0  0  0  0  0  0  0  0  0  0  0
   -1.8847   -6.6538    3.0752 H   0  0  0  0  0  0  0  0  0  0  0  0
   -1.7896   -7.9832    4.2345 H   0  0  0  0  0  0  0  0  0  0  0  0
   -2.7352   -8.1590    2.7606 H   0  0  0  0  0  0  0  0  0  0  0  0
   -0.6733   -7.9742    1.3814 H   0  0  0  0  0  0  0  0  0  0  0  0
    0.1860  -10.2502    1.9305 H   0  0  0  0  0  0  0  0  0  0  0  0
   -1.5740  -10.2027    1.8705 H   0  0  0  0  0  0  0  0  0  0  0  0
   -0.8159  -10.2161    3.4147 H   0  0  0  0  0  0  0  0  0  0  0  0
    0.8081   -6.6596    2.7853 H   0  0  0  0  0  0  0  0  0  0  0  0
    2.5525   -7.6576    3.9416 H   0  0  0  0  0  0  0  0  0  0  0  0
    0.9551  -10.3416    4.0461 H   0  0  0  0  0  0  0  0  0  0  0  0
   -0.0425   -9.2797    5.8753 H   0  0  0  0  0  0  0  0  0  0  0  0
    3.0176  -10.4543    7.3913 H   0  0  0  0  0  0  0  0  0  0  0  0
    0.7577   -9.6560    7.3201 H   0  0  0  0  0  0  0  0  0  0  0  0
    4.3919   -8.8256    4.7844 H   0  0  0  0  0  0  0  0  0  0  0  0
    4.5895   -9.5157    2.4657 H   0  0  0  0  0  0  0  0  0  0  0  0
    2.4453  -10.4397    2.1431 H   0  0  0  0  0  0  0  0  0  0  0  0
    1.9856  -12.3971    4.1681 H   0  0  0  0  0  0  0  0  0  0  0  0
    2.4100  -12.6281    2.4917 H   0  0  0  0  0  0  0  0  0  0  0  0
    4.3421  -13.5748    3.5290 H   0  0  0  0  0  0  0  0  0  0  0  0
    3.7751  -12.8172    5.9159 H   0  0  0  0  0  0  0  0  0  0  0  0
    5.4310  -12.4984    5.5325 H   0  0  0  0  0  0  0  0  0  0  0  0
    6.7684  -11.4144    3.9615 H   0  0  0  0  0  0  0  0  0  0  0  0
    6.8313  -10.9976    2.2553 H   0  0  0  0  0  0  0  0  0  0  0  0
    6.7231  -12.6830    2.7406 H   0  0  0  0  0  0  0  0  0  0  0  0
    4.6360  -11.8454    1.9153 H   0  0  0  0  0  0  0  0  0  0  0  0
  1  2  1  0
  1 19  1  0
  1 20  1  0
  1 21  1  0
  2  3  1  0
  2  4  1  0
  2 22  1  0
  3 23  1  0
  3 24  1  0
  3 25  1  0
  4  5  2  3
  4 26  1  0
  5  6  1  0
  5 27  1  0
  6 13  1  0
  6 28  1  1
  6  7  1  0
  7  8  1  0
  7  9  2  0
  8 29  1  0
  8 31  1  0
  9 30  1  0
  9 10  1  0
 10 16  1  0
 10 11  2  0
 11 12  1  0
 11 32  1  0
 12 17  1  0
 12 13  1  0
 12 33  1  6
 13 14  1  0
 13 34  1  6
 14 15  1  0
 14 35  1  0
 14 36  1  0
 15 16  1  0
 15 17  1  0
 15 37  1  6
 16 38  1  0
 16 39  1  0
 17 18  1  0
 17 43  1  6
 18 40  1  0
 18 41  1  0
 18 42  1  0
M  CHG  1  17   1
M  END
>  <i_m_ct_stereo_status>  (84) 
1

>  <s_m_source_file>  (84) 
/var/tmp/pbs.5076255.sched01/tmp6mrmgolx/06cp14zw5.sdf

>  <i_m_source_file_index>  (84) 
32

>  <i_lp_mmshare_version>  (84) 
48012

>  <i_f3d_flags>  (84) 
0

>  <s_epik_input>  (84) 
W0NIM11bQ0hdKFtDSDNdKS9bQ0hdPVtDSF0vW0NASF0oL0MoPU4vW0hdKVtDSDJdMSlbQ0hdKFtDQEhdMltDSF09QzEzKVtDSDJdW0NASF0oW0NIMl0zKU4yW0NIM10=

>  <s_epik_cmdline>  (84) 
J2VwaWtfcHl0aG9uJywgJy1waHQnLCAnMi4wJywgJy1waCcsICc3LjAnLCAnLXRuJywgJzgnLCAnLW1hJywgJzIwMCcsICctaW1hZScsICc8aW5maWxlLm1hZT4nLCAnLW9tYWUnLCAnPG91dGZpbGUubWFlPic=

>  <r_epik_Ionization_Penalty>  (84) 
0.029765

>  <r_epik_Ionization_Penalty_Charging>  (84) 
0.029764

>  <r_epik_Ionization_Penalty_Neutral>  (84) 
9.14785e-07

>  <r_epik_State_Penalty>  (84) 
1.18929

>  <r_epik_Charging_Adjusted_Penalty>  (84) 
1.21905

>  <i_epik_Tot_Q>  (84) 
1

>  <i_epik_Tot_abs_Q>  (84) 
1

>  <s_lp_Force_Field>  (84) 
OPLS3e

>  <r_lp_Energy>  (84) 
59.4782

>  <b_lp_Chiralities_Consistent>  (84) 
1

>  <s_lp_Variant>  (84) 
12:0-4

>  <s_i_glide_gridfile>  (84) 
pfpi4k_grid

>  <i_i_glide_lignum>  (84) 
32

>  <i_i_glide_rotatable_bonds>  (84) 
2

>  <r_i_docking_score>  (84) 
-3.1179

>  <r_i_glide_ligand_efficiency>  (84) 
-0.173217

>  <r_i_glide_ligand_efficiency_sa>  (84) 
-0.453956

>  <r_i_glide_ligand_efficiency_ln>  (84) 
-0.80144

>  <r_i_glide_gscore>  (84) 
-3.1179

>  <r_i_glide_lipo>  (84) 
-0.112431

>  <r_i_glide_hbond>  (84) 
-0.2

>  <r_i_glide_metal>  (84) 
-0

>  <r_i_glide_rewards>  (84) 
-1.73602

>  <r_i_glide_evdw>  (84) 
-13.8859

>  <r_i_glide_ecoul>  (84) 
-5.26823

>  <r_i_glide_erotb>  (84) 
0.578163

>  <r_i_glide_esite>  (84) 
-0.163075

>  <r_i_glide_emodel>  (84) 
-23.5023

>  <r_i_glide_energy>  (84) 
-19.1542

>  <r_i_glide_einternal>  (84) 
0.858862

>  <r_i_glide_intrahb_reward>  (84) 
-0

>  <i_i_glide_confnum>  (84) 
2

>  <i_i_glide_posenum>  (84) 
3

>  <r_i_glide_eff_state_penalty>  (84) 
0

>  <ligand_id>  (84) 
12

>  <original_smiles>  (84) 
CC(C)C=CC1C(=N)CC2=CC3C1CC(C2)N3C

>  <smiles>  (84) 
[H]C1=C(N([H])[H])C([H])(C([H])=C([H])C([H])(C([H])([H])[H])C([H])([H])[H])C2([H])C([H])([H])C3([H])C([H])([H])C1=C([H])C2([H])[N+]3([H])C([H])([H])[H]

$$$$
12:3:1
     RDKit          3D

 43 45  0  0  1  0  0  0  0  0999 V2000
   -0.8363   -9.3558    2.3963 C   0  0  0  0  0  0  0  0  0  0  0  0
   -1.0964   -8.5944    3.7080 C   0  0  0  0  0  0  0  0  0  0  0  0
   -1.4067   -7.1275    3.3869 C   0  0  0  0  0  0  0  0  0  0  0  0
   -0.0118   -8.7012    4.7759 C   0  0  0  0  0  0  0  0  0  0  0  0
    1.3045   -9.0562    4.7254 C   0  0  0  0  0  0  0  0  0  0  0  0
    2.1224   -9.4816    3.4787 C   0  0  2  0  0  0  0  0  0  0  0  0
    2.5126  -10.9676    3.5460 C   0  0  0  0  0  0  0  0  0  0  0  0
    1.4355  -11.8401    3.4087 N   0  0  0  0  0  0  0  0  0  0  0  0
    3.7584  -11.4437    3.6252 C   0  0  0  0  0  0  0  0  0  0  0  0
    4.8837  -10.5232    3.7091 C   0  0  0  0  0  0  0  0  0  0  0  0
    4.7062   -9.5362    4.5964 C   0  0  0  0  0  0  0  0  0  0  0  0
    4.3933   -8.1806    3.9834 C   0  0  2  0  0  0  0  0  0  0  0  0
    3.1618   -8.3868    3.0577 C   0  0  1  0  0  0  0  0  0  0  0  0
    3.7733   -8.6356    1.6570 C   0  0  0  0  0  0  0  0  0  0  0  0
    5.2898   -8.7641    1.9292 C   0  0  2  0  0  0  0  0  0  0  0  0
    5.6222  -10.1939    2.4135 C   0  0  0  0  0  0  0  0  0  0  0  0
    5.4546   -7.7887    3.0280 N   0  0  2  0  0  0  0  0  0  0  0  0
    6.8109   -7.6352    3.5901 C   0  0  0  0  0  0  0  0  0  0  0  0
   -0.5500  -10.3808    2.6265 H   0  0  0  0  0  0  0  0  0  0  0  0
   -0.0679   -8.8310    1.8157 H   0  0  0  0  0  0  0  0  0  0  0  0
   -1.6594   -9.3820    1.7051 H   0  0  0  0  0  0  0  0  0  0  0  0
   -1.9979   -9.0334    4.1256 H   0  0  0  0  0  0  0  0  0  0  0  0
   -1.7776   -6.6083    4.2710 H   0  0  0  0  0  0  0  0  0  0  0  0
   -2.1769   -7.0681    2.6147 H   0  0  0  0  0  0  0  0  0  0  0  0
   -0.5171   -6.6129    3.0248 H   0  0  0  0  0  0  0  0  0  0  0  0
   -0.3789   -8.4501    5.7836 H   0  0  0  0  0  0  0  0  0  0  0  0
    1.8469   -9.0527    5.6414 H   0  0  0  0  0  0  0  0  0  0  0  0
    1.5807   -9.5299    2.5759 H   0  0  0  0  0  0  0  0  0  0  0  0
    0.4834  -11.5313    3.2868 H   0  0  0  0  0  0  0  0  0  0  0  0
    3.9215  -12.5219    3.5735 H   0  0  0  0  0  0  0  0  0  0  0  0
    1.5535  -12.8545    3.3509 H   0  0  0  0  0  0  0  0  0  0  0  0
    4.0695   -9.7367    5.4534 H   0  0  0  0  0  0  0  0  0  0  0  0
    4.2135   -7.4133    4.7555 H   0  0  0  0  0  0  0  0  0  0  0  0
    2.6231   -7.4363    2.9855 H   0  0  0  0  0  0  0  0  0  0  0  0
    3.3645   -9.4959    1.1361 H   0  0  0  0  0  0  0  0  0  0  0  0
    3.5934   -7.7767    1.0083 H   0  0  0  0  0  0  0  0  0  0  0  0
    5.8796   -8.4968    1.0519 H   0  0  0  0  0  0  0  0  0  0  0  0
    5.4115  -10.9480    1.6621 H   0  0  0  0  0  0  0  0  0  0  0  0
    6.6850  -10.2958    2.6166 H   0  0  0  0  0  0  0  0  0  0  0  0
    7.1912   -8.5392    4.0638 H   0  0  0  0  0  0  0  0  0  0  0  0
    6.8159   -6.8405    4.3475 H   0  0  0  0  0  0  0  0  0  0  0  0
    7.5157   -7.3379    2.8085 H   0  0  0  0  0  0  0  0  0  0  0  0
    5.1923   -6.9011    2.6607 H   0  0  0  0  0  0  0  0  0  0  0  0
  1  2  1  0
  1 19  1  0
  1 20  1  0
  1 21  1  0
  2  3  1  0
  2  4  1  0
  2 22  1  0
  3 23  1  0
  3 24  1  0
  3 25  1  0
  4  5  2  3
  4 26  1  0
  5  6  1  0
  5 27  1  0
  6 13  1  0
  6 28  1  6
  6  7  1  0
  7  8  1  0
  7  9  2  0
  8 29  1  0
  8 31  1  0
  9 30  1  0
  9 10  1  0
 10 16  1  0
 10 11  2  0
 11 12  1  0
 11 32  1  0
 12 17  1  0
 12 13  1  0
 12 33  1  1
 13 14  1  0
 13 34  1  6
 14 15  1  0
 14 35  1  0
 14 36  1  0
 15 16  1  0
 15 17  1  0
 15 37  1  6
 16 38  1  0
 16 39  1  0
 17 18  1  0
 17 43  1  6
 18 40  1  0
 18 41  1  0
 18 42  1  0
M  CHG  1  17   1
M  END
>  <i_m_ct_stereo_status>  (85) 
1

>  <s_m_source_file>  (85) 
/var/tmp/pbs.5076255.sched01/tmp6mrmgolx/06cp14zw5.sdf

>  <i_m_source_file_index>  (85) 
32

>  <i_lp_mmshare_version>  (85) 
48012

>  <i_f3d_flags>  (85) 
0

>  <s_epik_input>  (85) 
W0NIM11bQ0hdKFtDSDNdKS9bQ0hdPVtDSF0vW0NASF0oL0MoPU4vW0hdKVtDSDJdMSlbQ0hdKFtDQEhdMltDSF09QzEzKVtDSDJdW0NASF0oW0NIMl0zKU4yW0NIM10=

>  <s_epik_cmdline>  (85) 
J2VwaWtfcHl0aG9uJywgJy1waHQnLCAnMi4wJywgJy1waCcsICc3LjAnLCAnLXRuJywgJzgnLCAnLW1hJywgJzIwMCcsICctaW1hZScsICc8aW5maWxlLm1hZT4nLCAnLW9tYWUnLCAnPG91dGZpbGUubWFlPic=

>  <r_epik_Ionization_Penalty>  (85) 
0.029765

>  <r_epik_Ionization_Penalty_Charging>  (85) 
0.029764

>  <r_epik_Ionization_Penalty_Neutral>  (85) 
9.14785e-07

>  <r_epik_State_Penalty>  (85) 
1.18929

>  <r_epik_Charging_Adjusted_Penalty>  (85) 
1.21905

>  <i_epik_Tot_Q>  (85) 
1

>  <i_epik_Tot_abs_Q>  (85) 
1

>  <s_lp_Force_Field>  (85) 
OPLS3e

>  <r_lp_Energy>  (85) 
59.4782

>  <b_lp_Chiralities_Consistent>  (85) 
1

>  <s_lp_Variant>  (85) 
12:0-4

>  <s_i_glide_gridfile>  (85) 
pfpi4k_grid

>  <i_i_glide_lignum>  (85) 
32

>  <i_i_glide_rotatable_bonds>  (85) 
2

>  <r_i_docking_score>  (85) 
-3.09547

>  <r_i_glide_ligand_efficiency>  (85) 
-0.17197

>  <r_i_glide_ligand_efficiency_sa>  (85) 
-0.45069

>  <r_i_glide_ligand_efficiency_ln>  (85) 
-0.795674

>  <r_i_glide_gscore>  (85) 
-3.09547

>  <r_i_glide_lipo>  (85) 
-0.254144

>  <r_i_glide_hbond>  (85) 
-0.32

>  <r_i_glide_metal>  (85) 
-0

>  <r_i_glide_rewards>  (85) 
-1.73602

>  <r_i_glide_evdw>  (85) 
-14.5919

>  <r_i_glide_ecoul>  (85) 
-4.22578

>  <r_i_glide_erotb>  (85) 
0.578163

>  <r_i_glide_esite>  (85) 
0

>  <r_i_glide_emodel>  (85) 
-22.971

>  <r_i_glide_energy>  (85) 
-18.8177

>  <r_i_glide_einternal>  (85) 
1.02651

>  <r_i_glide_intrahb_reward>  (85) 
-0

>  <i_i_glide_confnum>  (85) 
4

>  <i_i_glide_posenum>  (85) 
29

>  <r_i_glide_eff_state_penalty>  (85) 
0

>  <ligand_id>  (85) 
12

>  <original_smiles>  (85) 
CC(C)C=CC1C(=N)CC2=CC3C1CC(C2)N3C

>  <smiles>  (85) 
[H]C1=C(N([H])[H])C([H])(C([H])=C([H])C([H])(C([H])([H])[H])C([H])([H])[H])C2([H])C([H])([H])C3([H])C([H])([H])C1=C([H])C2([H])[N+]3([H])C([H])([H])[H]

$$$$
12:3:2
     RDKit          3D

 43 45  0  0  1  0  0  0  0  0999 V2000
   -1.1189   -8.7556    3.2797 C   0  0  0  0  0  0  0  0  0  0  0  0
   -0.9775   -8.1899    4.7034 C   0  0  0  0  0  0  0  0  0  0  0  0
   -1.2467   -6.6807    4.6787 C   0  0  0  0  0  0  0  0  0  0  0  0
    0.3489   -8.4930    5.4207 C   0  0  0  0  0  0  0  0  0  0  0  0
    1.5649   -8.8351    4.9472 C   0  0  0  0  0  0  0  0  0  0  0  0
    1.9649   -9.0426    3.4588 C   0  0  2  0  0  0  0  0  0  0  0  0
    2.5470  -10.4570    3.2566 C   0  0  0  0  0  0  0  0  0  0  0  0
    1.5974  -11.4423    3.3252 N   0  0  0  0  0  0  0  0  0  0  0  0
    3.8372  -10.7523    2.8994 C   0  0  0  0  0  0  0  0  0  0  0  0
    4.8046   -9.6904    2.7511 C   0  0  0  0  0  0  0  0  0  0  0  0
    4.8048   -8.8085    3.7769 C   0  0  0  0  0  0  0  0  0  0  0  0
    4.1617   -7.4703    3.4544 C   0  0  2  0  0  0  0  0  0  0  0  0
    2.7356   -7.7755    2.9069 C   0  0  1  0  0  0  0  0  0  0  0  0
    2.9194   -7.8115    1.3690 C   0  0  0  0  0  0  0  0  0  0  0  0
    4.4388   -7.7439    1.1608 C   0  0  2  0  0  0  0  0  0  0  0  0
    5.0663   -9.1479    1.3495 C   0  0  0  0  0  0  0  0  0  0  0  0
    4.8403   -6.8571    2.2837 N   0  0  2  0  0  0  0  0  0  0  0  0
    6.2899   -6.5491    2.4339 C   0  0  0  0  0  0  0  0  0  0  0  0
   -0.8669   -9.8219    3.2975 H   0  0  0  0  0  0  0  0  0  0  0  0
   -0.4524   -8.2243    2.6112 H   0  0  0  0  0  0  0  0  0  0  0  0
   -2.1337   -8.6646    2.8683 H   0  0  0  0  0  0  0  0  0  0  0  0
   -1.7583   -8.6726    5.2931 H   0  0  0  0  0  0  0  0  0  0  0  0
   -1.3231   -6.2522    5.6814 H   0  0  0  0  0  0  0  0  0  0  0  0
   -2.1874   -6.4893    4.1671 H   0  0  0  0  0  0  0  0  0  0  0  0
   -0.4557   -6.1458    4.1513 H   0  0  0  0  0  0  0  0  0  0  0  0
    0.2675   -8.4094    6.5053 H   0  0  0  0  0  0  0  0  0  0  0  0
    2.3457   -8.9945    5.6805 H   0  0  0  0  0  0  0  0  0  0  0  0
    1.1684   -9.1292    2.7916 H   0  0  0  0  0  0  0  0  0  0  0  0
    0.6207  -11.2634    3.5323 H   0  0  0  0  0  0  0  0  0  0  0  0
    4.0833  -11.7833    2.6628 H   0  0  0  0  0  0  0  0  0  0  0  0
    1.7983  -12.4249    3.1389 H   0  0  0  0  0  0  0  0  0  0  0  0
    4.4846   -9.1668    4.7440 H   0  0  0  0  0  0  0  0  0  0  0  0
    4.1575   -6.8032    4.3280 H   0  0  0  0  0  0  0  0  0  0  0  0
    2.1087   -6.9042    3.1165 H   0  0  0  0  0  0  0  0  0  0  0  0
    2.4706   -8.6738    0.8746 H   0  0  0  0  0  0  0  0  0  0  0  0
    2.4568   -6.9359    0.9180 H   0  0  0  0  0  0  0  0  0  0  0  0
    4.7073   -7.3181    0.1924 H   0  0  0  0  0  0  0  0  0  0  0  0
    4.6823   -9.8359    0.5963 H   0  0  0  0  0  0  0  0  0  0  0  0
    6.1409   -9.1162    1.2151 H   0  0  0  0  0  0  0  0  0  0  0  0
    6.8811   -7.4362    2.6581 H   0  0  0  0  0  0  0  0  0  0  0  0
    6.4252   -5.8359    3.2446 H   0  0  0  0  0  0  0  0  0  0  0  0
    6.6657   -6.0982    1.5205 H   0  0  0  0  0  0  0  0  0  0  0  0
    4.3756   -5.9720    2.1158 H   0  0  0  0  0  0  0  0  0  0  0  0
  1  2  1  0
  1 19  1  0
  1 20  1  0
  1 21  1  0
  2  3  1  0
  2  4  1  0
  2 22  1  0
  3 23  1  0
  3 24  1  0
  3 25  1  0
  4  5  2  3
  4 26  1  0
  5  6  1  0
  5 27  1  0
  6 13  1  0
  6 28  1  6
  6  7  1  0
  7  8  1  0
  7  9  2  0
  8 29  1  0
  8 31  1  0
  9 30  1  0
  9 10  1  0
 10 16  1  0
 10 11  2  0
 11 12  1  0
 11 32  1  0
 12 17  1  0
 12 13  1  0
 12 33  1  1
 13 14  1  0
 13 34  1  6
 14 15  1  0
 14 35  1  0
 14 36  1  0
 15 16  1  0
 15 17  1  0
 15 37  1  6
 16 38  1  0
 16 39  1  0
 17 18  1  0
 17 43  1  6
 18 40  1  0
 18 41  1  0
 18 42  1  0
M  CHG  1  17   1
M  END
>  <i_m_ct_stereo_status>  (86) 
1

>  <s_m_source_file>  (86) 
/var/tmp/pbs.5076255.sched01/tmp6mrmgolx/06cp14zw5.sdf

>  <i_m_source_file_index>  (86) 
32

>  <i_lp_mmshare_version>  (86) 
48012

>  <i_f3d_flags>  (86) 
0

>  <s_epik_input>  (86) 
W0NIM11bQ0hdKFtDSDNdKS9bQ0hdPVtDSF0vW0NASF0oL0MoPU4vW0hdKVtDSDJdMSlbQ0hdKFtDQEhdMltDSF09QzEzKVtDSDJdW0NASF0oW0NIMl0zKU4yW0NIM10=

>  <s_epik_cmdline>  (86) 
J2VwaWtfcHl0aG9uJywgJy1waHQnLCAnMi4wJywgJy1waCcsICc3LjAnLCAnLXRuJywgJzgnLCAnLW1hJywgJzIwMCcsICctaW1hZScsICc8aW5maWxlLm1hZT4nLCAnLW9tYWUnLCAnPG91dGZpbGUubWFlPic=

>  <r_epik_Ionization_Penalty>  (86) 
0.029765

>  <r_epik_Ionization_Penalty_Charging>  (86) 
0.029764

>  <r_epik_Ionization_Penalty_Neutral>  (86) 
9.14785e-07

>  <r_epik_State_Penalty>  (86) 
1.18929

>  <r_epik_Charging_Adjusted_Penalty>  (86) 
1.21905

>  <i_epik_Tot_Q>  (86) 
1

>  <i_epik_Tot_abs_Q>  (86) 
1

>  <s_lp_Force_Field>  (86) 
OPLS3e

>  <r_lp_Energy>  (86) 
59.4782

>  <b_lp_Chiralities_Consistent>  (86) 
1

>  <s_lp_Variant>  (86) 
12:0-4

>  <s_i_glide_gridfile>  (86) 
pfpi4k_grid

>  <i_i_glide_lignum>  (86) 
32

>  <i_i_glide_rotatable_bonds>  (86) 
2

>  <r_i_docking_score>  (86) 
-2.63397

>  <r_i_glide_ligand_efficiency>  (86) 
-0.146331

>  <r_i_glide_ligand_efficiency_sa>  (86) 
-0.383497

>  <r_i_glide_ligand_efficiency_ln>  (86) 
-0.677047

>  <r_i_glide_gscore>  (86) 
-2.63397

>  <r_i_glide_lipo>  (86) 
-0.0685408

>  <r_i_glide_hbond>  (86) 
-0.206303

>  <r_i_glide_metal>  (86) 
-0

>  <r_i_glide_rewards>  (86) 
-1.73602

>  <r_i_glide_evdw>  (86) 
-15.3921

>  <r_i_glide_ecoul>  (86) 
-2.8777

>  <r_i_glide_erotb>  (86) 
0.578163

>  <r_i_glide_esite>  (86) 
0

>  <r_i_glide_emodel>  (86) 
-21.5671

>  <r_i_glide_energy>  (86) 
-18.2698

>  <r_i_glide_einternal>  (86) 
1.31392

>  <r_i_glide_intrahb_reward>  (86) 
-0

>  <i_i_glide_confnum>  (86) 
4

>  <i_i_glide_posenum>  (86) 
17

>  <r_i_glide_eff_state_penalty>  (86) 
0

>  <ligand_id>  (86) 
12

>  <original_smiles>  (86) 
CC(C)C=CC1C(=N)CC2=CC3C1CC(C2)N3C

>  <smiles>  (86) 
[H]C1=C(N([H])[H])C([H])(C([H])=C([H])C([H])(C([H])([H])[H])C([H])([H])[H])C2([H])C([H])([H])C3([H])C([H])([H])C1=C([H])C2([H])[N+]3([H])C([H])([H])[H]

$$$$
13:2:0
     RDKit          3D

 55 59  0  0  1  0  0  0  0  0999 V2000
    2.0838   -3.1761   -3.0752 C   0  0  0  0  0  0  0  0  0  0  0  0
    3.2197   -2.1092   -2.9037 C   0  0  0  0  0  0  0  0  0  0  0  0
    4.5469   -2.6939   -2.3606 C   0  0  0  0  0  0  0  0  0  0  0  0
    4.6102   -2.9138   -0.8797 N   0  0  1  0  0  0  0  0  0  0  0  0
    4.5787   -1.6534   -0.1138 C   0  0  0  0  0  0  0  0  0  0  0  0
    5.6680   -1.6283    0.9372 C   0  0  1  0  0  0  0  0  0  0  0  0
    6.9022   -1.5265    0.2454 O   0  0  0  0  0  0  0  0  0  0  0  0
    5.5539   -0.3660    1.7790 C   0  0  0  0  0  0  0  0  0  0  0  0
    4.3810   -0.3961    2.7652 C   0  0  0  0  0  0  0  0  0  0  0  0
    4.5195   -1.6096    3.6987 C   0  0  0  0  0  0  0  0  0  0  0  0
    4.6743   -2.9029    2.9665 N   0  0  1  0  0  0  0  0  0  0  0  0
    3.3985   -3.6586    2.8256 C   0  0  0  0  0  0  0  0  0  0  0  0
    2.3885   -3.2003    1.7331 C   0  0  0  0  0  0  0  0  0  0  0  0
    2.3949   -3.8432    0.3050 C   0  0  2  0  0  0  0  0  0  0  0  0
    2.0060   -5.2455    0.4089 O   0  0  0  0  0  0  0  0  0  0  0  0
    3.1381   -5.9485    0.6629 C   0  0  0  0  0  0  0  0  0  0  0  0
    3.2943   -7.1959    1.3140 C   0  0  0  0  0  0  0  0  0  0  0  0
    2.1872   -7.9720    1.5568 O   0  0  0  0  0  0  0  0  0  0  0  0
    4.5584   -7.5712    1.8052 C   0  0  0  0  0  0  0  0  0  0  0  0
    5.6497   -6.6533    1.7551 C   0  0  0  0  0  0  0  0  0  0  0  0
    5.4954   -5.4141    1.0971 C   0  0  0  0  0  0  0  0  0  0  0  0
    4.2747   -5.1952    0.4470 C   0  0  0  0  0  0  0  0  0  0  0  0
    3.7798   -4.0398   -0.3569 C   0  0  2  0  0  0  0  0  0  0  0  0
    6.3579   -4.1865    1.2761 C   0  0  0  0  0  0  0  0  0  0  0  0
    5.7245   -2.8725    1.8668 C   0  0  1  0  0  0  0  0  0  0  0  0
    1.2145   -2.6539   -3.5279 H   0  0  0  0  0  0  0  0  0  0  0  0
    1.8188   -3.6885   -2.2022 H   0  0  0  0  0  0  0  0  0  0  0  0
    2.4005   -3.9104   -3.8581 H   0  0  0  0  0  0  0  0  0  0  0  0
    3.4575   -1.6463   -3.8586 H   0  0  0  0  0  0  0  0  0  0  0  0
    2.8851   -1.2786   -2.2651 H   0  0  0  0  0  0  0  0  0  0  0  0
    4.8197   -3.5986   -2.9076 H   0  0  0  0  0  0  0  0  0  0  0  0
    5.3691   -2.0107   -2.5807 H   0  0  0  0  0  0  0  0  0  0  0  0
    4.7780   -0.8164   -0.7900 H   0  0  0  0  0  0  0  0  0  0  0  0
    3.5854   -1.4555    0.2624 H   0  0  0  0  0  0  0  0  0  0  0  0
    7.5868   -1.3613    0.8754 H   0  0  0  0  0  0  0  0  0  0  0  0
    6.4581   -0.2761    2.3822 H   0  0  0  0  0  0  0  0  0  0  0  0
    5.4820    0.4956    1.1025 H   0  0  0  0  0  0  0  0  0  0  0  0
    4.3816    0.5064    3.3723 H   0  0  0  0  0  0  0  0  0  0  0  0
    3.4280   -0.4059    2.2302 H   0  0  0  0  0  0  0  0  0  0  0  0
    5.3965   -1.4691    4.3347 H   0  0  0  0  0  0  0  0  0  0  0  0
    3.6628   -1.6327    4.3843 H   0  0  0  0  0  0  0  0  0  0  0  0
    3.5805   -4.7235    2.8234 H   0  0  0  0  0  0  0  0  0  0  0  0
    2.8644   -3.5267    3.7611 H   0  0  0  0  0  0  0  0  0  0  0  0
    1.4551   -3.5161    2.1834 H   0  0  0  0  0  0  0  0  0  0  0  0
    2.2881   -2.1149    1.6901 H   0  0  0  0  0  0  0  0  0  0  0  0
    1.7374   -3.2610   -0.3181 H   0  0  0  0  0  0  0  0  0  0  0  0
    2.4093   -8.8146    1.9124 H   0  0  0  0  0  0  0  0  0  0  0  0
    4.6743   -8.4967    2.3260 H   0  0  0  0  0  0  0  0  0  0  0  0
    6.5571   -6.8755    2.3132 H   0  0  0  0  0  0  0  0  0  0  0  0
    3.6013   -4.5747   -1.2792 H   0  0  0  0  0  0  0  0  0  0  0  0
    7.1049   -4.4862    2.0039 H   0  0  0  0  0  0  0  0  0  0  0  0
    6.9092   -3.9634    0.3738 H   0  0  0  0  0  0  0  0  0  0  0  0
    6.5756   -2.5422    2.4516 H   0  0  0  0  0  0  0  0  0  0  0  0
    5.5810   -3.2609   -0.7628 H   0  0  0  0  0  0  0  0  0  0  0  0
    5.1291   -3.4822    3.6803 H   0  0  0  0  0  0  0  0  0  0  0  0
  1  2  1  0
  1 26  1  0
  1 27  1  0
  1 28  1  0
  2  3  1  0
  2 29  1  0
  2 30  1  0
  3  4  1  0
  3 31  1  0
  3 32  1  0
  4 23  1  0
  4  5  1  0
  4 54  1  6
  5  6  1  0
  5 33  1  0
  5 34  1  0
  6 25  1  0
  6  7  1  6
  6  8  1  0
  7 35  1  0
  8  9  1  0
  8 36  1  0
  8 37  1  0
  9 10  1  0
  9 38  1  0
  9 39  1  0
 10 11  1  0
 10 40  1  0
 10 41  1  0
 11 25  1  0
 11 12  1  0
 11 55  1  1
 12 13  1  0
 12 42  1  0
 12 43  1  0
 13 14  1  0
 13 44  1  0
 13 45  1  0
 14 23  1  0
 14 15  1  0
 14 46  1  6
 15 16  1  0
 16 22  2  0
 16 17  1  0
 17 18  1  0
 17 19  2  0
 18 47  1  0
 19 20  1  0
 19 48  1  0
 20 21  2  0
 20 49  1  0
 21 22  1  0
 21 24  1  0
 22 23  1  0
 23 50  1  6
 24 25  1  0
 24 51  1  0
 24 52  1  0
 25 53  1  1
M  CHG  2   4   1  11   1
M  END
>  <i_m_ct_stereo_status>  (87) 
1

>  <s_m_source_file>  (87) 
/var/tmp/pbs.5076255.sched01/tmp6mrmgolx/06cp14zw5.sdf

>  <i_m_source_file_index>  (87) 
35

>  <i_lp_mmshare_version>  (87) 
48012

>  <i_f3d_flags>  (87) 
0

>  <s_epik_input>  (87) 
W0NIMl0xYzJbY0hdW2NIXWMoW09IXSljKE8zKWMyW0NASF0oTihbQ0gyXTQpW0NIMl1bQ0gyXVtDSDNdKVtDQEBIXTNbQ0gyXVtDSDJdTihbQ0gyXVtDSDJdW0NIMl01KVtDQEBIXTFbQ0BAXTQ1W09IXQ==

>  <s_epik_cmdline>  (87) 
J2VwaWtfcHl0aG9uJywgJy1waHQnLCAnMi4wJywgJy1waCcsICc3LjAnLCAnLXRuJywgJzgnLCAnLW1hJywgJzIwMCcsICctaW1hZScsICc8aW5maWxlLm1hZT4nLCAnLW9tYWUnLCAnPG91dGZpbGUubWFlPic=

>  <r_lp_tautomer_probability>  (87) 
1

>  <r_epik_Ionization_Penalty>  (87) 
1.86939

>  <r_epik_Ionization_Penalty_Charging>  (87) 
1.62452

>  <r_epik_Ionization_Penalty_Neutral>  (87) 
0.244868

>  <r_epik_State_Penalty>  (87) 
1.88729

>  <r_epik_Charging_Adjusted_Penalty>  (87) 
3.51181

>  <i_epik_Tot_Q>  (87) 
2

>  <i_epik_Tot_abs_Q>  (87) 
2

>  <s_lp_Force_Field>  (87) 
OPLS3e

>  <r_lp_Energy>  (87) 
115.876

>  <b_lp_Chiralities_Consistent>  (87) 
1

>  <s_lp_Variant>  (87) 
13:0-3

>  <s_i_glide_gridfile>  (87) 
pfpi4k_grid

>  <i_i_glide_lignum>  (87) 
35

>  <i_i_glide_rotatable_bonds>  (87) 
4

>  <r_i_docking_score>  (87) 
-4.12168

>  <r_i_glide_ligand_efficiency>  (87) 
-0.164867

>  <r_i_glide_ligand_efficiency_sa>  (87) 
-0.482075

>  <r_i_glide_ligand_efficiency_ln>  (87) 
-0.976962

>  <r_i_glide_gscore>  (87) 
-4.12168

>  <r_i_glide_lipo>  (87) 
-1.01327

>  <r_i_glide_hbond>  (87) 
-0.0913298

>  <r_i_glide_metal>  (87) 
-0

>  <r_i_glide_rewards>  (87) 
-1.04684

>  <r_i_glide_evdw>  (87) 
-20.8984

>  <r_i_glide_ecoul>  (87) 
-7.21627

>  <r_i_glide_erotb>  (87) 
0.158388

>  <r_i_glide_esite>  (87) 
-0.00127613

>  <r_i_glide_emodel>  (87) 
-31.6332

>  <r_i_glide_energy>  (87) 
-28.1147

>  <r_i_glide_einternal>  (87) 
2.32248

>  <r_i_glide_intrahb_reward>  (87) 
-0

>  <i_i_glide_confnum>  (87) 
1

>  <i_i_glide_posenum>  (87) 
33

>  <r_i_glide_eff_state_penalty>  (87) 
0

>  <ligand_id>  (87) 
13

>  <original_smiles>  (87) 
CCCN1CC2(O)CCCN3CCC4Oc5c(O)ccc(c5C41)CC32

>  <smiles>  (87) 
[H]Oc1c([H])c([H])c2c3c1OC1([H])C([H])([H])C([H])([H])[N+]4([H])C([H])([H])C([H])([H])C([H])([H])C(O[H])(C([H])([H])[N+]([H])(C([H])([H])C([H])([H])C([H])([H])[H])C31[H])C4([H])C2([H])[H]

$$$$
13:2:1
     RDKit          3D

 55 59  0  0  1  0  0  0  0  0999 V2000
    3.2505   -0.9856   -3.9714 C   0  0  0  0  0  0  0  0  0  0  0  0
    3.5466   -1.2421   -2.5098 C   0  0  0  0  0  0  0  0  0  0  0  0
    3.9129   -2.7002   -2.1319 C   0  0  0  0  0  0  0  0  0  0  0  0
    4.2890   -2.9046   -0.6732 N   0  0  1  0  0  0  0  0  0  0  0  0
    3.9254   -1.7646    0.2277 C   0  0  0  0  0  0  0  0  0  0  0  0
    5.1135   -1.3081    1.0831 C   0  0  1  0  0  0  0  0  0  0  0  0
    6.0645   -0.7168    0.2169 O   0  0  0  0  0  0  0  0  0  0  0  0
    4.6744   -0.1611    2.0008 C   0  0  0  0  0  0  0  0  0  0  0  0
    3.7938   -0.6582    3.1497 C   0  0  0  0  0  0  0  0  0  0  0  0
    4.5308   -1.7283    3.9657 C   0  0  0  0  0  0  0  0  0  0  0  0
    5.0301   -2.8767    3.1255 N   0  0  1  0  0  0  0  0  0  0  0  0
    4.0996   -4.0734    3.1170 C   0  0  0  0  0  0  0  0  0  0  0  0
    2.8106   -4.0634    2.2282 C   0  0  0  0  0  0  0  0  0  0  0  0
    2.8204   -4.6583    0.7666 C   0  0  2  0  0  0  0  0  0  0  0  0
    3.0226   -6.0945    0.8585 O   0  0  0  0  0  0  0  0  0  0  0  0
    4.3763   -6.2872    0.8677 C   0  0  0  0  0  0  0  0  0  0  0  0
    5.1064   -7.3712    1.4108 C   0  0  0  0  0  0  0  0  0  0  0  0
    4.4611   -8.5356    1.7309 O   0  0  0  0  0  0  0  0  0  0  0  0
    6.4753   -7.2093    1.6794 C   0  0  0  0  0  0  0  0  0  0  0  0
    7.0899   -5.9430    1.5198 C   0  0  0  0  0  0  0  0  0  0  0  0
    6.3599   -4.8686    0.9720 C   0  0  0  0  0  0  0  0  0  0  0  0
    5.0637   -5.1427    0.5125 C   0  0  0  0  0  0  0  0  0  0  0  0
    4.0113   -4.2996   -0.1472 C   0  0  2  0  0  0  0  0  0  0  0  0
    6.7534   -3.4170    1.1151 C   0  0  0  0  0  0  0  0  0  0  0  0
    5.8231   -2.4171    1.9057 C   0  0  1  0  0  0  0  0  0  0  0  0
    2.9918    0.0647   -4.1083 H   0  0  0  0  0  0  0  0  0  0  0  0
    2.3969   -1.5696   -4.3241 H   0  0  0  0  0  0  0  0  0  0  0  0
    4.1107   -1.1922   -4.6161 H   0  0  0  0  0  0  0  0  0  0  0  0
    4.3504   -0.5586   -2.2033 H   0  0  0  0  0  0  0  0  0  0  0  0
    2.6592   -0.9583   -1.9253 H   0  0  0  0  0  0  0  0  0  0  0  0
    3.0903   -3.3514   -2.4242 H   0  0  0  0  0  0  0  0  0  0  0  0
    4.7729   -3.0075   -2.7282 H   0  0  0  0  0  0  0  0  0  0  0  0
    3.6177   -0.8772   -0.2934 H   0  0  0  0  0  0  0  0  0  0  0  0
    3.0452   -2.0225    0.7923 H   0  0  0  0  0  0  0  0  0  0  0  0
    6.5015   -1.3806   -0.2935 H   0  0  0  0  0  0  0  0  0  0  0  0
    5.5440    0.3389    2.4246 H   0  0  0  0  0  0  0  0  0  0  0  0
    4.1362    0.6006    1.4289 H   0  0  0  0  0  0  0  0  0  0  0  0
    3.5404    0.1804    3.7961 H   0  0  0  0  0  0  0  0  0  0  0  0
    2.8447   -1.0339    2.7664 H   0  0  0  0  0  0  0  0  0  0  0  0
    5.3947   -1.2738    4.4501 H   0  0  0  0  0  0  0  0  0  0  0  0
    3.8879   -2.0809    4.7716 H   0  0  0  0  0  0  0  0  0  0  0  0
    4.6858   -4.9800    3.0400 H   0  0  0  0  0  0  0  0  0  0  0  0
    3.7487   -4.1441    4.1425 H   0  0  0  0  0  0  0  0  0  0  0  0
    2.1065   -4.6971    2.7691 H   0  0  0  0  0  0  0  0  0  0  0  0
    2.3038   -3.1052    2.2908 H   0  0  0  0  0  0  0  0  0  0  0  0
    1.8620   -4.4711    0.2792 H   0  0  0  0  0  0  0  0  0  0  0  0
    5.0509   -9.2418    1.9580 H   0  0  0  0  0  0  0  0  0  0  0  0
    7.0471   -8.0093    2.1142 H   0  0  0  0  0  0  0  0  0  0  0  0
    8.0975   -5.7883    1.8929 H   0  0  0  0  0  0  0  0  0  0  0  0
    3.8451   -4.8622   -1.0641 H   0  0  0  0  0  0  0  0  0  0  0  0
    7.6968   -3.4564    1.6557 H   0  0  0  0  0  0  0  0  0  0  0  0
    7.0304   -3.0248    0.1378 H   0  0  0  0  0  0  0  0  0  0  0  0
    6.5820   -1.8143    2.4098 H   0  0  0  0  0  0  0  0  0  0  0  0
    5.3072   -2.9065   -0.7354 H   0  0  0  0  0  0  0  0  0  0  0  0
    5.7727   -3.2378    3.7184 H   0  0  0  0  0  0  0  0  0  0  0  0
  1  2  1  0
  1 26  1  0
  1 27  1  0
  1 28  1  0
  2  3  1  0
  2 29  1  0
  2 30  1  0
  3  4  1  0
  3 31  1  0
  3 32  1  0
  4 23  1  0
  4  5  1  0
  4 54  1  6
  5  6  1  0
  5 33  1  0
  5 34  1  0
  6 25  1  0
  6  7  1  6
  6  8  1  0
  7 35  1  0
  8  9  1  0
  8 36  1  0
  8 37  1  0
  9 10  1  0
  9 38  1  0
  9 39  1  0
 10 11  1  0
 10 40  1  0
 10 41  1  0
 11 25  1  0
 11 12  1  0
 11 55  1  1
 12 13  1  0
 12 42  1  0
 12 43  1  0
 13 14  1  0
 13 44  1  0
 13 45  1  0
 14 23  1  0
 14 15  1  0
 14 46  1  6
 15 16  1  0
 16 22  2  0
 16 17  1  0
 17 18  1  0
 17 19  2  0
 18 47  1  0
 19 20  1  0
 19 48  1  0
 20 21  2  0
 20 49  1  0
 21 22  1  0
 21 24  1  0
 22 23  1  0
 23 50  1  6
 24 25  1  0
 24 51  1  0
 24 52  1  0
 25 53  1  1
M  CHG  2   4   1  11   1
M  END
>  <i_m_ct_stereo_status>  (88) 
1

>  <s_m_source_file>  (88) 
/var/tmp/pbs.5076255.sched01/tmp6mrmgolx/06cp14zw5.sdf

>  <i_m_source_file_index>  (88) 
35

>  <i_lp_mmshare_version>  (88) 
48012

>  <i_f3d_flags>  (88) 
0

>  <s_epik_input>  (88) 
W0NIMl0xYzJbY0hdW2NIXWMoW09IXSljKE8zKWMyW0NASF0oTihbQ0gyXTQpW0NIMl1bQ0gyXVtDSDNdKVtDQEBIXTNbQ0gyXVtDSDJdTihbQ0gyXVtDSDJdW0NIMl01KVtDQEBIXTFbQ0BAXTQ1W09IXQ==

>  <s_epik_cmdline>  (88) 
J2VwaWtfcHl0aG9uJywgJy1waHQnLCAnMi4wJywgJy1waCcsICc3LjAnLCAnLXRuJywgJzgnLCAnLW1hJywgJzIwMCcsICctaW1hZScsICc8aW5maWxlLm1hZT4nLCAnLW9tYWUnLCAnPG91dGZpbGUubWFlPic=

>  <r_lp_tautomer_probability>  (88) 
1

>  <r_epik_Ionization_Penalty>  (88) 
1.86939

>  <r_epik_Ionization_Penalty_Charging>  (88) 
1.62452

>  <r_epik_Ionization_Penalty_Neutral>  (88) 
0.244868

>  <r_epik_State_Penalty>  (88) 
1.88729

>  <r_epik_Charging_Adjusted_Penalty>  (88) 
3.51181

>  <i_epik_Tot_Q>  (88) 
2

>  <i_epik_Tot_abs_Q>  (88) 
2

>  <s_lp_Force_Field>  (88) 
OPLS3e

>  <r_lp_Energy>  (88) 
115.876

>  <b_lp_Chiralities_Consistent>  (88) 
1

>  <s_lp_Variant>  (88) 
13:0-3

>  <s_i_glide_gridfile>  (88) 
pfpi4k_grid

>  <i_i_glide_lignum>  (88) 
35

>  <i_i_glide_rotatable_bonds>  (88) 
4

>  <r_i_docking_score>  (88) 
-3.53074

>  <r_i_glide_ligand_efficiency>  (88) 
-0.14123

>  <r_i_glide_ligand_efficiency_sa>  (88) 
-0.412958

>  <r_i_glide_ligand_efficiency_ln>  (88) 
-0.836891

>  <r_i_glide_gscore>  (88) 
-3.53074

>  <r_i_glide_lipo>  (88) 
-1.0592

>  <r_i_glide_hbond>  (88) 
0

>  <r_i_glide_metal>  (88) 
-0

>  <r_i_glide_rewards>  (88) 
-1.04684

>  <r_i_glide_evdw>  (88) 
-22.6201

>  <r_i_glide_ecoul>  (88) 
-3.00418

>  <r_i_glide_erotb>  (88) 
0.158388

>  <r_i_glide_esite>  (88) 
-0.00145506

>  <r_i_glide_emodel>  (88) 
-18.8331

>  <r_i_glide_energy>  (88) 
-25.6242

>  <r_i_glide_einternal>  (88) 
20.8812

>  <r_i_glide_intrahb_reward>  (88) 
-0

>  <i_i_glide_confnum>  (88) 
4

>  <i_i_glide_posenum>  (88) 
30

>  <r_i_glide_eff_state_penalty>  (88) 
0

>  <ligand_id>  (88) 
13

>  <original_smiles>  (88) 
CCCN1CC2(O)CCCN3CCC4Oc5c(O)ccc(c5C41)CC32

>  <smiles>  (88) 
[H]Oc1c([H])c([H])c2c3c1OC1([H])C([H])([H])C([H])([H])[N+]4([H])C([H])([H])C([H])([H])C([H])([H])C(O[H])(C([H])([H])[N+]([H])(C([H])([H])C([H])([H])C([H])([H])[H])C31[H])C4([H])C2([H])[H]

$$$$
15:0:0
     RDKit          3D

 41 44  0  0  1  0  0  0  0  0999 V2000
    7.6491   -4.5866    0.7692 C   0  0  0  0  0  0  0  0  0  0  0  0
    6.2521   -4.3672    0.2581 C   0  0  0  0  0  0  0  0  0  0  0  0
    6.0550   -3.3947   -0.6200 N   0  0  0  0  0  0  0  0  0  0  0  0
    4.7315   -3.4217   -0.9119 N   0  0  0  0  0  0  0  0  0  0  0  0
    4.2008   -2.4954   -1.8443 C   0  0  0  0  0  0  0  0  0  0  0  0
    3.1688   -2.8680   -2.7313 C   0  0  0  0  0  0  0  0  0  0  0  0
    2.6633   -1.9587   -3.6710 C   0  0  0  0  0  0  0  0  0  0  0  0
    3.1938   -0.6567   -3.7375 C   0  0  0  0  0  0  0  0  0  0  0  0
    4.2134   -0.2731   -2.8517 C   0  0  0  0  0  0  0  0  0  0  0  0
    4.7199   -1.1879   -1.9071 C   0  0  0  0  0  0  0  0  0  0  0  0
    4.1100   -4.4129   -0.1697 C   0  0  0  0  0  0  0  0  0  0  0  0
    2.7710   -4.5984   -0.2008 O   0  0  0  0  0  0  0  0  0  0  0  0
    5.0514   -5.0779    0.5619 C   0  0  0  0  0  0  0  0  0  0  0  0
    4.8751   -6.2172    1.4778 C   0  0  0  0  0  0  0  0  0  0  0  0
    3.8733   -6.9986    1.5106 N   0  0  0  0  0  0  0  0  0  0  0  0
    3.8343   -7.9415    2.4825 C   0  0  0  0  0  0  0  0  0  0  0  0
    4.4135   -7.9435    3.6954 N   0  0  0  0  0  0  0  0  0  0  0  0
    4.1532   -9.0986    4.4206 C   0  0  0  0  0  0  0  0  0  0  0  0
    3.3429   -9.9925    3.7790 C   0  0  0  0  0  0  0  0  0  0  0  0
    2.8747   -9.4061    2.2081 S   0  0  0  0  0  0  0  0  0  0  0  0
    2.9274  -11.3096    4.3548 C   0  0  0  0  0  0  0  0  0  0  0  0
    3.8210  -11.6913    5.5598 C   0  0  0  0  0  0  0  0  0  0  0  0
    4.0953  -10.4923    6.4989 C   0  0  0  0  0  0  0  0  0  0  0  0
    4.7588   -9.3109    5.7656 C   0  0  0  0  0  0  0  0  0  0  0  0
    7.7050   -5.4182    1.4709 H   0  0  0  0  0  0  0  0  0  0  0  0
    8.0204   -3.6983    1.2796 H   0  0  0  0  0  0  0  0  0  0  0  0
    8.3309   -4.8053   -0.0520 H   0  0  0  0  0  0  0  0  0  0  0  0
    2.7405   -3.8542   -2.6933 H   0  0  0  0  0  0  0  0  0  0  0  0
    1.8556   -2.2540   -4.3166 H   0  0  0  0  0  0  0  0  0  0  0  0
    2.7892    0.0620   -4.4386 H   0  0  0  0  0  0  0  0  0  0  0  0
    4.6039    0.7277   -2.8872 H   0  0  0  0  0  0  0  0  0  0  0  0
    5.4963   -0.8893   -1.2229 H   0  0  0  0  0  0  0  0  0  0  0  0
    5.7040   -6.3679    2.1735 H   0  0  0  0  0  0  0  0  0  0  0  0
    1.8902  -11.2419    4.6887 H   0  0  0  0  0  0  0  0  0  0  0  0
    2.9617  -12.0974    3.5988 H   0  0  0  0  0  0  0  0  0  0  0  0
    3.3792  -12.5145    6.1196 H   0  0  0  0  0  0  0  0  0  0  0  0
    4.7787  -12.0588    5.1906 H   0  0  0  0  0  0  0  0  0  0  0  0
    3.1400  -10.1553    6.9080 H   0  0  0  0  0  0  0  0  0  0  0  0
    4.7083  -10.7889    7.3529 H   0  0  0  0  0  0  0  0  0  0  0  0
    5.8243   -9.5067    5.6447 H   0  0  0  0  0  0  0  0  0  0  0  0
    4.6799   -8.4013    6.3606 H   0  0  0  0  0  0  0  0  0  0  0  0
  1  2  1  0
  1 25  1  0
  1 26  1  0
  1 27  1  0
  2 13  1  0
  2  3  2  0
  3  4  1  0
  4  5  1  0
  4 11  1  0
  5 10  1  0
  5  6  2  0
  6  7  1  0
  6 28  1  0
  7  8  2  0
  7 29  1  0
  8  9  1  0
  8 30  1  0
  9 10  2  0
  9 31  1  0
 10 32  1  0
 11 12  1  0
 11 13  2  0
 13 14  1  0
 14 15  2  3
 14 33  1  0
 15 16  1  0
 16 20  1  0
 16 17  2  0
 17 18  1  0
 18 24  1  0
 18 19  2  0
 19 20  1  0
 19 21  1  0
 21 22  1  0
 21 34  1  0
 21 35  1  0
 22 23  1  0
 22 36  1  0
 22 37  1  0
 23 24  1  0
 23 38  1  0
 23 39  1  0
 24 40  1  0
 24 41  1  0
M  CHG  1  12  -1
M  END
>  <i_m_ct_stereo_status>  (89) 
1

>  <s_m_source_file>  (89) 
/var/tmp/pbs.5076255.sched01/tmp6mrmgolx/06cp14zw5.sdf

>  <i_m_source_file_index>  (89) 
39

>  <i_lp_mmshare_version>  (89) 
48012

>  <i_f3d_flags>  (89) 
0

>  <s_epik_input>  (89) 
W2NIXTFbY0hdW2NIXVtjSF1bY0hdYzEtbihbbkhdYzJbQ0gzXSljKD1PKWMyL1tDSF09Ti9jKG4zKXNjKGMzNClbQ0gyXVtDSDJdW0NIMl1bQ0gyXTQ=

>  <s_epik_cmdline>  (89) 
J2VwaWtfcHl0aG9uJywgJy1waHQnLCAnMi4wJywgJy1waCcsICc3LjAnLCAnLXRuJywgJzgnLCAnLW1hJywgJzIwMCcsICctaW1hZScsICc8aW5maWxlLm1hZT4nLCAnLW9tYWUnLCAnPG91dGZpbGUubWFlPic=

>  <r_epik_Ionization_Penalty>  (89) 
0.0141566

>  <r_epik_Ionization_Penalty_Charging>  (89) 
0.0119654

>  <r_epik_Ionization_Penalty_Neutral>  (89) 
0.0021912

>  <r_epik_State_Penalty>  (89) 
0.010699

>  <r_epik_Charging_Adjusted_Penalty>  (89) 
0.0226644

>  <i_epik_Tot_Q>  (89) 
-1

>  <i_epik_Tot_abs_Q>  (89) 
1

>  <s_epik_Chemistry_Notes>  (89) 
This compound has an imine and may undergo hydrolysis.

>  <s_lp_Force_Field>  (89) 
OPLS3e

>  <r_lp_Energy>  (89) 
29.4419

>  <b_lp_Chiralities_Consistent>  (89) 
1

>  <s_lp_Variant>  (89) 
15:0-1

>  <s_i_glide_gridfile>  (89) 
pfpi4k_grid

>  <i_i_glide_lignum>  (89) 
39

>  <i_i_glide_rotatable_bonds>  (89) 
3

>  <r_i_docking_score>  (89) 
-3.14634

>  <r_i_glide_ligand_efficiency>  (89) 
-0.131098

>  <r_i_glide_ligand_efficiency_sa>  (89) 
-0.378151

>  <r_i_glide_ligand_efficiency_ln>  (89) 
-0.753064

>  <r_i_glide_gscore>  (89) 
-3.14634

>  <r_i_glide_lipo>  (89) 
-0.940497

>  <r_i_glide_hbond>  (89) 
0

>  <r_i_glide_metal>  (89) 
-0

>  <r_i_glide_rewards>  (89) 
-1.25134

>  <r_i_glide_evdw>  (89) 
-27.6403

>  <r_i_glide_ecoul>  (89) 
-0.469812

>  <r_i_glide_erotb>  (89) 
0.497987

>  <r_i_glide_esite>  (89) 
0

>  <r_i_glide_emodel>  (89) 
-32.2922

>  <r_i_glide_energy>  (89) 
-28.1102

>  <r_i_glide_einternal>  (89) 
2.17788

>  <r_i_glide_intrahb_reward>  (89) 
-0

>  <i_i_glide_confnum>  (89) 
5

>  <i_i_glide_posenum>  (89) 
11

>  <r_i_glide_eff_state_penalty>  (89) 
0

>  <ligand_id>  (89) 
15

>  <original_smiles>  (89) 
Cc1[nH]n(-c2ccccc2)c(=O)c1C=Nc1nc2c(s1)CCCC2

>  <smiles>  (89) 
[H]C(=Nc1nc2c(s1)C([H])([H])C([H])([H])C([H])([H])C2([H])[H])c1c(C([H])([H])[H])nn(-c2c([H])c([H])c([H])c([H])c2[H])c1[O-]

$$$$
15:0:1
     RDKit          3D

 41 44  0  0  1  0  0  0  0  0999 V2000
    5.1404   -2.3256    3.0418 C   0  0  0  0  0  0  0  0  0  0  0  0
    4.3757   -2.7637    1.8273 C   0  0  0  0  0  0  0  0  0  0  0  0
    4.5508   -2.0873    0.7072 N   0  0  0  0  0  0  0  0  0  0  0  0
    3.7495   -2.6633   -0.2211 N   0  0  0  0  0  0  0  0  0  0  0  0
    3.7219   -2.1393   -1.5464 C   0  0  0  0  0  0  0  0  0  0  0  0
    4.2418   -0.8491   -1.8044 C   0  0  0  0  0  0  0  0  0  0  0  0
    4.2119   -0.3023   -3.1014 C   0  0  0  0  0  0  0  0  0  0  0  0
    3.6762   -1.0392   -4.1691 C   0  0  0  0  0  0  0  0  0  0  0  0
    3.1619   -2.3277   -3.9207 C   0  0  0  0  0  0  0  0  0  0  0  0
    3.1883   -2.8685   -2.6300 C   0  0  0  0  0  0  0  0  0  0  0  0
    3.0769   -3.7267    0.3645 C   0  0  0  0  0  0  0  0  0  0  0  0
    2.2180   -4.5161   -0.3086 O   0  0  0  0  0  0  0  0  0  0  0  0
    3.4462   -3.8298    1.6728 C   0  0  0  0  0  0  0  0  0  0  0  0
    2.9995   -4.8082    2.6714 C   0  0  0  0  0  0  0  0  0  0  0  0
    1.9390   -5.5044    2.6003 N   0  0  0  0  0  0  0  0  0  0  0  0
    1.6152   -6.2863    3.6555 C   0  0  0  0  0  0  0  0  0  0  0  0
    1.9212   -6.1205    4.9526 N   0  0  0  0  0  0  0  0  0  0  0  0
    1.4361   -7.1418    5.7564 C   0  0  0  0  0  0  0  0  0  0  0  0
    0.7144   -8.0867    5.0820 C   0  0  0  0  0  0  0  0  0  0  0  0
    0.6235   -7.7248    3.3811 S   0  0  0  0  0  0  0  0  0  0  0  0
    0.0910   -9.2811    5.7294 C   0  0  0  0  0  0  0  0  0  0  0  0
    0.6744   -9.5142    7.1415 C   0  0  0  0  0  0  0  0  0  0  0  0
    0.8365   -8.2038    7.9452 C   0  0  0  0  0  0  0  0  0  0  0  0
    1.7281   -7.1770    7.2184 C   0  0  0  0  0  0  0  0  0  0  0  0
    4.9421   -2.9700    3.8989 H   0  0  0  0  0  0  0  0  0  0  0  0
    4.8687   -1.3054    3.3184 H   0  0  0  0  0  0  0  0  0  0  0  0
    6.2126   -2.3440    2.8413 H   0  0  0  0  0  0  0  0  0  0  0  0
    4.6463   -0.2559   -0.9990 H   0  0  0  0  0  0  0  0  0  0  0  0
    4.5969    0.6950   -3.2580 H   0  0  0  0  0  0  0  0  0  0  0  0
    3.6488   -0.6189   -5.1665 H   0  0  0  0  0  0  0  0  0  0  0  0
    2.7334   -2.9146   -4.7193 H   0  0  0  0  0  0  0  0  0  0  0  0
    2.7824   -3.8547   -2.5156 H   0  0  0  0  0  0  0  0  0  0  0  0
    3.6666   -4.9213    3.5237 H   0  0  0  0  0  0  0  0  0  0  0  0
   -0.9847   -9.1136    5.8107 H   0  0  0  0  0  0  0  0  0  0  0  0
    0.2244  -10.1793    5.1197 H   0  0  0  0  0  0  0  0  0  0  0  0
    0.0610  -10.2280    7.6891 H   0  0  0  0  0  0  0  0  0  0  0  0
    1.6588   -9.9756    7.0461 H   0  0  0  0  0  0  0  0  0  0  0  0
   -0.1519   -7.7638    8.0839 H   0  0  0  0  0  0  0  0  0  0  0  0
    1.2387   -8.3963    8.9416 H   0  0  0  0  0  0  0  0  0  0  0  0
    2.7780   -7.4347    7.3601 H   0  0  0  0  0  0  0  0  0  0  0  0
    1.5962   -6.1853    7.6492 H   0  0  0  0  0  0  0  0  0  0  0  0
  1  2  1  0
  1 25  1  0
  1 26  1  0
  1 27  1  0
  2 13  1  0
  2  3  2  0
  3  4  1  0
  4  5  1  0
  4 11  1  0
  5 10  1  0
  5  6  2  0
  6  7  1  0
  6 28  1  0
  7  8  2  0
  7 29  1  0
  8  9  1  0
  8 30  1  0
  9 10  2  0
  9 31  1  0
 10 32  1  0
 11 12  1  0
 11 13  2  0
 13 14  1  0
 14 15  2  3
 14 33  1  0
 15 16  1  0
 16 20  1  0
 16 17  2  0
 17 18  1  0
 18 24  1  0
 18 19  2  0
 19 20  1  0
 19 21  1  0
 21 22  1  0
 21 34  1  0
 21 35  1  0
 22 23  1  0
 22 36  1  0
 22 37  1  0
 23 24  1  0
 23 38  1  0
 23 39  1  0
 24 40  1  0
 24 41  1  0
M  CHG  1  12  -1
M  END
>  <i_m_ct_stereo_status>  (90) 
1

>  <s_m_source_file>  (90) 
/var/tmp/pbs.5076255.sched01/tmp6mrmgolx/06cp14zw5.sdf

>  <i_m_source_file_index>  (90) 
39

>  <i_lp_mmshare_version>  (90) 
48012

>  <i_f3d_flags>  (90) 
0

>  <s_epik_input>  (90) 
W2NIXTFbY0hdW2NIXVtjSF1bY0hdYzEtbihbbkhdYzJbQ0gzXSljKD1PKWMyL1tDSF09Ti9jKG4zKXNjKGMzNClbQ0gyXVtDSDJdW0NIMl1bQ0gyXTQ=

>  <s_epik_cmdline>  (90) 
J2VwaWtfcHl0aG9uJywgJy1waHQnLCAnMi4wJywgJy1waCcsICc3LjAnLCAnLXRuJywgJzgnLCAnLW1hJywgJzIwMCcsICctaW1hZScsICc8aW5maWxlLm1hZT4nLCAnLW9tYWUnLCAnPG91dGZpbGUubWFlPic=

>  <r_epik_Ionization_Penalty>  (90) 
0.0141566

>  <r_epik_Ionization_Penalty_Charging>  (90) 
0.0119654

>  <r_epik_Ionization_Penalty_Neutral>  (90) 
0.0021912

>  <r_epik_State_Penalty>  (90) 
0.010699

>  <r_epik_Charging_Adjusted_Penalty>  (90) 
0.0226644

>  <i_epik_Tot_Q>  (90) 
-1

>  <i_epik_Tot_abs_Q>  (90) 
1

>  <s_epik_Chemistry_Notes>  (90) 
This compound has an imine and may undergo hydrolysis.

>  <s_lp_Force_Field>  (90) 
OPLS3e

>  <r_lp_Energy>  (90) 
29.4419

>  <b_lp_Chiralities_Consistent>  (90) 
1

>  <s_lp_Variant>  (90) 
15:0-1

>  <s_i_glide_gridfile>  (90) 
pfpi4k_grid

>  <i_i_glide_lignum>  (90) 
39

>  <i_i_glide_rotatable_bonds>  (90) 
3

>  <r_i_docking_score>  (90) 
-2.25862

>  <r_i_glide_ligand_efficiency>  (90) 
-0.0941093

>  <r_i_glide_ligand_efficiency_sa>  (90) 
-0.271458

>  <r_i_glide_ligand_efficiency_ln>  (90) 
-0.540592

>  <r_i_glide_gscore>  (90) 
-2.25862

>  <r_i_glide_lipo>  (90) 
-0.458232

>  <r_i_glide_hbond>  (90) 
0

>  <r_i_glide_metal>  (90) 
-0

>  <r_i_glide_rewards>  (90) 
-1.1085

>  <r_i_glide_evdw>  (90) 
-26.4847

>  <r_i_glide_ecoul>  (90) 
1.0462

>  <r_i_glide_erotb>  (90) 
0.497987

>  <r_i_glide_esite>  (90) 
-0.022572

>  <r_i_glide_emodel>  (90) 
-27.3427

>  <r_i_glide_energy>  (90) 
-25.4385

>  <r_i_glide_einternal>  (90) 
3.12541

>  <r_i_glide_intrahb_reward>  (90) 
-0

>  <i_i_glide_confnum>  (90) 
2

>  <i_i_glide_posenum>  (90) 
30

>  <r_i_glide_eff_state_penalty>  (90) 
0

>  <ligand_id>  (90) 
15

>  <original_smiles>  (90) 
Cc1[nH]n(-c2ccccc2)c(=O)c1C=Nc1nc2c(s1)CCCC2

>  <smiles>  (90) 
[H]C(=Nc1nc2c(s1)C([H])([H])C([H])([H])C([H])([H])C2([H])[H])c1c(C([H])([H])[H])nn(-c2c([H])c([H])c([H])c([H])c2[H])c1[O-]

$$$$
15:0:2
     RDKit          3D

 41 44  0  0  1  0  0  0  0  0999 V2000
    6.3624   -4.4625    0.7127 C   0  0  0  0  0  0  0  0  0  0  0  0
    5.1300   -4.0591   -0.0391 C   0  0  0  0  0  0  0  0  0  0  0  0
    5.2307   -3.0341   -0.8675 N   0  0  0  0  0  0  0  0  0  0  0  0
    3.9932   -2.8877   -1.3976 N   0  0  0  0  0  0  0  0  0  0  0  0
    3.7474   -1.8723   -2.3494 C   0  0  0  0  0  0  0  0  0  0  0  0
    4.4423   -0.6619   -2.2397 C   0  0  0  0  0  0  0  0  0  0  0  0
    4.2086    0.3516   -3.1946 C   0  0  0  0  0  0  0  0  0  0  0  0
    3.3300    0.2039   -4.2555 C   0  0  0  0  0  0  0  0  0  0  0  0
    2.6111   -0.9795   -4.3218 C   0  0  0  0  0  0  0  0  0  0  0  0
    2.8282   -2.0377   -3.4090 C   0  0  0  0  0  0  0  0  0  0  0  0
    3.1169   -3.8004   -0.8499 C   0  0  0  0  0  0  0  0  0  0  0  0
    1.8155   -3.8379   -1.1829 O   0  0  0  0  0  0  0  0  0  0  0  0
    3.8090   -4.6015    0.0117 C   0  0  0  0  0  0  0  0  0  0  0  0
    3.3145   -5.7411    0.7940 C   0  0  0  0  0  0  0  0  0  0  0  0
    2.1059   -6.1063    0.9310 N   0  0  0  0  0  0  0  0  0  0  0  0
    1.8547   -7.2183    1.6617 C   0  0  0  0  0  0  0  0  0  0  0  0
    2.6734   -8.2107    2.0490 N   0  0  0  0  0  0  0  0  0  0  0  0
    2.0450   -9.1729    2.8202 C   0  0  0  0  0  0  0  0  0  0  0  0
    0.7159   -8.9362    3.0254 C   0  0  0  0  0  0  0  0  0  0  0  0
    0.2012   -7.4790    2.2119 S   0  0  0  0  0  0  0  0  0  0  0  0
   -0.1598   -9.8431    3.8218 C   0  0  0  0  0  0  0  0  0  0  0  0
    0.5223  -11.2183    4.0458 C   0  0  0  0  0  0  0  0  0  0  0  0
    2.0168  -11.0983    4.4066 C   0  0  0  0  0  0  0  0  0  0  0  0
    2.8115  -10.3447    3.3294 C   0  0  0  0  0  0  0  0  0  0  0  0
    6.1871   -5.3305    1.3473 H   0  0  0  0  0  0  0  0  0  0  0  0
    6.7005   -3.6413    1.3471 H   0  0  0  0  0  0  0  0  0  0  0  0
    7.1683   -4.7052    0.0201 H   0  0  0  0  0  0  0  0  0  0  0  0
    5.1545   -0.5030   -1.4353 H   0  0  0  0  0  0  0  0  0  0  0  0
    4.7245    1.2958   -3.1350 H   0  0  0  0  0  0  0  0  0  0  0  0
    3.1659    1.0395   -4.9270 H   0  0  0  0  0  0  0  0  0  0  0  0
    1.8775   -1.0352   -5.1024 H   0  0  0  0  0  0  0  0  0  0  0  0
    2.2465   -2.9404   -3.5175 H   0  0  0  0  0  0  0  0  0  0  0  0
    4.0964   -6.3056    1.2931 H   0  0  0  0  0  0  0  0  0  0  0  0
   -0.3577   -9.3862    4.7938 H   0  0  0  0  0  0  0  0  0  0  0  0
   -1.1196   -9.9671    3.3173 H   0  0  0  0  0  0  0  0  0  0  0  0
    0.0110  -11.7826    4.8227 H   0  0  0  0  0  0  0  0  0  0  0  0
    0.4421  -11.8082    3.1322 H   0  0  0  0  0  0  0  0  0  0  0  0
    2.0973  -10.5531    5.3478 H   0  0  0  0  0  0  0  0  0  0  0  0
    2.4626  -12.0785    4.5750 H   0  0  0  0  0  0  0  0  0  0  0  0
    3.0313  -11.0044    2.4895 H   0  0  0  0  0  0  0  0  0  0  0  0
    3.7742  -10.0178    3.7220 H   0  0  0  0  0  0  0  0  0  0  0  0
  1  2  1  0
  1 25  1  0
  1 26  1  0
  1 27  1  0
  2 13  1  0
  2  3  2  0
  3  4  1  0
  4  5  1  0
  4 11  1  0
  5 10  1  0
  5  6  2  0
  6  7  1  0
  6 28  1  0
  7  8  2  0
  7 29  1  0
  8  9  1  0
  8 30  1  0
  9 10  2  0
  9 31  1  0
 10 32  1  0
 11 12  1  0
 11 13  2  0
 13 14  1  0
 14 15  2  3
 14 33  1  0
 15 16  1  0
 16 20  1  0
 16 17  2  0
 17 18  1  0
 18 24  1  0
 18 19  2  0
 19 20  1  0
 19 21  1  0
 21 22  1  0
 21 34  1  0
 21 35  1  0
 22 23  1  0
 22 36  1  0
 22 37  1  0
 23 24  1  0
 23 38  1  0
 23 39  1  0
 24 40  1  0
 24 41  1  0
M  CHG  1  12  -1
M  END
>  <i_m_ct_stereo_status>  (91) 
1

>  <s_m_source_file>  (91) 
/var/tmp/pbs.5076255.sched01/tmp6mrmgolx/06cp14zw5.sdf

>  <i_m_source_file_index>  (91) 
39

>  <i_lp_mmshare_version>  (91) 
48012

>  <i_f3d_flags>  (91) 
0

>  <s_epik_input>  (91) 
W2NIXTFbY0hdW2NIXVtjSF1bY0hdYzEtbihbbkhdYzJbQ0gzXSljKD1PKWMyL1tDSF09Ti9jKG4zKXNjKGMzNClbQ0gyXVtDSDJdW0NIMl1bQ0gyXTQ=

>  <s_epik_cmdline>  (91) 
J2VwaWtfcHl0aG9uJywgJy1waHQnLCAnMi4wJywgJy1waCcsICc3LjAnLCAnLXRuJywgJzgnLCAnLW1hJywgJzIwMCcsICctaW1hZScsICc8aW5maWxlLm1hZT4nLCAnLW9tYWUnLCAnPG91dGZpbGUubWFlPic=

>  <r_epik_Ionization_Penalty>  (91) 
0.0141566

>  <r_epik_Ionization_Penalty_Charging>  (91) 
0.0119654

>  <r_epik_Ionization_Penalty_Neutral>  (91) 
0.0021912

>  <r_epik_State_Penalty>  (91) 
0.010699

>  <r_epik_Charging_Adjusted_Penalty>  (91) 
0.0226644

>  <i_epik_Tot_Q>  (91) 
-1

>  <i_epik_Tot_abs_Q>  (91) 
1

>  <s_epik_Chemistry_Notes>  (91) 
This compound has an imine and may undergo hydrolysis.

>  <s_lp_Force_Field>  (91) 
OPLS3e

>  <r_lp_Energy>  (91) 
29.4419

>  <b_lp_Chiralities_Consistent>  (91) 
1

>  <s_lp_Variant>  (91) 
15:0-1

>  <s_i_glide_gridfile>  (91) 
pfpi4k_grid

>  <i_i_glide_lignum>  (91) 
39

>  <i_i_glide_rotatable_bonds>  (91) 
3

>  <r_i_docking_score>  (91) 
-2.18845

>  <r_i_glide_ligand_efficiency>  (91) 
-0.0911853

>  <r_i_glide_ligand_efficiency_sa>  (91) 
-0.263024

>  <r_i_glide_ligand_efficiency_ln>  (91) 
-0.523796

>  <r_i_glide_gscore>  (91) 
-2.18845

>  <r_i_glide_lipo>  (91) 
-0.408381

>  <r_i_glide_hbond>  (91) 
-0.00797673

>  <r_i_glide_metal>  (91) 
-0

>  <r_i_glide_rewards>  (91) 
-1.1085

>  <r_i_glide_evdw>  (91) 
-21.3067

>  <r_i_glide_ecoul>  (91) 
-0.491653

>  <r_i_glide_erotb>  (91) 
0.497987

>  <r_i_glide_esite>  (91) 
-0.0224928

>  <r_i_glide_emodel>  (91) 
-24.367

>  <r_i_glide_energy>  (91) 
-21.7983

>  <r_i_glide_einternal>  (91) 
1.88174

>  <r_i_glide_intrahb_reward>  (91) 
-0

>  <i_i_glide_confnum>  (91) 
5

>  <i_i_glide_posenum>  (91) 
1

>  <r_i_glide_eff_state_penalty>  (91) 
0

>  <ligand_id>  (91) 
15

>  <original_smiles>  (91) 
Cc1[nH]n(-c2ccccc2)c(=O)c1C=Nc1nc2c(s1)CCCC2

>  <smiles>  (91) 
[H]C(=Nc1nc2c(s1)C([H])([H])C([H])([H])C([H])([H])C2([H])[H])c1c(C([H])([H])[H])nn(-c2c([H])c([H])c([H])c([H])c2[H])c1[O-]

$$$$
15:1:0
     RDKit          3D

 41 44  0  0  1  0  0  0  0  0999 V2000
    8.8879   -5.1602    1.1114 C   0  0  0  0  0  0  0  0  0  0  0  0
    7.4004   -5.0844    0.9295 C   0  0  0  0  0  0  0  0  0  0  0  0
    6.6704   -6.1392    1.2555 N   0  0  0  0  0  0  0  0  0  0  0  0
    5.3871   -5.8071    0.9807 N   0  0  0  0  0  0  0  0  0  0  0  0
    4.3454   -6.7463    1.2205 C   0  0  0  0  0  0  0  0  0  0  0  0
    3.0400   -6.3253    1.5678 C   0  0  0  0  0  0  0  0  0  0  0  0
    2.0220   -7.2710    1.7920 C   0  0  0  0  0  0  0  0  0  0  0  0
    2.3051   -8.6450    1.6874 C   0  0  0  0  0  0  0  0  0  0  0  0
    3.6049   -9.0697    1.3597 C   0  0  0  0  0  0  0  0  0  0  0  0
    4.6191   -8.1280    1.1277 C   0  0  0  0  0  0  0  0  0  0  0  0
    5.3462   -4.5298    0.4516 C   0  0  0  0  0  0  0  0  0  0  0  0
    4.1937   -3.9831    0.0172 O   0  0  0  0  0  0  0  0  0  0  0  0
    6.6078   -3.9985    0.4519 C   0  0  0  0  0  0  0  0  0  0  0  0
    7.0869   -2.6554    0.0434 C   0  0  0  0  0  0  0  0  0  0  0  0
    6.5754   -1.4991    0.2246 N   0  0  0  0  0  0  0  0  0  0  0  0
    5.4634   -1.2741    0.9760 C   0  0  0  0  0  0  0  0  0  0  0  0
    4.4869   -0.4113    0.6718 N   0  0  0  0  0  0  0  0  0  0  0  0
    3.4588   -0.3848    1.6152 C   0  0  0  0  0  0  0  0  0  0  0  0
    3.6587   -1.2257    2.6749 C   0  0  0  0  0  0  0  0  0  0  0  0
    5.2069   -2.0001    2.5829 S   0  0  0  0  0  0  0  0  0  0  0  0
    2.7062   -1.4079    3.8070 C   0  0  0  0  0  0  0  0  0  0  0  0
    1.7099   -0.2328    3.8879 C   0  0  0  0  0  0  0  0  0  0  0  0
    1.1675    0.1685    2.4944 C   0  0  0  0  0  0  0  0  0  0  0  0
    2.2858    0.5404    1.4963 C   0  0  0  0  0  0  0  0  0  0  0  0
    9.3719   -4.2137    0.8764 H   0  0  0  0  0  0  0  0  0  0  0  0
    9.3107   -5.9258    0.4629 H   0  0  0  0  0  0  0  0  0  0  0  0
    9.1472   -5.4137    2.1381 H   0  0  0  0  0  0  0  0  0  0  0  0
    2.8108   -5.2775    1.6717 H   0  0  0  0  0  0  0  0  0  0  0  0
    1.0315   -6.9421    2.0565 H   0  0  0  0  0  0  0  0  0  0  0  0
    1.5289   -9.3755    1.8610 H   0  0  0  0  0  0  0  0  0  0  0  0
    3.8285  -10.1237    1.2838 H   0  0  0  0  0  0  0  0  0  0  0  0
    5.6150   -8.4634    0.8765 H   0  0  0  0  0  0  0  0  0  0  0  0
    8.0383   -2.6863   -0.4930 H   0  0  0  0  0  0  0  0  0  0  0  0
    2.1558   -2.3411    3.6753 H   0  0  0  0  0  0  0  0  0  0  0  0
    3.2511   -1.5022    4.7452 H   0  0  0  0  0  0  0  0  0  0  0  0
    0.8903   -0.4735    4.5680 H   0  0  0  0  0  0  0  0  0  0  0  0
    2.2230    0.6315    4.3146 H   0  0  0  0  0  0  0  0  0  0  0  0
    0.6160   -0.6798    2.0867 H   0  0  0  0  0  0  0  0  0  0  0  0
    0.4544    0.9907    2.5729 H   0  0  0  0  0  0  0  0  0  0  0  0
    2.6234    1.5582    1.6973 H   0  0  0  0  0  0  0  0  0  0  0  0
    1.8849    0.5464    0.4825 H   0  0  0  0  0  0  0  0  0  0  0  0
  1  2  1  0
  1 25  1  0
  1 26  1  0
  1 27  1  0
  2 13  1  0
  2  3  2  0
  3  4  1  0
  4  5  1  0
  4 11  1  0
  5 10  1  0
  5  6  2  0
  6  7  1  0
  6 28  1  0
  7  8  2  0
  7 29  1  0
  8  9  1  0
  8 30  1  0
  9 10  2  0
  9 31  1  0
 10 32  1  0
 11 12  1  0
 11 13  2  0
 13 14  1  0
 14 15  2  3
 14 33  1  0
 15 16  1  0
 16 20  1  0
 16 17  2  0
 17 18  1  0
 18 24  1  0
 18 19  2  0
 19 20  1  0
 19 21  1  0
 21 22  1  0
 21 34  1  0
 21 35  1  0
 22 23  1  0
 22 36  1  0
 22 37  1  0
 23 24  1  0
 23 38  1  0
 23 39  1  0
 24 40  1  0
 24 41  1  0
M  CHG  1  12  -1
M  END
>  <i_m_ct_stereo_status>  (92) 
1

>  <s_m_source_file>  (92) 
/var/tmp/pbs.5076255.sched01/tmp6mrmgolx/06cp14zw5.sdf

>  <i_m_source_file_index>  (92) 
40

>  <i_lp_mmshare_version>  (92) 
48012

>  <i_f3d_flags>  (92) 
0

>  <s_epik_input>  (92) 
W2NIXTFbY0hdW2NIXVtjSF1bY0hdYzEtbihbbkhdYzJbQ0gzXSljKD1PKWMyL1tDSF09Ti9jKG4zKXNjKGMzNClbQ0gyXVtDSDJdW0NIMl1bQ0gyXTQ=

>  <s_epik_cmdline>  (92) 
J2VwaWtfcHl0aG9uJywgJy1waHQnLCAnMi4wJywgJy1waCcsICc3LjAnLCAnLXRuJywgJzgnLCAnLW1hJywgJzIwMCcsICctaW1hZScsICc8aW5maWxlLm1hZT4nLCAnLW9tYWUnLCAnPG91dGZpbGUubWFlPic=

>  <r_epik_Ionization_Penalty>  (92) 
0.0141566

>  <r_epik_Ionization_Penalty_Charging>  (92) 
0.0119654

>  <r_epik_Ionization_Penalty_Neutral>  (92) 
0.0021912

>  <r_epik_State_Penalty>  (92) 
0.010699

>  <r_epik_Charging_Adjusted_Penalty>  (92) 
0.0226644

>  <i_epik_Tot_Q>  (92) 
-1

>  <i_epik_Tot_abs_Q>  (92) 
1

>  <s_epik_Chemistry_Notes>  (92) 
This compound has an imine and may undergo hydrolysis.

>  <s_lp_Force_Field>  (92) 
OPLS3e

>  <r_lp_Energy>  (92) 
35.701

>  <b_lp_Chiralities_Consistent>  (92) 
1

>  <s_lp_Variant>  (92) 
15:0-2

>  <s_i_glide_gridfile>  (92) 
pfpi4k_grid

>  <i_i_glide_lignum>  (92) 
40

>  <i_i_glide_rotatable_bonds>  (92) 
3

>  <r_i_docking_score>  (92) 
-2.89021

>  <r_i_glide_ligand_efficiency>  (92) 
-0.120425

>  <r_i_glide_ligand_efficiency_sa>  (92) 
-0.347367

>  <r_i_glide_ligand_efficiency_ln>  (92) 
-0.69176

>  <r_i_glide_gscore>  (92) 
-2.89021

>  <r_i_glide_lipo>  (92) 
-0.624647

>  <r_i_glide_hbond>  (92) 
-0.00669335

>  <r_i_glide_metal>  (92) 
-0

>  <r_i_glide_rewards>  (92) 
-1.31781

>  <r_i_glide_evdw>  (92) 
-28.7198

>  <r_i_glide_ecoul>  (92) 
-0.0203763

>  <r_i_glide_erotb>  (92) 
0.497987

>  <r_i_glide_esite>  (92) 
0

>  <r_i_glide_emodel>  (92) 
-36.1996

>  <r_i_glide_energy>  (92) 
-28.7402

>  <r_i_glide_einternal>  (92) 
0.143015

>  <r_i_glide_intrahb_reward>  (92) 
-0

>  <i_i_glide_confnum>  (92) 
2

>  <i_i_glide_posenum>  (92) 
6

>  <r_i_glide_eff_state_penalty>  (92) 
0

>  <ligand_id>  (92) 
15

>  <original_smiles>  (92) 
Cc1[nH]n(-c2ccccc2)c(=O)c1C=Nc1nc2c(s1)CCCC2

>  <smiles>  (92) 
[H]C(=Nc1nc2c(s1)C([H])([H])C([H])([H])C([H])([H])C2([H])[H])c1c(C([H])([H])[H])nn(-c2c([H])c([H])c([H])c([H])c2[H])c1[O-]

$$$$
15:1:1
     RDKit          3D

 41 44  0  0  1  0  0  0  0  0999 V2000
   -0.0449   -9.3784    5.9448 C   0  0  0  0  0  0  0  0  0  0  0  0
    0.2109   -7.9544    5.5735 C   0  0  0  0  0  0  0  0  0  0  0  0
    0.3882   -7.0718    6.5484 N   0  0  0  0  0  0  0  0  0  0  0  0
    0.5796   -5.8796    5.9333 N   0  0  0  0  0  0  0  0  0  0  0  0
    0.8018   -4.7032    6.7024 C   0  0  0  0  0  0  0  0  0  0  0  0
    0.2585   -4.6199    7.9995 C   0  0  0  0  0  0  0  0  0  0  0  0
    0.4741   -3.4807    8.7973 C   0  0  0  0  0  0  0  0  0  0  0  0
    1.2404   -2.4061    8.3007 C   0  0  0  0  0  0  0  0  0  0  0  0
    1.7881   -2.4714    7.0033 C   0  0  0  0  0  0  0  0  0  0  0  0
    1.5825   -3.6168    6.2113 C   0  0  0  0  0  0  0  0  0  0  0  0
    0.5102   -6.0372    4.5544 C   0  0  0  0  0  0  0  0  0  0  0  0
    0.6164   -4.9626    3.7470 O   0  0  0  0  0  0  0  0  0  0  0  0
    0.2719   -7.3574    4.2645 C   0  0  0  0  0  0  0  0  0  0  0  0
    0.1116   -8.0525    2.9513 C   0  0  0  0  0  0  0  0  0  0  0  0
    0.6213   -7.8241    1.8036 N   0  0  0  0  0  0  0  0  0  0  0  0
    1.5572   -6.8649    1.5976 C   0  0  0  0  0  0  0  0  0  0  0  0
    1.5050   -5.8768    0.6938 N   0  0  0  0  0  0  0  0  0  0  0  0
    2.6203   -5.0356    0.7427 C   0  0  0  0  0  0  0  0  0  0  0  0
    3.5663   -5.4023    1.6612 C   0  0  0  0  0  0  0  0  0  0  0  0
    3.1149   -6.8745    2.4651 S   0  0  0  0  0  0  0  0  0  0  0  0
    4.8421   -4.6674    1.9007 C   0  0  0  0  0  0  0  0  0  0  0  0
    5.1705   -3.7216    0.7248 C   0  0  0  0  0  0  0  0  0  0  0  0
    3.9239   -2.9420    0.2393 C   0  0  0  0  0  0  0  0  0  0  0  0
    2.7650   -3.8672   -0.1828 C   0  0  0  0  0  0  0  0  0  0  0  0
   -0.1483  -10.0150    5.0694 H   0  0  0  0  0  0  0  0  0  0  0  0
   -0.9664   -9.4592    6.5146 H   0  0  0  0  0  0  0  0  0  0  0  0
    0.7633   -9.7777    6.5519 H   0  0  0  0  0  0  0  0  0  0  0  0
   -0.3284   -5.4496    8.3764 H   0  0  0  0  0  0  0  0  0  0  0  0
    0.0639   -3.4519    9.7961 H   0  0  0  0  0  0  0  0  0  0  0  0
    1.4232   -1.5382    8.9204 H   0  0  0  0  0  0  0  0  0  0  0  0
    2.3886   -1.6607    6.6162 H   0  0  0  0  0  0  0  0  0  0  0  0
    2.0408   -3.6626    5.2360 H   0  0  0  0  0  0  0  0  0  0  0  0
   -0.5624   -8.9011    2.9799 H   0  0  0  0  0  0  0  0  0  0  0  0
    4.7625   -4.0829    2.8177 H   0  0  0  0  0  0  0  0  0  0  0  0
    5.6614   -5.3672    2.0543 H   0  0  0  0  0  0  0  0  0  0  0  0
    5.9732   -3.0337    0.9973 H   0  0  0  0  0  0  0  0  0  0  0  0
    5.5451   -4.3159   -0.1104 H   0  0  0  0  0  0  0  0  0  0  0  0
    3.5815   -2.3051    1.0571 H   0  0  0  0  0  0  0  0  0  0  0  0
    4.1789   -2.2692   -0.5829 H   0  0  0  0  0  0  0  0  0  0  0  0
    2.9636   -4.2345   -1.1895 H   0  0  0  0  0  0  0  0  0  0  0  0
    1.8395   -3.2955   -0.2502 H   0  0  0  0  0  0  0  0  0  0  0  0
  1  2  1  0
  1 25  1  0
  1 26  1  0
  1 27  1  0
  2 13  1  0
  2  3  2  0
  3  4  1  0
  4  5  1  0
  4 11  1  0
  5 10  1  0
  5  6  2  0
  6  7  1  0
  6 28  1  0
  7  8  2  0
  7 29  1  0
  8  9  1  0
  8 30  1  0
  9 10  2  0
  9 31  1  0
 10 32  1  0
 11 12  1  0
 11 13  2  0
 13 14  1  0
 14 15  2  3
 14 33  1  0
 15 16  1  0
 16 20  1  0
 16 17  2  0
 17 18  1  0
 18 24  1  0
 18 19  2  0
 19 20  1  0
 19 21  1  0
 21 22  1  0
 21 34  1  0
 21 35  1  0
 22 23  1  0
 22 36  1  0
 22 37  1  0
 23 24  1  0
 23 38  1  0
 23 39  1  0
 24 40  1  0
 24 41  1  0
M  CHG  1  12  -1
M  END
>  <i_m_ct_stereo_status>  (93) 
1

>  <s_m_source_file>  (93) 
/var/tmp/pbs.5076255.sched01/tmp6mrmgolx/06cp14zw5.sdf

>  <i_m_source_file_index>  (93) 
40

>  <i_lp_mmshare_version>  (93) 
48012

>  <i_f3d_flags>  (93) 
0

>  <s_epik_input>  (93) 
W2NIXTFbY0hdW2NIXVtjSF1bY0hdYzEtbihbbkhdYzJbQ0gzXSljKD1PKWMyL1tDSF09Ti9jKG4zKXNjKGMzNClbQ0gyXVtDSDJdW0NIMl1bQ0gyXTQ=

>  <s_epik_cmdline>  (93) 
J2VwaWtfcHl0aG9uJywgJy1waHQnLCAnMi4wJywgJy1waCcsICc3LjAnLCAnLXRuJywgJzgnLCAnLW1hJywgJzIwMCcsICctaW1hZScsICc8aW5maWxlLm1hZT4nLCAnLW9tYWUnLCAnPG91dGZpbGUubWFlPic=

>  <r_epik_Ionization_Penalty>  (93) 
0.0141566

>  <r_epik_Ionization_Penalty_Charging>  (93) 
0.0119654

>  <r_epik_Ionization_Penalty_Neutral>  (93) 
0.0021912

>  <r_epik_State_Penalty>  (93) 
0.010699

>  <r_epik_Charging_Adjusted_Penalty>  (93) 
0.0226644

>  <i_epik_Tot_Q>  (93) 
-1

>  <i_epik_Tot_abs_Q>  (93) 
1

>  <s_epik_Chemistry_Notes>  (93) 
This compound has an imine and may undergo hydrolysis.

>  <s_lp_Force_Field>  (93) 
OPLS3e

>  <r_lp_Energy>  (93) 
35.701

>  <b_lp_Chiralities_Consistent>  (93) 
1

>  <s_lp_Variant>  (93) 
15:0-2

>  <s_i_glide_gridfile>  (93) 
pfpi4k_grid

>  <i_i_glide_lignum>  (93) 
40

>  <i_i_glide_rotatable_bonds>  (93) 
3

>  <r_i_docking_score>  (93) 
-2.45668

>  <r_i_glide_ligand_efficiency>  (93) 
-0.102361

>  <r_i_glide_ligand_efficiency_sa>  (93) 
-0.295262

>  <r_i_glide_ligand_efficiency_ln>  (93) 
-0.587995

>  <r_i_glide_gscore>  (93) 
-2.45668

>  <r_i_glide_lipo>  (93) 
-0.0750648

>  <r_i_glide_hbond>  (93) 
-0.152919

>  <r_i_glide_metal>  (93) 
-0

>  <r_i_glide_rewards>  (93) 
-1.1085

>  <r_i_glide_evdw>  (93) 
-20.3222

>  <r_i_glide_ecoul>  (93) 
-3.72036

>  <r_i_glide_erotb>  (93) 
0.497987

>  <r_i_glide_esite>  (93) 
-0.0440146

>  <r_i_glide_emodel>  (93) 
-30.2223

>  <r_i_glide_energy>  (93) 
-24.0426

>  <r_i_glide_einternal>  (93) 
0.293656

>  <r_i_glide_intrahb_reward>  (93) 
-0

>  <i_i_glide_confnum>  (93) 
3

>  <i_i_glide_posenum>  (93) 
5

>  <r_i_glide_eff_state_penalty>  (93) 
0

>  <ligand_id>  (93) 
15

>  <original_smiles>  (93) 
Cc1[nH]n(-c2ccccc2)c(=O)c1C=Nc1nc2c(s1)CCCC2

>  <smiles>  (93) 
[H]C(=Nc1nc2c(s1)C([H])([H])C([H])([H])C([H])([H])C2([H])[H])c1c(C([H])([H])[H])nn(-c2c([H])c([H])c([H])c([H])c2[H])c1[O-]

$$$$
15:1:2
     RDKit          3D

 41 44  0  0  1  0  0  0  0  0999 V2000
    0.8206    0.7358    2.0896 C   0  0  0  0  0  0  0  0  0  0  0  0
    0.1427    0.2664    3.3500 C   0  0  0  0  0  0  0  0  0  0  0  0
    0.5791   -0.8468    3.9191 N   0  0  0  0  0  0  0  0  0  0  0  0
   -0.1915   -1.0559    5.0057 N   0  0  0  0  0  0  0  0  0  0  0  0
    0.0401   -2.1777    5.8283 C   0  0  0  0  0  0  0  0  0  0  0  0
    0.0916   -2.0422    7.2307 C   0  0  0  0  0  0  0  0  0  0  0  0
    0.3043   -3.1679    8.0403 C   0  0  0  0  0  0  0  0  0  0  0  0
    0.4768   -4.4301    7.4514 C   0  0  0  0  0  0  0  0  0  0  0  0
    0.4328   -4.5703    6.0554 C   0  0  0  0  0  0  0  0  0  0  0  0
    0.2178   -3.4455    5.2475 C   0  0  0  0  0  0  0  0  0  0  0  0
   -1.1289   -0.0471    5.0897 C   0  0  0  0  0  0  0  0  0  0  0  0
   -2.0478   -0.0414    6.0826 O   0  0  0  0  0  0  0  0  0  0  0  0
   -0.9270    0.8558    4.0836 C   0  0  0  0  0  0  0  0  0  0  0  0
   -1.6110    2.1293    3.7467 C   0  0  0  0  0  0  0  0  0  0  0  0
   -2.1250    3.0120    4.5125 N   0  0  0  0  0  0  0  0  0  0  0  0
   -2.0115    2.9982    5.8608 C   0  0  0  0  0  0  0  0  0  0  0  0
   -2.9809    3.3253    6.7141 N   0  0  0  0  0  0  0  0  0  0  0  0
   -2.6071    3.2309    8.0474 C   0  0  0  0  0  0  0  0  0  0  0  0
   -1.3224    2.7913    8.2154 C   0  0  0  0  0  0  0  0  0  0  0  0
   -0.4950    2.5945    6.7018 S   0  0  0  0  0  0  0  0  0  0  0  0
   -0.6908    2.5477    9.5472 C   0  0  0  0  0  0  0  0  0  0  0  0
   -1.4543    3.2783   10.6766 C   0  0  0  0  0  0  0  0  0  0  0  0
   -2.9882    3.1312   10.5324 C   0  0  0  0  0  0  0  0  0  0  0  0
   -3.5217    3.6270    9.1704 C   0  0  0  0  0  0  0  0  0  0  0  0
    0.4291    1.6853    1.7313 H   0  0  0  0  0  0  0  0  0  0  0  0
    0.6787    0.0123    1.2904 H   0  0  0  0  0  0  0  0  0  0  0  0
    1.8967    0.8576    2.2197 H   0  0  0  0  0  0  0  0  0  0  0  0
   -0.0340   -1.0756    7.6853 H   0  0  0  0  0  0  0  0  0  0  0  0
    0.3552   -3.0659    9.1113 H   0  0  0  0  0  0  0  0  0  0  0  0
    0.6535   -5.2931    8.0647 H   0  0  0  0  0  0  0  0  0  0  0  0
    0.5751   -5.5330    5.5985 H   0  0  0  0  0  0  0  0  0  0  0  0
    0.1953   -3.5460    4.1754 H   0  0  0  0  0  0  0  0  0  0  0  0
   -1.6736    2.3063    2.6677 H   0  0  0  0  0  0  0  0  0  0  0  0
   -0.6766    1.4755    9.7669 H   0  0  0  0  0  0  0  0  0  0  0  0
    0.3512    2.8693    9.5417 H   0  0  0  0  0  0  0  0  0  0  0  0
   -1.1277    2.9208   11.6590 H   0  0  0  0  0  0  0  0  0  0  0  0
   -1.2069    4.3415   10.6373 H   0  0  0  0  0  0  0  0  0  0  0  0
   -3.2314    2.0743   10.6301 H   0  0  0  0  0  0  0  0  0  0  0  0
   -3.5041    3.6378   11.3497 H   0  0  0  0  0  0  0  0  0  0  0  0
   -3.5917    4.7165    9.1949 H   0  0  0  0  0  0  0  0  0  0  0  0
   -4.5366    3.2596    9.0019 H   0  0  0  0  0  0  0  0  0  0  0  0
  1  2  1  0
  1 25  1  0
  1 26  1  0
  1 27  1  0
  2 13  1  0
  2  3  2  0
  3  4  1  0
  4  5  1  0
  4 11  1  0
  5 10  1  0
  5  6  2  0
  6  7  1  0
  6 28  1  0
  7  8  2  0
  7 29  1  0
  8  9  1  0
  8 30  1  0
  9 10  2  0
  9 31  1  0
 10 32  1  0
 11 12  1  0
 11 13  2  0
 13 14  1  0
 14 15  2  3
 14 33  1  0
 15 16  1  0
 16 20  1  0
 16 17  2  0
 17 18  1  0
 18 24  1  0
 18 19  2  0
 19 20  1  0
 19 21  1  0
 21 22  1  0
 21 34  1  0
 21 35  1  0
 22 23  1  0
 22 36  1  0
 22 37  1  0
 23 24  1  0
 23 38  1  0
 23 39  1  0
 24 40  1  0
 24 41  1  0
M  CHG  1  12  -1
M  END
>  <i_m_ct_stereo_status>  (94) 
1

>  <s_m_source_file>  (94) 
/var/tmp/pbs.5076255.sched01/tmp6mrmgolx/06cp14zw5.sdf

>  <i_m_source_file_index>  (94) 
40

>  <i_lp_mmshare_version>  (94) 
48012

>  <i_f3d_flags>  (94) 
0

>  <s_epik_input>  (94) 
W2NIXTFbY0hdW2NIXVtjSF1bY0hdYzEtbihbbkhdYzJbQ0gzXSljKD1PKWMyL1tDSF09Ti9jKG4zKXNjKGMzNClbQ0gyXVtDSDJdW0NIMl1bQ0gyXTQ=

>  <s_epik_cmdline>  (94) 
J2VwaWtfcHl0aG9uJywgJy1waHQnLCAnMi4wJywgJy1waCcsICc3LjAnLCAnLXRuJywgJzgnLCAnLW1hJywgJzIwMCcsICctaW1hZScsICc8aW5maWxlLm1hZT4nLCAnLW9tYWUnLCAnPG91dGZpbGUubWFlPic=

>  <r_epik_Ionization_Penalty>  (94) 
0.0141566

>  <r_epik_Ionization_Penalty_Charging>  (94) 
0.0119654

>  <r_epik_Ionization_Penalty_Neutral>  (94) 
0.0021912

>  <r_epik_State_Penalty>  (94) 
0.010699

>  <r_epik_Charging_Adjusted_Penalty>  (94) 
0.0226644

>  <i_epik_Tot_Q>  (94) 
-1

>  <i_epik_Tot_abs_Q>  (94) 
1

>  <s_epik_Chemistry_Notes>  (94) 
This compound has an imine and may undergo hydrolysis.

>  <s_lp_Force_Field>  (94) 
OPLS3e

>  <r_lp_Energy>  (94) 
35.701

>  <b_lp_Chiralities_Consistent>  (94) 
1

>  <s_lp_Variant>  (94) 
15:0-2

>  <s_i_glide_gridfile>  (94) 
pfpi4k_grid

>  <i_i_glide_lignum>  (94) 
40

>  <i_i_glide_rotatable_bonds>  (94) 
3

>  <r_i_docking_score>  (94) 
-2.3133

>  <r_i_glide_ligand_efficiency>  (94) 
-0.0963877

>  <r_i_glide_ligand_efficiency_sa>  (94) 
-0.27803

>  <r_i_glide_ligand_efficiency_ln>  (94) 
-0.55368

>  <r_i_glide_gscore>  (94) 
-2.3133

>  <r_i_glide_lipo>  (94) 
-0.249677

>  <r_i_glide_hbond>  (94) 
-0.2

>  <r_i_glide_metal>  (94) 
-0

>  <r_i_glide_rewards>  (94) 
-1.1085

>  <r_i_glide_evdw>  (94) 
-25.5274

>  <r_i_glide_ecoul>  (94) 
0.47985

>  <r_i_glide_erotb>  (94) 
0.497987

>  <r_i_glide_esite>  (94) 
-0.0487219

>  <r_i_glide_emodel>  (94) 
-30.6077

>  <r_i_glide_energy>  (94) 
-25.0475

>  <r_i_glide_einternal>  (94) 
0.554934

>  <r_i_glide_intrahb_reward>  (94) 
-0

>  <i_i_glide_confnum>  (94) 
2

>  <i_i_glide_posenum>  (94) 
33

>  <r_i_glide_eff_state_penalty>  (94) 
0

>  <ligand_id>  (94) 
15

>  <original_smiles>  (94) 
Cc1[nH]n(-c2ccccc2)c(=O)c1C=Nc1nc2c(s1)CCCC2

>  <smiles>  (94) 
[H]C(=Nc1nc2c(s1)C([H])([H])C([H])([H])C([H])([H])C2([H])[H])c1c(C([H])([H])[H])nn(-c2c([H])c([H])c([H])c([H])c2[H])c1[O-]

$$$$
15:2:0
     RDKit          3D

 42 45  0  0  1  0  0  0  0  0999 V2000
    5.9227   -0.1340    4.7222 C   0  0  0  0  0  0  0  0  0  0  0  0
    5.4005   -0.4466    3.3468 C   0  0  0  0  0  0  0  0  0  0  0  0
    6.2033   -1.0495    2.4839 N   0  0  0  0  0  0  0  0  0  0  0  0
    5.4921   -1.2577    1.3574 N   0  0  0  0  0  0  0  0  0  0  0  0
    6.0745   -1.9355    0.2714 C   0  0  0  0  0  0  0  0  0  0  0  0
    7.4887   -1.9732    0.1436 C   0  0  0  0  0  0  0  0  0  0  0  0
    8.0744   -2.6529   -0.9370 C   0  0  0  0  0  0  0  0  0  0  0  0
    7.2586   -3.2644   -1.8986 C   0  0  0  0  0  0  0  0  0  0  0  0
    5.8579   -3.2336   -1.7895 C   0  0  0  0  0  0  0  0  0  0  0  0
    5.2698   -2.5882   -0.6930 C   0  0  0  0  0  0  0  0  0  0  0  0
    4.2439   -0.6882    1.5033 C   0  0  0  0  0  0  0  0  0  0  0  0
    3.3554   -0.6486    0.4784 O   0  0  0  0  0  0  0  0  0  0  0  0
    4.1255   -0.1885    2.7537 C   0  0  0  0  0  0  0  0  0  0  0  0
    2.9991    0.5087    3.3503 C   0  0  0  0  0  0  0  0  0  0  0  0
    1.8185    0.5186    2.8699 N   0  0  0  0  0  0  0  0  0  0  0  0
    0.8706    1.1463    3.5782 C   0  0  0  0  0  0  0  0  0  0  0  0
    0.8804    1.5984    4.8464 N   0  0  0  0  0  0  0  0  0  0  0  0
   -0.2890    2.2199    5.2101 C   0  0  0  0  0  0  0  0  0  0  0  0
   -1.2490    2.2244    4.2358 C   0  0  0  0  0  0  0  0  0  0  0  0
   -0.7042    1.4250    2.7968 S   0  0  0  0  0  0  0  0  0  0  0  0
   -2.6015    2.8255    4.3950 C   0  0  0  0  0  0  0  0  0  0  0  0
   -2.9010    3.0710    5.8929 C   0  0  0  0  0  0  0  0  0  0  0  0
   -1.7046    3.6903    6.6511 C   0  0  0  0  0  0  0  0  0  0  0  0
   -0.4587    2.7925    6.5731 C   0  0  0  0  0  0  0  0  0  0  0  0
    5.2099    0.4303    5.3197 H   0  0  0  0  0  0  0  0  0  0  0  0
    6.8509    0.4447    4.6675 H   0  0  0  0  0  0  0  0  0  0  0  0
    6.1274   -1.0503    5.2801 H   0  0  0  0  0  0  0  0  0  0  0  0
    8.1280   -1.4937    0.8710 H   0  0  0  0  0  0  0  0  0  0  0  0
    9.1442   -2.6927   -1.0329 H   0  0  0  0  0  0  0  0  0  0  0  0
    7.7182   -3.8246   -2.6838 H   0  0  0  0  0  0  0  0  0  0  0  0
    5.2364   -3.7413   -2.5074 H   0  0  0  0  0  0  0  0  0  0  0  0
    4.1965   -2.6425   -0.6081 H   0  0  0  0  0  0  0  0  0  0  0  0
    3.2380    1.0719    4.2669 H   0  0  0  0  0  0  0  0  0  0  0  0
   -2.6369    3.7724    3.8506 H   0  0  0  0  0  0  0  0  0  0  0  0
   -3.3710    2.1959    3.9409 H   0  0  0  0  0  0  0  0  0  0  0  0
   -3.7843    3.6842    5.9866 H   0  0  0  0  0  0  0  0  0  0  0  0
   -3.1404    2.1402    6.4014 H   0  0  0  0  0  0  0  0  0  0  0  0
   -1.4254    4.6429    6.1957 H   0  0  0  0  0  0  0  0  0  0  0  0
   -1.9549    3.8953    7.6979 H   0  0  0  0  0  0  0  0  0  0  0  0
   -0.5469    1.9785    7.2914 H   0  0  0  0  0  0  0  0  0  0  0  0
    0.4276    3.3632    6.8507 H   0  0  0  0  0  0  0  0  0  0  0  0
    2.5044   -0.4457    0.8305 H   0  0  0  0  0  0  0  0  0  0  0  0
  1  2  1  0
  1 25  1  0
  1 26  1  0
  1 27  1  0
  2 13  1  0
  2  3  2  0
  3  4  1  0
  4  5  1  0
  4 11  1  0
  5 10  1  0
  5  6  2  0
  6  7  1  0
  6 28  1  0
  7  8  2  0
  7 29  1  0
  8  9  1  0
  8 30  1  0
  9 10  2  0
  9 31  1  0
 10 32  1  0
 11 12  1  0
 11 13  2  0
 12 42  1  0
 13 14  1  0
 14 15  2  3
 14 33  1  0
 15 16  1  0
 16 20  1  0
 16 17  2  0
 17 18  1  0
 18 24  1  0
 18 19  2  0
 19 20  1  0
 19 21  1  0
 21 22  1  0
 21 34  1  0
 21 35  1  0
 22 23  1  0
 22 36  1  0
 22 37  1  0
 23 24  1  0
 23 38  1  0
 23 39  1  0
 24 40  1  0
 24 41  1  0
M  END
>  <i_m_ct_stereo_status>  (95) 
1

>  <s_m_source_file>  (95) 
/var/tmp/pbs.5076255.sched01/tmp6mrmgolx/06cp14zw5.sdf

>  <i_m_source_file_index>  (95) 
41

>  <i_lp_mmshare_version>  (95) 
48012

>  <i_f3d_flags>  (95) 
0

>  <s_epik_input>  (95) 
W2NIXTFbY0hdW2NIXVtjSF1bY0hdYzEtbihbbkhdYzJbQ0gzXSljKD1PKWMyL1tDSF09Ti9jKG4zKXNjKGMzNClbQ0gyXVtDSDJdW0NIMl1bQ0gyXTQ=

>  <s_epik_cmdline>  (95) 
J2VwaWtfcHl0aG9uJywgJy1waHQnLCAnMi4wJywgJy1waCcsICc3LjAnLCAnLXRuJywgJzgnLCAnLW1hJywgJzIwMCcsICctaW1hZScsICc8aW5maWxlLm1hZT4nLCAnLW9tYWUnLCAnPG91dGZpbGUubWFlPic=

>  <r_epik_Ionization_Penalty>  (95) 
2.31806

>  <r_epik_Ionization_Penalty_Charging>  (95) 
0

>  <r_epik_Ionization_Penalty_Neutral>  (95) 
2.31806

>  <r_epik_State_Penalty>  (95) 
2.47146

>  <r_epik_Charging_Adjusted_Penalty>  (95) 
2.47146

>  <i_epik_Tot_Q>  (95) 
0

>  <i_epik_Tot_abs_Q>  (95) 
0

>  <s_epik_Chemistry_Notes>  (95) 
This compound has an imine and may undergo hydrolysis.

>  <s_lp_Force_Field>  (95) 
OPLS3e

>  <r_lp_Energy>  (95) 
26.4781

>  <b_lp_Chiralities_Consistent>  (95) 
1

>  <s_lp_Variant>  (95) 
15:0-3

>  <s_i_glide_gridfile>  (95) 
pfpi4k_grid

>  <i_i_glide_lignum>  (95) 
41

>  <i_i_glide_rotatable_bonds>  (95) 
4

>  <r_i_docking_score>  (95) 
-3.2483

>  <r_i_glide_ligand_efficiency>  (95) 
-0.135346

>  <r_i_glide_ligand_efficiency_sa>  (95) 
-0.390404

>  <r_i_glide_ligand_efficiency_ln>  (95) 
-0.777466

>  <r_i_glide_gscore>  (95) 
-3.2483

>  <r_i_glide_lipo>  (95) 
-0.626811

>  <r_i_glide_hbond>  (95) 
0

>  <r_i_glide_metal>  (95) 
-0

>  <r_i_glide_rewards>  (95) 
-1.78409

>  <r_i_glide_evdw>  (95) 
-22.4602

>  <r_i_glide_ecoul>  (95) 
-1.38711

>  <r_i_glide_erotb>  (95) 
0.495363

>  <r_i_glide_esite>  (95) 
-0.00168418

>  <r_i_glide_emodel>  (95) 
-33.4649

>  <r_i_glide_energy>  (95) 
-23.8473

>  <r_i_glide_einternal>  (95) 
3.01544

>  <r_i_glide_intrahb_reward>  (95) 
-0.5

>  <i_i_glide_confnum>  (95) 
1

>  <i_i_glide_posenum>  (95) 
25

>  <r_i_glide_eff_state_penalty>  (95) 
0

>  <ligand_id>  (95) 
15

>  <original_smiles>  (95) 
Cc1[nH]n(-c2ccccc2)c(=O)c1C=Nc1nc2c(s1)CCCC2

>  <smiles>  (95) 
[H]Oc1c(C([H])=Nc2nc3c(s2)C([H])([H])C([H])([H])C([H])([H])C3([H])[H])c(C([H])([H])[H])nn1-c1c([H])c([H])c([H])c([H])c1[H]

$$$$
15:2:1
     RDKit          3D

 42 45  0  0  1  0  0  0  0  0999 V2000
    5.8015   -3.0617    2.4002 C   0  0  0  0  0  0  0  0  0  0  0  0
    4.8144   -3.2171    1.2827 C   0  0  0  0  0  0  0  0  0  0  0  0
    4.9989   -2.4867    0.1953 N   0  0  0  0  0  0  0  0  0  0  0  0
    3.9970   -2.8218   -0.6443 N   0  0  0  0  0  0  0  0  0  0  0  0
    3.8975   -2.2112   -1.9086 C   0  0  0  0  0  0  0  0  0  0  0  0
    3.4706   -2.9451   -3.0291 C   0  0  0  0  0  0  0  0  0  0  0  0
    3.3721   -2.3304   -4.2786 C   0  0  0  0  0  0  0  0  0  0  0  0
    3.6928   -0.9716   -4.4262 C   0  0  0  0  0  0  0  0  0  0  0  0
    4.1198   -0.2348   -3.3101 C   0  0  0  0  0  0  0  0  0  0  0  0
    4.2332   -0.8530   -2.0543 C   0  0  0  0  0  0  0  0  0  0  0  0
    3.1754   -3.7618   -0.0558 C   0  0  0  0  0  0  0  0  0  0  0  0
    2.0697   -4.2545   -0.6860 O   0  0  0  0  0  0  0  0  0  0  0  0
    3.6636   -4.0556    1.1857 C   0  0  0  0  0  0  0  0  0  0  0  0
    3.1247   -5.0032    2.1716 C   0  0  0  0  0  0  0  0  0  0  0  0
    2.0289   -5.6355    2.0550 N   0  0  0  0  0  0  0  0  0  0  0  0
    1.6420   -6.4313    3.0815 C   0  0  0  0  0  0  0  0  0  0  0  0
    2.0035   -6.3814    4.3740 N   0  0  0  0  0  0  0  0  0  0  0  0
    1.4152   -7.3833    5.1323 C   0  0  0  0  0  0  0  0  0  0  0  0
    0.5669   -8.1929    4.4284 C   0  0  0  0  0  0  0  0  0  0  0  0
    0.4782   -7.7237    2.7601 S   0  0  0  0  0  0  0  0  0  0  0  0
   -0.1858   -9.3428    5.0128 C   0  0  0  0  0  0  0  0  0  0  0  0
    0.3917   -9.7379    6.3917 C   0  0  0  0  0  0  0  0  0  0  0  0
    0.7342   -8.5092    7.2685 C   0  0  0  0  0  0  0  0  0  0  0  0
    1.7310   -7.5560    6.5799 C   0  0  0  0  0  0  0  0  0  0  0  0
    5.5630   -3.6949    3.2540 H   0  0  0  0  0  0  0  0  0  0  0  0
    5.8350   -2.0278    2.7502 H   0  0  0  0  0  0  0  0  0  0  0  0
    6.8012   -3.3298    2.0601 H   0  0  0  0  0  0  0  0  0  0  0  0
    3.2125   -3.9823   -2.9563 H   0  0  0  0  0  0  0  0  0  0  0  0
    3.0263   -2.9251   -5.1096 H   0  0  0  0  0  0  0  0  0  0  0  0
    3.5944   -0.4935   -5.3880 H   0  0  0  0  0  0  0  0  0  0  0  0
    4.3501    0.8167   -3.4080 H   0  0  0  0  0  0  0  0  0  0  0  0
    4.5572   -0.2757   -1.1995 H   0  0  0  0  0  0  0  0  0  0  0  0
    3.7572   -5.1373    3.0592 H   0  0  0  0  0  0  0  0  0  0  0  0
   -1.2245   -9.0458    5.1340 H   0  0  0  0  0  0  0  0  0  0  0  0
   -0.1758  -10.2039    4.3418 H   0  0  0  0  0  0  0  0  0  0  0  0
   -0.2961  -10.4048    6.9138 H   0  0  0  0  0  0  0  0  0  0  0  0
    1.3106  -10.3059    6.2396 H   0  0  0  0  0  0  0  0  0  0  0  0
   -0.1853   -7.9633    7.4673 H   0  0  0  0  0  0  0  0  0  0  0  0
    1.1288   -8.8178    8.2397 H   0  0  0  0  0  0  0  0  0  0  0  0
    2.7404   -7.9553    6.6741 H   0  0  0  0  0  0  0  0  0  0  0  0
    1.7311   -6.5878    7.0764 H   0  0  0  0  0  0  0  0  0  0  0  0
    2.2997   -4.4269   -1.5866 H   0  0  0  0  0  0  0  0  0  0  0  0
  1  2  1  0
  1 25  1  0
  1 26  1  0
  1 27  1  0
  2 13  1  0
  2  3  2  0
  3  4  1  0
  4  5  1  0
  4 11  1  0
  5 10  1  0
  5  6  2  0
  6  7  1  0
  6 28  1  0
  7  8  2  0
  7 29  1  0
  8  9  1  0
  8 30  1  0
  9 10  2  0
  9 31  1  0
 10 32  1  0
 11 12  1  0
 11 13  2  0
 12 42  1  0
 13 14  1  0
 14 15  2  3
 14 33  1  0
 15 16  1  0
 16 20  1  0
 16 17  2  0
 17 18  1  0
 18 24  1  0
 18 19  2  0
 19 20  1  0
 19 21  1  0
 21 22  1  0
 21 34  1  0
 21 35  1  0
 22 23  1  0
 22 36  1  0
 22 37  1  0
 23 24  1  0
 23 38  1  0
 23 39  1  0
 24 40  1  0
 24 41  1  0
M  END
>  <i_m_ct_stereo_status>  (96) 
1

>  <s_m_source_file>  (96) 
/var/tmp/pbs.5076255.sched01/tmp6mrmgolx/06cp14zw5.sdf

>  <i_m_source_file_index>  (96) 
41

>  <i_lp_mmshare_version>  (96) 
48012

>  <i_f3d_flags>  (96) 
0

>  <s_epik_input>  (96) 
W2NIXTFbY0hdW2NIXVtjSF1bY0hdYzEtbihbbkhdYzJbQ0gzXSljKD1PKWMyL1tDSF09Ti9jKG4zKXNjKGMzNClbQ0gyXVtDSDJdW0NIMl1bQ0gyXTQ=

>  <s_epik_cmdline>  (96) 
J2VwaWtfcHl0aG9uJywgJy1waHQnLCAnMi4wJywgJy1waCcsICc3LjAnLCAnLXRuJywgJzgnLCAnLW1hJywgJzIwMCcsICctaW1hZScsICc8aW5maWxlLm1hZT4nLCAnLW9tYWUnLCAnPG91dGZpbGUubWFlPic=

>  <r_epik_Ionization_Penalty>  (96) 
2.31806

>  <r_epik_Ionization_Penalty_Charging>  (96) 
0

>  <r_epik_Ionization_Penalty_Neutral>  (96) 
2.31806

>  <r_epik_State_Penalty>  (96) 
2.47146

>  <r_epik_Charging_Adjusted_Penalty>  (96) 
2.47146

>  <i_epik_Tot_Q>  (96) 
0

>  <i_epik_Tot_abs_Q>  (96) 
0

>  <s_epik_Chemistry_Notes>  (96) 
This compound has an imine and may undergo hydrolysis.

>  <s_lp_Force_Field>  (96) 
OPLS3e

>  <r_lp_Energy>  (96) 
26.4781

>  <b_lp_Chiralities_Consistent>  (96) 
1

>  <s_lp_Variant>  (96) 
15:0-3

>  <s_i_glide_gridfile>  (96) 
pfpi4k_grid

>  <i_i_glide_lignum>  (96) 
41

>  <i_i_glide_rotatable_bonds>  (96) 
4

>  <r_i_docking_score>  (96) 
-3.19336

>  <r_i_glide_ligand_efficiency>  (96) 
-0.133057

>  <r_i_glide_ligand_efficiency_sa>  (96) 
-0.383802

>  <r_i_glide_ligand_efficiency_ln>  (96) 
-0.764317

>  <r_i_glide_gscore>  (96) 
-3.19336

>  <r_i_glide_lipo>  (96) 
-0.323483

>  <r_i_glide_hbond>  (96) 
-0.198927

>  <r_i_glide_metal>  (96) 
-0

>  <r_i_glide_rewards>  (96) 
-1.10228

>  <r_i_glide_evdw>  (96) 
-25.4655

>  <r_i_glide_ecoul>  (96) 
-5.21798

>  <r_i_glide_erotb>  (96) 
0.495363

>  <r_i_glide_esite>  (96) 
-0.00806242

>  <r_i_glide_emodel>  (96) 
-35.1932

>  <r_i_glide_energy>  (96) 
-30.6834

>  <r_i_glide_einternal>  (96) 
3.2101

>  <r_i_glide_intrahb_reward>  (96) 
-0

>  <i_i_glide_confnum>  (96) 
5

>  <i_i_glide_posenum>  (96) 
13

>  <r_i_glide_eff_state_penalty>  (96) 
0

>  <ligand_id>  (96) 
15

>  <original_smiles>  (96) 
Cc1[nH]n(-c2ccccc2)c(=O)c1C=Nc1nc2c(s1)CCCC2

>  <smiles>  (96) 
[H]Oc1c(C([H])=Nc2nc3c(s2)C([H])([H])C([H])([H])C([H])([H])C3([H])[H])c(C([H])([H])[H])nn1-c1c([H])c([H])c([H])c([H])c1[H]

$$$$
15:2:2
     RDKit          3D

 42 45  0  0  1  0  0  0  0  0999 V2000
    4.9676   -2.2576    3.2659 C   0  0  0  0  0  0  0  0  0  0  0  0
    4.2939   -2.8194    2.0471 C   0  0  0  0  0  0  0  0  0  0  0  0
    4.5589   -2.2547    0.8787 N   0  0  0  0  0  0  0  0  0  0  0  0
    3.8544   -2.9619   -0.0261 N   0  0  0  0  0  0  0  0  0  0  0  0
    3.9067   -2.6157   -1.3779 C   0  0  0  0  0  0  0  0  0  0  0  0
    4.4401   -3.5151   -2.3175 C   0  0  0  0  0  0  0  0  0  0  0  0
    4.4813   -3.1572   -3.6756 C   0  0  0  0  0  0  0  0  0  0  0  0
    4.0020   -1.8948   -4.0842 C   0  0  0  0  0  0  0  0  0  0  0  0
    3.4750   -0.9966   -3.1445 C   0  0  0  0  0  0  0  0  0  0  0  0
    3.4318   -1.3583   -1.7892 C   0  0  0  0  0  0  0  0  0  0  0  0
    3.1324   -3.9610    0.5885 C   0  0  0  0  0  0  0  0  0  0  0  0
    2.3092   -4.7896   -0.1168 O   0  0  0  0  0  0  0  0  0  0  0  0
    3.3853   -3.9147    1.9269 C   0  0  0  0  0  0  0  0  0  0  0  0
    2.8532   -4.7860    2.9827 C   0  0  0  0  0  0  0  0  0  0  0  0
    2.1429   -5.8250    2.7981 N   0  0  0  0  0  0  0  0  0  0  0  0
    1.7335   -6.5295    3.8816 C   0  0  0  0  0  0  0  0  0  0  0  0
    1.8649   -6.2363    5.1839 N   0  0  0  0  0  0  0  0  0  0  0  0
    1.3219   -7.2021    6.0160 C   0  0  0  0  0  0  0  0  0  0  0  0
    0.7481   -8.2517    5.3574 C   0  0  0  0  0  0  0  0  0  0  0  0
    0.8902   -8.0664    3.6332 S   0  0  0  0  0  0  0  0  0  0  0  0
    0.0972   -9.4113    6.0377 C   0  0  0  0  0  0  0  0  0  0  0  0
    0.4848   -9.4565    7.5325 C   0  0  0  0  0  0  0  0  0  0  0  0
    0.4709   -8.0639    8.2034 C   0  0  0  0  0  0  0  0  0  0  0  0
    1.4076   -7.0680    7.4981 C   0  0  0  0  0  0  0  0  0  0  0  0
    4.6876   -2.7807    4.1812 H   0  0  0  0  0  0  0  0  0  0  0  0
    4.7262   -1.2018    3.4007 H   0  0  0  0  0  0  0  0  0  0  0  0
    6.0500   -2.3293    3.1667 H   0  0  0  0  0  0  0  0  0  0  0  0
    4.8037   -4.4841   -1.9966 H   0  0  0  0  0  0  0  0  0  0  0  0
    4.8918   -3.8565   -4.3916 H   0  0  0  0  0  0  0  0  0  0  0  0
    4.0311   -1.5896   -5.1173 H   0  0  0  0  0  0  0  0  0  0  0  0
    3.1025   -0.0320   -3.4659 H   0  0  0  0  0  0  0  0  0  0  0  0
    3.0148   -0.6772   -1.0602 H   0  0  0  0  0  0  0  0  0  0  0  0
    3.1186   -4.4618    3.9937 H   0  0  0  0  0  0  0  0  0  0  0  0
   -0.9833   -9.3027    5.9574 H   0  0  0  0  0  0  0  0  0  0  0  0
    0.3528  -10.3540    5.5519 H   0  0  0  0  0  0  0  0  0  0  0  0
   -0.1656  -10.1486    8.0665 H   0  0  0  0  0  0  0  0  0  0  0  0
    1.4963   -9.8572    7.6210 H   0  0  0  0  0  0  0  0  0  0  0  0
   -0.5459   -7.6722    8.1585 H   0  0  0  0  0  0  0  0  0  0  0  0
    0.7355   -8.1296    9.2602 H   0  0  0  0  0  0  0  0  0  0  0  0
    2.4372   -7.2464    7.8055 H   0  0  0  0  0  0  0  0  0  0  0  0
    1.1698   -6.0472    7.7919 H   0  0  0  0  0  0  0  0  0  0  0  0
    2.6046   -4.8046   -1.0181 H   0  0  0  0  0  0  0  0  0  0  0  0
  1  2  1  0
  1 25  1  0
  1 26  1  0
  1 27  1  0
  2 13  1  0
  2  3  2  0
  3  4  1  0
  4  5  1  0
  4 11  1  0
  5 10  1  0
  5  6  2  0
  6  7  1  0
  6 28  1  0
  7  8  2  0
  7 29  1  0
  8  9  1  0
  8 30  1  0
  9 10  2  0
  9 31  1  0
 10 32  1  0
 11 12  1  0
 11 13  2  0
 12 42  1  0
 13 14  1  0
 14 15  2  3
 14 33  1  0
 15 16  1  0
 16 20  1  0
 16 17  2  0
 17 18  1  0
 18 24  1  0
 18 19  2  0
 19 20  1  0
 19 21  1  0
 21 22  1  0
 21 34  1  0
 21 35  1  0
 22 23  1  0
 22 36  1  0
 22 37  1  0
 23 24  1  0
 23 38  1  0
 23 39  1  0
 24 40  1  0
 24 41  1  0
M  END
>  <i_m_ct_stereo_status>  (97) 
1

>  <s_m_source_file>  (97) 
/var/tmp/pbs.5076255.sched01/tmp6mrmgolx/06cp14zw5.sdf

>  <i_m_source_file_index>  (97) 
41

>  <i_lp_mmshare_version>  (97) 
48012

>  <i_f3d_flags>  (97) 
0

>  <s_epik_input>  (97) 
W2NIXTFbY0hdW2NIXVtjSF1bY0hdYzEtbihbbkhdYzJbQ0gzXSljKD1PKWMyL1tDSF09Ti9jKG4zKXNjKGMzNClbQ0gyXVtDSDJdW0NIMl1bQ0gyXTQ=

>  <s_epik_cmdline>  (97) 
J2VwaWtfcHl0aG9uJywgJy1waHQnLCAnMi4wJywgJy1waCcsICc3LjAnLCAnLXRuJywgJzgnLCAnLW1hJywgJzIwMCcsICctaW1hZScsICc8aW5maWxlLm1hZT4nLCAnLW9tYWUnLCAnPG91dGZpbGUubWFlPic=

>  <r_epik_Ionization_Penalty>  (97) 
2.31806

>  <r_epik_Ionization_Penalty_Charging>  (97) 
0

>  <r_epik_Ionization_Penalty_Neutral>  (97) 
2.31806

>  <r_epik_State_Penalty>  (97) 
2.47146

>  <r_epik_Charging_Adjusted_Penalty>  (97) 
2.47146

>  <i_epik_Tot_Q>  (97) 
0

>  <i_epik_Tot_abs_Q>  (97) 
0

>  <s_epik_Chemistry_Notes>  (97) 
This compound has an imine and may undergo hydrolysis.

>  <s_lp_Force_Field>  (97) 
OPLS3e

>  <r_lp_Energy>  (97) 
26.4781

>  <b_lp_Chiralities_Consistent>  (97) 
1

>  <s_lp_Variant>  (97) 
15:0-3

>  <s_i_glide_gridfile>  (97) 
pfpi4k_grid

>  <i_i_glide_lignum>  (97) 
41

>  <i_i_glide_rotatable_bonds>  (97) 
4

>  <r_i_docking_score>  (97) 
-2.84896

>  <r_i_glide_ligand_efficiency>  (97) 
-0.118707

>  <r_i_glide_ligand_efficiency_sa>  (97) 
-0.34241

>  <r_i_glide_ligand_efficiency_ln>  (97) 
-0.681888

>  <r_i_glide_gscore>  (97) 
-2.84896

>  <r_i_glide_lipo>  (97) 
-0.33041

>  <r_i_glide_hbond>  (97) 
-0.232501

>  <r_i_glide_metal>  (97) 
-0

>  <r_i_glide_rewards>  (97) 
-1.10163

>  <r_i_glide_evdw>  (97) 
-24.6767

>  <r_i_glide_ecoul>  (97) 
-2.92628

>  <r_i_glide_erotb>  (97) 
0.495363

>  <r_i_glide_esite>  (97) 
-0.00700601

>  <r_i_glide_emodel>  (97) 
-31.3621

>  <r_i_glide_energy>  (97) 
-27.603

>  <r_i_glide_einternal>  (97) 
3.57077

>  <r_i_glide_intrahb_reward>  (97) 
-0

>  <i_i_glide_confnum>  (97) 
5

>  <i_i_glide_posenum>  (97) 
22

>  <r_i_glide_eff_state_penalty>  (97) 
0

>  <ligand_id>  (97) 
15

>  <original_smiles>  (97) 
Cc1[nH]n(-c2ccccc2)c(=O)c1C=Nc1nc2c(s1)CCCC2

>  <smiles>  (97) 
[H]Oc1c(C([H])=Nc2nc3c(s2)C([H])([H])C([H])([H])C([H])([H])C3([H])[H])c(C([H])([H])[H])nn1-c1c([H])c([H])c([H])c([H])c1[H]

$$$$
15:3:0
     RDKit          3D

 42 45  0  0  1  0  0  0  0  0999 V2000
    6.1961   -4.3432    0.0809 C   0  0  0  0  0  0  0  0  0  0  0  0
    5.2852   -4.4730    1.2671 C   0  0  0  0  0  0  0  0  0  0  0  0
    5.8254   -4.4046    2.4745 N   0  0  0  0  0  0  0  0  0  0  0  0
    4.7995   -4.5067    3.3432 N   0  0  0  0  0  0  0  0  0  0  0  0
    5.0260   -4.4568    4.7340 C   0  0  0  0  0  0  0  0  0  0  0  0
    6.1527   -5.1024    5.2867 C   0  0  0  0  0  0  0  0  0  0  0  0
    6.3894   -5.0431    6.6735 C   0  0  0  0  0  0  0  0  0  0  0  0
    5.4985   -4.3396    7.5090 C   0  0  0  0  0  0  0  0  0  0  0  0
    4.3722   -3.6969    6.9611 C   0  0  0  0  0  0  0  0  0  0  0  0
    4.1395   -3.7494    5.5757 C   0  0  0  0  0  0  0  0  0  0  0  0
    3.6156   -4.6576    2.6556 C   0  0  0  0  0  0  0  0  0  0  0  0
    2.4350   -4.7667    3.3215 O   0  0  0  0  0  0  0  0  0  0  0  0
    3.8744   -4.6849    1.3130 C   0  0  0  0  0  0  0  0  0  0  0  0
    2.9459   -4.8552    0.1697 C   0  0  0  0  0  0  0  0  0  0  0  0
    1.8547   -5.5090    0.0816 N   0  0  0  0  0  0  0  0  0  0  0  0
    1.4095   -6.3373    1.0496 C   0  0  0  0  0  0  0  0  0  0  0  0
    0.1887   -6.2917    1.5884 N   0  0  0  0  0  0  0  0  0  0  0  0
   -0.0061   -7.2522    2.5809 C   0  0  0  0  0  0  0  0  0  0  0  0
    1.0699   -8.0701    2.7785 C   0  0  0  0  0  0  0  0  0  0  0  0
    2.3698   -7.6960    1.6840 S   0  0  0  0  0  0  0  0  0  0  0  0
    1.1142   -9.1701    3.7825 C   0  0  0  0  0  0  0  0  0  0  0  0
   -0.0375   -9.0475    4.8030 C   0  0  0  0  0  0  0  0  0  0  0  0
   -1.3756   -8.6555    4.1335 C   0  0  0  0  0  0  0  0  0  0  0  0
   -1.2889   -7.3374    3.3484 C   0  0  0  0  0  0  0  0  0  0  0  0
    5.6630   -4.4745   -0.8618 H   0  0  0  0  0  0  0  0  0  0  0  0
    6.9965   -5.0820    0.1209 H   0  0  0  0  0  0  0  0  0  0  0  0
    6.6599   -3.3576    0.0621 H   0  0  0  0  0  0  0  0  0  0  0  0
    6.8326   -5.6453    4.6428 H   0  0  0  0  0  0  0  0  0  0  0  0
    7.2607   -5.5336    7.0884 H   0  0  0  0  0  0  0  0  0  0  0  0
    5.6822   -4.2870    8.5722 H   0  0  0  0  0  0  0  0  0  0  0  0
    3.6885   -3.1499    7.5944 H   0  0  0  0  0  0  0  0  0  0  0  0
    3.2864   -3.2319    5.1616 H   0  0  0  0  0  0  0  0  0  0  0  0
    3.2707   -4.3303   -0.7291 H   0  0  0  0  0  0  0  0  0  0  0  0
    1.0244  -10.1200    3.2563 H   0  0  0  0  0  0  0  0  0  0  0  0
    2.0738   -9.1900    4.3015 H   0  0  0  0  0  0  0  0  0  0  0  0
   -0.1494   -9.9782    5.3611 H   0  0  0  0  0  0  0  0  0  0  0  0
    0.2143   -8.2805    5.5380 H   0  0  0  0  0  0  0  0  0  0  0  0
   -1.6461   -9.4545    3.4411 H   0  0  0  0  0  0  0  0  0  0  0  0
   -2.1774   -8.6145    4.8696 H   0  0  0  0  0  0  0  0  0  0  0  0
   -1.3499   -6.5038    4.0494 H   0  0  0  0  0  0  0  0  0  0  0  0
   -2.1440   -7.2480    2.6779 H   0  0  0  0  0  0  0  0  0  0  0  0
    2.6406   -4.9009    4.2333 H   0  0  0  0  0  0  0  0  0  0  0  0
  1  2  1  0
  1 25  1  0
  1 26  1  0
  1 27  1  0
  2 13  1  0
  2  3  2  0
  3  4  1  0
  4  5  1  0
  4 11  1  0
  5 10  1  0
  5  6  2  0
  6  7  1  0
  6 28  1  0
  7  8  2  0
  7 29  1  0
  8  9  1  0
  8 30  1  0
  9 10  2  0
  9 31  1  0
 10 32  1  0
 11 12  1  0
 11 13  2  0
 12 42  1  0
 13 14  1  0
 14 15  2  3
 14 33  1  0
 15 16  1  0
 16 20  1  0
 16 17  2  0
 17 18  1  0
 18 24  1  0
 18 19  2  0
 19 20  1  0
 19 21  1  0
 21 22  1  0
 21 34  1  0
 21 35  1  0
 22 23  1  0
 22 36  1  0
 22 37  1  0
 23 24  1  0
 23 38  1  0
 23 39  1  0
 24 40  1  0
 24 41  1  0
M  END
>  <i_m_ct_stereo_status>  (98) 
1

>  <s_m_source_file>  (98) 
/var/tmp/pbs.5076255.sched01/tmp6mrmgolx/06cp14zw5.sdf

>  <i_m_source_file_index>  (98) 
42

>  <i_lp_mmshare_version>  (98) 
48012

>  <i_f3d_flags>  (98) 
0

>  <s_epik_input>  (98) 
W2NIXTFbY0hdW2NIXVtjSF1bY0hdYzEtbihbbkhdYzJbQ0gzXSljKD1PKWMyL1tDSF09Ti9jKG4zKXNjKGMzNClbQ0gyXVtDSDJdW0NIMl1bQ0gyXTQ=

>  <s_epik_cmdline>  (98) 
J2VwaWtfcHl0aG9uJywgJy1waHQnLCAnMi4wJywgJy1waCcsICc3LjAnLCAnLXRuJywgJzgnLCAnLW1hJywgJzIwMCcsICctaW1hZScsICc8aW5maWxlLm1hZT4nLCAnLW9tYWUnLCAnPG91dGZpbGUubWFlPic=

>  <r_epik_Ionization_Penalty>  (98) 
2.31806

>  <r_epik_Ionization_Penalty_Charging>  (98) 
0

>  <r_epik_Ionization_Penalty_Neutral>  (98) 
2.31806

>  <r_epik_State_Penalty>  (98) 
2.47146

>  <r_epik_Charging_Adjusted_Penalty>  (98) 
2.47146

>  <i_epik_Tot_Q>  (98) 
0

>  <i_epik_Tot_abs_Q>  (98) 
0

>  <s_epik_Chemistry_Notes>  (98) 
This compound has an imine and may undergo hydrolysis.

>  <s_lp_Force_Field>  (98) 
OPLS3e

>  <r_lp_Energy>  (98) 
32.7291

>  <b_lp_Chiralities_Consistent>  (98) 
1

>  <s_lp_Variant>  (98) 
15:0-4

>  <s_i_glide_gridfile>  (98) 
pfpi4k_grid

>  <i_i_glide_lignum>  (98) 
42

>  <i_i_glide_rotatable_bonds>  (98) 
4

>  <r_i_docking_score>  (98) 
-2.72406

>  <r_i_glide_ligand_efficiency>  (98) 
-0.113502

>  <r_i_glide_ligand_efficiency_sa>  (98) 
-0.327398

>  <r_i_glide_ligand_efficiency_ln>  (98) 
-0.651992

>  <r_i_glide_gscore>  (98) 
-2.72406

>  <r_i_glide_lipo>  (98) 
-0.140021

>  <r_i_glide_hbond>  (98) 
-0.324027

>  <r_i_glide_metal>  (98) 
-0

>  <r_i_glide_rewards>  (98) 
-1.11186

>  <r_i_glide_evdw>  (98) 
-19.5056

>  <r_i_glide_ecoul>  (98) 
-4.21853

>  <r_i_glide_erotb>  (98) 
0.495363

>  <r_i_glide_esite>  (98) 
-0.0354506

>  <r_i_glide_emodel>  (98) 
-28.3479

>  <r_i_glide_energy>  (98) 
-23.7241

>  <r_i_glide_einternal>  (98) 
0.302951

>  <r_i_glide_intrahb_reward>  (98) 
-0

>  <i_i_glide_confnum>  (98) 
4

>  <i_i_glide_posenum>  (98) 
24

>  <r_i_glide_eff_state_penalty>  (98) 
0

>  <ligand_id>  (98) 
15

>  <original_smiles>  (98) 
Cc1[nH]n(-c2ccccc2)c(=O)c1C=Nc1nc2c(s1)CCCC2

>  <smiles>  (98) 
[H]Oc1c(C([H])=Nc2nc3c(s2)C([H])([H])C([H])([H])C([H])([H])C3([H])[H])c(C([H])([H])[H])nn1-c1c([H])c([H])c([H])c([H])c1[H]

$$$$
15:3:1
     RDKit          3D

 42 45  0  0  1  0  0  0  0  0999 V2000
    5.3198   -4.7569   -0.2762 C   0  0  0  0  0  0  0  0  0  0  0  0
    4.7216   -4.9077    1.0844 C   0  0  0  0  0  0  0  0  0  0  0  0
    5.5227   -4.7591    2.1312 N   0  0  0  0  0  0  0  0  0  0  0  0
    4.7324   -4.9150    3.2106 N   0  0  0  0  0  0  0  0  0  0  0  0
    5.2656   -4.8036    4.5102 C   0  0  0  0  0  0  0  0  0  0  0  0
    6.4697   -5.4630    4.8300 C   0  0  0  0  0  0  0  0  0  0  0  0
    7.0200   -5.3449    6.1200 C   0  0  0  0  0  0  0  0  0  0  0  0
    6.3647   -4.5649    7.0928 C   0  0  0  0  0  0  0  0  0  0  0  0
    5.1624   -3.9049    6.7774 C   0  0  0  0  0  0  0  0  0  0  0  0
    4.6150   -4.0206    5.4863 C   0  0  0  0  0  0  0  0  0  0  0  0
    3.4353   -5.1794    2.8159 C   0  0  0  0  0  0  0  0  0  0  0  0
    2.4488   -5.3311    3.7396 O   0  0  0  0  0  0  0  0  0  0  0  0
    3.3812   -5.2240    1.4498 C   0  0  0  0  0  0  0  0  0  0  0  0
    2.2308   -5.4626    0.5414 C   0  0  0  0  0  0  0  0  0  0  0  0
    1.2352   -6.2537    0.6564 N   0  0  0  0  0  0  0  0  0  0  0  0
    1.1777   -7.1753    1.6493 C   0  0  0  0  0  0  0  0  0  0  0  0
    0.2847   -7.2041    2.6450 N   0  0  0  0  0  0  0  0  0  0  0  0
    0.4987   -8.2635    3.5304 C   0  0  0  0  0  0  0  0  0  0  0  0
    1.5074   -9.1131    3.1643 C   0  0  0  0  0  0  0  0  0  0  0  0
    2.2886   -8.5696    1.7077 S   0  0  0  0  0  0  0  0  0  0  0  0
    1.8903  -10.3481    3.9152 C   0  0  0  0  0  0  0  0  0  0  0  0
    0.8060  -10.7501    4.9365 C   0  0  0  0  0  0  0  0  0  0  0  0
    0.2054   -9.5405    5.6905 C   0  0  0  0  0  0  0  0  0  0  0  0
   -0.3534   -8.4494    4.7487 C   0  0  0  0  0  0  0  0  0  0  0  0
    4.6015   -4.9578   -1.0750 H   0  0  0  0  0  0  0  0  0  0  0  0
    6.1471   -5.4566   -0.3755 H   0  0  0  0  0  0  0  0  0  0  0  0
    5.7108   -3.7492   -0.4264 H   0  0  0  0  0  0  0  0  0  0  0  0
    6.9708   -6.0586    4.0820 H   0  0  0  0  0  0  0  0  0  0  0  0
    7.9478   -5.8496    6.3557 H   0  0  0  0  0  0  0  0  0  0  0  0
    6.7893   -4.4701    8.0820 H   0  0  0  0  0  0  0  0  0  0  0  0
    4.6596   -3.3013    7.5209 H   0  0  0  0  0  0  0  0  0  0  0  0
    3.7024   -3.4984    5.2436 H   0  0  0  0  0  0  0  0  0  0  0  0
    2.2538   -4.8374   -0.3557 H   0  0  0  0  0  0  0  0  0  0  0  0
    2.0748  -11.1809    3.2346 H   0  0  0  0  0  0  0  0  0  0  0  0
    2.8259  -10.1762    4.4462 H   0  0  0  0  0  0  0  0  0  0  0  0
    0.0013  -11.2594    4.4059 H   0  0  0  0  0  0  0  0  0  0  0  0
    1.2066  -11.4693    5.6500 H   0  0  0  0  0  0  0  0  0  0  0  0
   -0.5746   -9.8596    6.3875 H   0  0  0  0  0  0  0  0  0  0  0  0
    0.9987   -9.1138    6.3049 H   0  0  0  0  0  0  0  0  0  0  0  0
   -0.4476   -7.5115    5.2953 H   0  0  0  0  0  0  0  0  0  0  0  0
   -1.3575   -8.7270    4.4304 H   0  0  0  0  0  0  0  0  0  0  0  0
    2.8597   -5.3590    4.5900 H   0  0  0  0  0  0  0  0  0  0  0  0
  1  2  1  0
  1 25  1  0
  1 26  1  0
  1 27  1  0
  2 13  1  0
  2  3  2  0
  3  4  1  0
  4  5  1  0
  4 11  1  0
  5 10  1  0
  5  6  2  0
  6  7  1  0
  6 28  1  0
  7  8  2  0
  7 29  1  0
  8  9  1  0
  8 30  1  0
  9 10  2  0
  9 31  1  0
 10 32  1  0
 11 12  1  0
 11 13  2  0
 12 42  1  0
 13 14  1  0
 14 15  2  3
 14 33  1  0
 15 16  1  0
 16 20  1  0
 16 17  2  0
 17 18  1  0
 18 24  1  0
 18 19  2  0
 19 20  1  0
 19 21  1  0
 21 22  1  0
 21 34  1  0
 21 35  1  0
 22 23  1  0
 22 36  1  0
 22 37  1  0
 23 24  1  0
 23 38  1  0
 23 39  1  0
 24 40  1  0
 24 41  1  0
M  END
>  <i_m_ct_stereo_status>  (99) 
1

>  <s_m_source_file>  (99) 
/var/tmp/pbs.5076255.sched01/tmp6mrmgolx/06cp14zw5.sdf

>  <i_m_source_file_index>  (99) 
42

>  <i_lp_mmshare_version>  (99) 
48012

>  <i_f3d_flags>  (99) 
0

>  <s_epik_input>  (99) 
W2NIXTFbY0hdW2NIXVtjSF1bY0hdYzEtbihbbkhdYzJbQ0gzXSljKD1PKWMyL1tDSF09Ti9jKG4zKXNjKGMzNClbQ0gyXVtDSDJdW0NIMl1bQ0gyXTQ=

>  <s_epik_cmdline>  (99) 
J2VwaWtfcHl0aG9uJywgJy1waHQnLCAnMi4wJywgJy1waCcsICc3LjAnLCAnLXRuJywgJzgnLCAnLW1hJywgJzIwMCcsICctaW1hZScsICc8aW5maWxlLm1hZT4nLCAnLW9tYWUnLCAnPG91dGZpbGUubWFlPic=

>  <r_epik_Ionization_Penalty>  (99) 
2.31806

>  <r_epik_Ionization_Penalty_Charging>  (99) 
0

>  <r_epik_Ionization_Penalty_Neutral>  (99) 
2.31806

>  <r_epik_State_Penalty>  (99) 
2.47146

>  <r_epik_Charging_Adjusted_Penalty>  (99) 
2.47146

>  <i_epik_Tot_Q>  (99) 
0

>  <i_epik_Tot_abs_Q>  (99) 
0

>  <s_epik_Chemistry_Notes>  (99) 
This compound has an imine and may undergo hydrolysis.

>  <s_lp_Force_Field>  (99) 
OPLS3e

>  <r_lp_Energy>  (99) 
32.7291

>  <b_lp_Chiralities_Consistent>  (99) 
1

>  <s_lp_Variant>  (99) 
15:0-4

>  <s_i_glide_gridfile>  (99) 
pfpi4k_grid

>  <i_i_glide_lignum>  (99) 
42

>  <i_i_glide_rotatable_bonds>  (99) 
4

>  <r_i_docking_score>  (99) 
-2.53903

>  <r_i_glide_ligand_efficiency>  (99) 
-0.105793

>  <r_i_glide_ligand_efficiency_sa>  (99) 
-0.305159

>  <r_i_glide_ligand_efficiency_ln>  (99) 
-0.607705

>  <r_i_glide_gscore>  (99) 
-2.53903

>  <r_i_glide_lipo>  (99) 
-0.0957435

>  <r_i_glide_hbond>  (99) 
-0.14426

>  <r_i_glide_metal>  (99) 
-0

>  <r_i_glide_rewards>  (99) 
-1.10716

>  <r_i_glide_evdw>  (99) 
-22.1046

>  <r_i_glide_ecoul>  (99) 
-3.50861

>  <r_i_glide_erotb>  (99) 
0.495363

>  <r_i_glide_esite>  (99) 
-0.0557026

>  <r_i_glide_emodel>  (99) 
-29.3362

>  <r_i_glide_energy>  (99) 
-25.6132

>  <r_i_glide_einternal>  (99) 
1.46976

>  <r_i_glide_intrahb_reward>  (99) 
-0

>  <i_i_glide_confnum>  (99) 
6

>  <i_i_glide_posenum>  (99) 
26

>  <r_i_glide_eff_state_penalty>  (99) 
0

>  <ligand_id>  (99) 
15

>  <original_smiles>  (99) 
Cc1[nH]n(-c2ccccc2)c(=O)c1C=Nc1nc2c(s1)CCCC2

>  <smiles>  (99) 
[H]Oc1c(C([H])=Nc2nc3c(s2)C([H])([H])C([H])([H])C([H])([H])C3([H])[H])c(C([H])([H])[H])nn1-c1c([H])c([H])c([H])c([H])c1[H]

$$$$
15:3:2
     RDKit          3D

 42 45  0  0  1  0  0  0  0  0999 V2000
    4.6599   -2.3192    3.4715 C   0  0  0  0  0  0  0  0  0  0  0  0
    3.4883   -3.1794    3.8272 C   0  0  0  0  0  0  0  0  0  0  0  0
    3.1572   -3.2636    5.1123 N   0  0  0  0  0  0  0  0  0  0  0  0
    2.0572   -4.0520    5.1491 N   0  0  0  0  0  0  0  0  0  0  0  0
    1.4268   -4.3442    6.3790 C   0  0  0  0  0  0  0  0  0  0  0  0
    2.2021   -4.5610    7.5332 C   0  0  0  0  0  0  0  0  0  0  0  0
    1.5708   -4.8530    8.7571 C   0  0  0  0  0  0  0  0  0  0  0  0
    0.1629   -4.9367    8.8265 C   0  0  0  0  0  0  0  0  0  0  0  0
   -0.6152   -4.7322    7.6716 C   0  0  0  0  0  0  0  0  0  0  0  0
    0.0168   -4.4277    6.4534 C   0  0  0  0  0  0  0  0  0  0  0  0
    1.7273   -4.4642    3.8773 C   0  0  0  0  0  0  0  0  0  0  0  0
    0.6276   -5.2432    3.6978 O   0  0  0  0  0  0  0  0  0  0  0  0
    2.6387   -3.9721    2.9830 C   0  0  0  0  0  0  0  0  0  0  0  0
    2.7415   -4.1358    1.5035 C   0  0  0  0  0  0  0  0  0  0  0  0
    2.3971   -5.0887    0.7310 N   0  0  0  0  0  0  0  0  0  0  0  0
    1.9012   -6.2512    1.1923 C   0  0  0  0  0  0  0  0  0  0  0  0
    0.6252   -6.6418    1.2060 N   0  0  0  0  0  0  0  0  0  0  0  0
    0.4391   -7.8458    1.8889 C   0  0  0  0  0  0  0  0  0  0  0  0
    1.6016   -8.4825    2.2191 C   0  0  0  0  0  0  0  0  0  0  0  0
    2.9922   -7.5092    1.8348 S   0  0  0  0  0  0  0  0  0  0  0  0
    1.6847   -9.8508    2.8228 C   0  0  0  0  0  0  0  0  0  0  0  0
    0.3388  -10.5978    2.7251 C   0  0  0  0  0  0  0  0  0  0  0  0
   -0.8693   -9.6855    3.0179 C   0  0  0  0  0  0  0  0  0  0  0  0
   -0.9248   -8.4088    2.1567 C   0  0  0  0  0  0  0  0  0  0  0  0
    4.8893   -2.3448    2.4042 H   0  0  0  0  0  0  0  0  0  0  0  0
    5.5536   -2.6394    4.0079 H   0  0  0  0  0  0  0  0  0  0  0  0
    4.4751   -1.2783    3.7418 H   0  0  0  0  0  0  0  0  0  0  0  0
    3.2760   -4.5051    7.4751 H   0  0  0  0  0  0  0  0  0  0  0  0
    2.1729   -5.0062    9.6378 H   0  0  0  0  0  0  0  0  0  0  0  0
   -0.3144   -5.1514    9.7683 H   0  0  0  0  0  0  0  0  0  0  0  0
   -1.6925   -4.7988    7.7158 H   0  0  0  0  0  0  0  0  0  0  0  0
   -0.5875   -4.2502    5.5807 H   0  0  0  0  0  0  0  0  0  0  0  0
    3.1840   -3.2549    1.0202 H   0  0  0  0  0  0  0  0  0  0  0  0
    2.4639  -10.4379    2.3324 H   0  0  0  0  0  0  0  0  0  0  0  0
    1.9709   -9.7731    3.8730 H   0  0  0  0  0  0  0  0  0  0  0  0
    0.2090  -10.9871    1.7119 H   0  0  0  0  0  0  0  0  0  0  0  0
    0.3352  -11.4672    3.3832 H   0  0  0  0  0  0  0  0  0  0  0  0
   -1.7922  -10.2387    2.8792 H   0  0  0  0  0  0  0  0  0  0  0  0
   -0.8238   -9.4077    4.0756 H   0  0  0  0  0  0  0  0  0  0  0  0
   -1.5696   -7.6746    2.6368 H   0  0  0  0  0  0  0  0  0  0  0  0
   -1.3897   -8.6544    1.2054 H   0  0  0  0  0  0  0  0  0  0  0  0
    0.4375   -5.6477    4.5296 H   0  0  0  0  0  0  0  0  0  0  0  0
  1  2  1  0
  1 25  1  0
  1 26  1  0
  1 27  1  0
  2 13  1  0
  2  3  2  0
  3  4  1  0
  4  5  1  0
  4 11  1  0
  5 10  1  0
  5  6  2  0
  6  7  1  0
  6 28  1  0
  7  8  2  0
  7 29  1  0
  8  9  1  0
  8 30  1  0
  9 10  2  0
  9 31  1  0
 10 32  1  0
 11 12  1  0
 11 13  2  0
 12 42  1  0
 13 14  1  0
 14 15  2  3
 14 33  1  0
 15 16  1  0
 16 20  1  0
 16 17  2  0
 17 18  1  0
 18 24  1  0
 18 19  2  0
 19 20  1  0
 19 21  1  0
 21 22  1  0
 21 34  1  0
 21 35  1  0
 22 23  1  0
 22 36  1  0
 22 37  1  0
 23 24  1  0
 23 38  1  0
 23 39  1  0
 24 40  1  0
 24 41  1  0
M  END
>  <i_m_ct_stereo_status>  (100) 
1

>  <s_m_source_file>  (100) 
/var/tmp/pbs.5076255.sched01/tmp6mrmgolx/06cp14zw5.sdf

>  <i_m_source_file_index>  (100) 
42

>  <i_lp_mmshare_version>  (100) 
48012

>  <i_f3d_flags>  (100) 
0

>  <s_epik_input>  (100) 
W2NIXTFbY0hdW2NIXVtjSF1bY0hdYzEtbihbbkhdYzJbQ0gzXSljKD1PKWMyL1tDSF09Ti9jKG4zKXNjKGMzNClbQ0gyXVtDSDJdW0NIMl1bQ0gyXTQ=

>  <s_epik_cmdline>  (100) 
J2VwaWtfcHl0aG9uJywgJy1waHQnLCAnMi4wJywgJy1waCcsICc3LjAnLCAnLXRuJywgJzgnLCAnLW1hJywgJzIwMCcsICctaW1hZScsICc8aW5maWxlLm1hZT4nLCAnLW9tYWUnLCAnPG91dGZpbGUubWFlPic=

>  <r_epik_Ionization_Penalty>  (100) 
2.31806

>  <r_epik_Ionization_Penalty_Charging>  (100) 
0

>  <r_epik_Ionization_Penalty_Neutral>  (100) 
2.31806

>  <r_epik_State_Penalty>  (100) 
2.47146

>  <r_epik_Charging_Adjusted_Penalty>  (100) 
2.47146

>  <i_epik_Tot_Q>  (100) 
0

>  <i_epik_Tot_abs_Q>  (100) 
0

>  <s_epik_Chemistry_Notes>  (100) 
This compound has an imine and may undergo hydrolysis.

>  <s_lp_Force_Field>  (100) 
OPLS3e

>  <r_lp_Energy>  (100) 
32.7291

>  <b_lp_Chiralities_Consistent>  (100) 
1

>  <s_lp_Variant>  (100) 
15:0-4

>  <s_i_glide_gridfile>  (100) 
pfpi4k_grid

>  <i_i_glide_lignum>  (100) 
42

>  <i_i_glide_rotatable_bonds>  (100) 
4

>  <r_i_docking_score>  (100) 
-2.48352

>  <r_i_glide_ligand_efficiency>  (100) 
-0.10348

>  <r_i_glide_ligand_efficiency_sa>  (100) 
-0.298488

>  <r_i_glide_ligand_efficiency_ln>  (100) 
-0.594421

>  <r_i_glide_gscore>  (100) 
-2.48352

>  <r_i_glide_lipo>  (100) 
-0.233783

>  <r_i_glide_hbond>  (100) 
-0.107466

>  <r_i_glide_metal>  (100) 
-0

>  <r_i_glide_rewards>  (100) 
-1.10184

>  <r_i_glide_evdw>  (100) 
-22.6614

>  <r_i_glide_ecoul>  (100) 
-2.61476

>  <r_i_glide_erotb>  (100) 
0.495363

>  <r_i_glide_esite>  (100) 
-0.0105088

>  <r_i_glide_emodel>  (100) 
-28.5581

>  <r_i_glide_energy>  (100) 
-25.2762

>  <r_i_glide_einternal>  (100) 
1.56897

>  <r_i_glide_intrahb_reward>  (100) 
-0

>  <i_i_glide_confnum>  (100) 
6

>  <i_i_glide_posenum>  (100) 
16

>  <r_i_glide_eff_state_penalty>  (100) 
0

>  <ligand_id>  (100) 
15

>  <original_smiles>  (100) 
Cc1[nH]n(-c2ccccc2)c(=O)c1C=Nc1nc2c(s1)CCCC2

>  <smiles>  (100) 
[H]Oc1c(C([H])=Nc2nc3c(s2)C([H])([H])C([H])([H])C([H])([H])C3([H])[H])c(C([H])([H])[H])nn1-c1c([H])c([H])c([H])c([H])c1[H]

$$$$
18:0:0
     RDKit          3D

 22 24  0  0  1  0  0  0  0  0999 V2000
    4.9499  -11.4445    2.9553 C   0  0  0  0  0  0  0  0  0  0  0  0
    4.3234  -10.1646    2.4868 C   0  0  0  0  0  0  0  0  0  0  0  0
    4.9275   -9.1186    1.8457 N   0  0  0  0  0  0  0  0  0  0  0  0
    3.9758   -8.0954    1.5723 N   0  0  0  0  0  0  0  0  0  0  0  0
    2.9166   -8.6355    2.0800 C   0  0  0  0  0  0  0  0  0  0  0  0
    1.6359   -8.0095    2.0920 C   0  0  0  0  0  0  0  0  0  0  0  0
    1.1538   -6.7642    1.6183 C   0  0  0  0  0  0  0  0  0  0  0  0
   -0.1740   -6.6908    1.9093 N   0  0  0  0  0  0  0  0  0  0  0  0
   -0.5581   -7.8621    2.5541 N   0  0  0  0  0  0  0  0  0  0  0  0
   -1.9241   -8.0756    2.9877 C   0  0  0  0  0  0  0  0  0  0  0  0
    0.5511   -8.6551    2.6624 C   0  0  0  0  0  0  0  0  0  0  0  0
    0.7036   -9.9064    3.2251 N   0  0  0  0  0  0  0  0  0  0  0  0
    1.9380  -10.4907    3.2095 C   0  0  0  0  0  0  0  0  0  0  0  0
    3.0170   -9.8263    2.6309 N   0  0  0  0  0  0  0  0  0  0  0  0
    6.0080  -11.4584    2.6945 H   0  0  0  0  0  0  0  0  0  0  0  0
    4.4742  -12.3088    2.4877 H   0  0  0  0  0  0  0  0  0  0  0  0
    4.8610  -11.5479    4.0410 H   0  0  0  0  0  0  0  0  0  0  0  0
    1.6576   -5.9486    1.1066 H   0  0  0  0  0  0  0  0  0  0  0  0
   -2.0196   -9.0450    3.4757 H   0  0  0  0  0  0  0  0  0  0  0  0
   -2.5880   -8.0545    2.1303 H   0  0  0  0  0  0  0  0  0  0  0  0
   -2.2185   -7.3027    3.6929 H   0  0  0  0  0  0  0  0  0  0  0  0
    2.0784  -11.4714    3.6441 H   0  0  0  0  0  0  0  0  0  0  0  0
  1  2  1  0
  1 15  1  0
  1 16  1  0
  1 17  1  0
  2 14  1  0
  2  3  2  0
  3  4  1  0
  4  5  2  0
  5 14  1  0
  5  6  1  0
  6 11  2  0
  6  7  1  0
  7  8  2  0
  7 18  1  0
  8  9  1  0
  9 10  1  0
  9 11  1  0
 10 19  1  0
 10 20  1  0
 10 21  1  0
 11 12  1  0
 12 13  2  0
 13 14  1  0
 13 22  1  0
M  END
>  <i_m_ct_stereo_status>  (101) 
1

>  <s_m_source_file>  (101) 
/var/tmp/pbs.5076255.sched01/tmp6mrmgolx/06cp14zw5.sdf

>  <i_m_source_file_index>  (101) 
46

>  <i_lp_mmshare_version>  (101) 
48012

>  <i_f3d_flags>  (101) 
0

>  <s_epik_input>  (101) 
bjFuYyhbQ0gzXSluMltjSF1uYyhjM2MxMiluKFtDSDNdKW5bY0hdMw==

>  <s_epik_cmdline>  (101) 
J2VwaWtfcHl0aG9uJywgJy1waHQnLCAnMi4wJywgJy1waCcsICc3LjAnLCAnLXRuJywgJzgnLCAnLW1hJywgJzIwMCcsICctaW1hZScsICc8aW5maWxlLm1hZT4nLCAnLW9tYWUnLCAnPG91dGZpbGUubWFlPic=

>  <r_lp_tautomer_probability>  (101) 
1

>  <r_epik_Ionization_Penalty>  (101) 
2.54101e-06

>  <r_epik_Ionization_Penalty_Charging>  (101) 
0

>  <r_epik_Ionization_Penalty_Neutral>  (101) 
2.54101e-06

>  <r_epik_State_Penalty>  (101) 
-0

>  <r_epik_Charging_Adjusted_Penalty>  (101) 
0

>  <i_epik_Tot_Q>  (101) 
0

>  <i_epik_Tot_abs_Q>  (101) 
0

>  <s_lp_Force_Field>  (101) 
OPLS3e

>  <r_lp_Energy>  (101) 
16.9529

>  <b_lp_Chiralities_Consistent>  (101) 
1

>  <s_lp_Variant>  (101) 
18:0-1

>  <s_i_glide_gridfile>  (101) 
pfpi4k_grid

>  <i_i_glide_lignum>  (101) 
46

>  <i_i_glide_rotatable_bonds>  (101) 
0

>  <r_i_docking_score>  (101) 
-4.32312

>  <r_i_glide_ligand_efficiency>  (101) 
-0.308795

>  <r_i_glide_ligand_efficiency_sa>  (101) 
-0.744239

>  <r_i_glide_ligand_efficiency_ln>  (101) 
-1.18798

>  <r_i_glide_gscore>  (101) 
-4.32312

>  <r_i_glide_lipo>  (101) 
0

>  <r_i_glide_hbond>  (101) 
-0.186216

>  <r_i_glide_metal>  (101) 
-0

>  <r_i_glide_rewards>  (101) 
-2.2294

>  <r_i_glide_evdw>  (101) 
-20.2521

>  <r_i_glide_ecoul>  (101) 
-4.3245

>  <r_i_glide_erotb>  (101) 
0

>  <r_i_glide_esite>  (101) 
-0.246235

>  <r_i_glide_emodel>  (101) 
-32.073

>  <r_i_glide_energy>  (101) 
-24.5766

>  <r_i_glide_einternal>  (101) 
0

>  <r_i_glide_intrahb_reward>  (101) 
-0

>  <i_i_glide_confnum>  (101) 
2

>  <i_i_glide_posenum>  (101) 
18

>  <r_i_glide_eff_state_penalty>  (101) 
0

>  <ligand_id>  (101) 
18

>  <original_smiles>  (101) 
Cc1nnc2c3cnn(C)c3ncn12

>  <smiles>  (101) 
[H]c1nn(C([H])([H])[H])c2nc([H])n3c(C([H])([H])[H])nnc3c12

$$$$
18:0:1
     RDKit          3D

 22 24  0  0  1  0  0  0  0  0999 V2000
    3.2155   -0.3729    2.1092 C   0  0  0  0  0  0  0  0  0  0  0  0
    2.6200    0.7341    2.9228 C   0  0  0  0  0  0  0  0  0  0  0  0
    3.2100    1.4517    3.9221 N   0  0  0  0  0  0  0  0  0  0  0  0
    2.2972    2.4181    4.4370 N   0  0  0  0  0  0  0  0  0  0  0  0
    1.2602    2.1607    3.7084 C   0  0  0  0  0  0  0  0  0  0  0  0
    0.0106    2.8386    3.8279 C   0  0  0  0  0  0  0  0  0  0  0  0
   -0.4502    3.8971    4.6474 C   0  0  0  0  0  0  0  0  0  0  0  0
   -1.7476    4.1429    4.3130 N   0  0  0  0  0  0  0  0  0  0  0  0
   -2.1292    3.2673    3.3073 N   0  0  0  0  0  0  0  0  0  0  0  0
   -3.4633    3.3039    2.7481 C   0  0  0  0  0  0  0  0  0  0  0  0
   -1.0561    2.4718    3.0239 C   0  0  0  0  0  0  0  0  0  0  0  0
   -0.9226    1.4401    2.1182 N   0  0  0  0  0  0  0  0  0  0  0  0
    0.2881    0.8286    1.9973 C   0  0  0  0  0  0  0  0  0  0  0  0
    1.3489    1.2018    2.8146 N   0  0  0  0  0  0  0  0  0  0  0  0
    4.2505   -0.5349    2.4065 H   0  0  0  0  0  0  0  0  0  0  0  0
    3.1997   -0.1294    1.0444 H   0  0  0  0  0  0  0  0  0  0  0  0
    2.6691   -1.3066    2.2594 H   0  0  0  0  0  0  0  0  0  0  0  0
    0.0425    4.4712    5.4213 H   0  0  0  0  0  0  0  0  0  0  0  0
   -3.5750    2.5541    1.9664 H   0  0  0  0  0  0  0  0  0  0  0  0
   -3.6715    4.2808    2.3201 H   0  0  0  0  0  0  0  0  0  0  0  0
   -4.1808    3.0940    3.5334 H   0  0  0  0  0  0  0  0  0  0  0  0
    0.4229    0.0334    1.2838 H   0  0  0  0  0  0  0  0  0  0  0  0
  1  2  1  0
  1 15  1  0
  1 16  1  0
  1 17  1  0
  2 14  1  0
  2  3  2  0
  3  4  1  0
  4  5  2  0
  5 14  1  0
  5  6  1  0
  6 11  2  0
  6  7  1  0
  7  8  2  0
  7 18  1  0
  8  9  1  0
  9 10  1  0
  9 11  1  0
 10 19  1  0
 10 20  1  0
 10 21  1  0
 11 12  1  0
 12 13  2  0
 13 14  1  0
 13 22  1  0
M  END
>  <i_m_ct_stereo_status>  (102) 
1

>  <s_m_source_file>  (102) 
/var/tmp/pbs.5076255.sched01/tmp6mrmgolx/06cp14zw5.sdf

>  <i_m_source_file_index>  (102) 
46

>  <i_lp_mmshare_version>  (102) 
48012

>  <i_f3d_flags>  (102) 
0

>  <s_epik_input>  (102) 
bjFuYyhbQ0gzXSluMltjSF1uYyhjM2MxMiluKFtDSDNdKW5bY0hdMw==

>  <s_epik_cmdline>  (102) 
J2VwaWtfcHl0aG9uJywgJy1waHQnLCAnMi4wJywgJy1waCcsICc3LjAnLCAnLXRuJywgJzgnLCAnLW1hJywgJzIwMCcsICctaW1hZScsICc8aW5maWxlLm1hZT4nLCAnLW9tYWUnLCAnPG91dGZpbGUubWFlPic=

>  <r_lp_tautomer_probability>  (102) 
1

>  <r_epik_Ionization_Penalty>  (102) 
2.54101e-06

>  <r_epik_Ionization_Penalty_Charging>  (102) 
0

>  <r_epik_Ionization_Penalty_Neutral>  (102) 
2.54101e-06

>  <r_epik_State_Penalty>  (102) 
-0

>  <r_epik_Charging_Adjusted_Penalty>  (102) 
0

>  <i_epik_Tot_Q>  (102) 
0

>  <i_epik_Tot_abs_Q>  (102) 
0

>  <s_lp_Force_Field>  (102) 
OPLS3e

>  <r_lp_Energy>  (102) 
16.9529

>  <b_lp_Chiralities_Consistent>  (102) 
1

>  <s_lp_Variant>  (102) 
18:0-1

>  <s_i_glide_gridfile>  (102) 
pfpi4k_grid

>  <i_i_glide_lignum>  (102) 
46

>  <i_i_glide_rotatable_bonds>  (102) 
0

>  <r_i_docking_score>  (102) 
-3.79158

>  <r_i_glide_ligand_efficiency>  (102) 
-0.270827

>  <r_i_glide_ligand_efficiency_sa>  (102) 
-0.652732

>  <r_i_glide_ligand_efficiency_ln>  (102) 
-1.04191

>  <r_i_glide_gscore>  (102) 
-3.79158

>  <r_i_glide_lipo>  (102) 
0

>  <r_i_glide_hbond>  (102) 
-0.0313794

>  <r_i_glide_metal>  (102) 
-0

>  <r_i_glide_rewards>  (102) 
-2.12917

>  <r_i_glide_evdw>  (102) 
-18.4188

>  <r_i_glide_ecoul>  (102) 
-2.9804

>  <r_i_glide_erotb>  (102) 
0

>  <r_i_glide_esite>  (102) 
-0.263029

>  <r_i_glide_emodel>  (102) 
-27.97

>  <r_i_glide_energy>  (102) 
-21.3992

>  <r_i_glide_einternal>  (102) 
0

>  <r_i_glide_intrahb_reward>  (102) 
-0

>  <i_i_glide_confnum>  (102) 
1

>  <i_i_glide_posenum>  (102) 
3

>  <r_i_glide_eff_state_penalty>  (102) 
0

>  <ligand_id>  (102) 
18

>  <original_smiles>  (102) 
Cc1nnc2c3cnn(C)c3ncn12

>  <smiles>  (102) 
[H]c1nn(C([H])([H])[H])c2nc([H])n3c(C([H])([H])[H])nnc3c12

$$$$
18:0:2
     RDKit          3D

 22 24  0  0  1  0  0  0  0  0999 V2000
    4.3825   -3.3725    3.0746 C   0  0  0  0  0  0  0  0  0  0  0  0
    3.7602   -3.6161    1.7359 C   0  0  0  0  0  0  0  0  0  0  0  0
    2.9816   -4.6711    1.3599 N   0  0  0  0  0  0  0  0  0  0  0  0
    2.5946   -4.5295   -0.0011 N   0  0  0  0  0  0  0  0  0  0  0  0
    3.1789   -3.4131   -0.2895 C   0  0  0  0  0  0  0  0  0  0  0  0
    3.1269   -2.7793   -1.5708 C   0  0  0  0  0  0  0  0  0  0  0  0
    2.4888   -3.1004   -2.7935 C   0  0  0  0  0  0  0  0  0  0  0  0
    2.8029   -2.1344   -3.6929 N   0  0  0  0  0  0  0  0  0  0  0  0
    3.5763   -1.1687   -3.0696 N   0  0  0  0  0  0  0  0  0  0  0  0
    4.0116    0.0095   -3.7861 C   0  0  0  0  0  0  0  0  0  0  0  0
    3.7845   -1.5796   -1.7849 C   0  0  0  0  0  0  0  0  0  0  0  0
    4.5100   -0.9944   -0.7676 N   0  0  0  0  0  0  0  0  0  0  0  0
    4.5381   -1.6039    0.4535 C   0  0  0  0  0  0  0  0  0  0  0  0
    3.8733   -2.8098    0.6515 N   0  0  0  0  0  0  0  0  0  0  0  0
    4.1322   -4.1845    3.7525 H   0  0  0  0  0  0  0  0  0  0  0  0
    4.0152   -2.4399    3.5065 H   0  0  0  0  0  0  0  0  0  0  0  0
    5.4701   -3.3167    2.9953 H   0  0  0  0  0  0  0  0  0  0  0  0
    1.8641   -3.9368   -3.0814 H   0  0  0  0  0  0  0  0  0  0  0  0
    4.6045    0.6459   -3.1307 H   0  0  0  0  0  0  0  0  0  0  0  0
    3.1522    0.5764   -4.1369 H   0  0  0  0  0  0  0  0  0  0  0  0
    4.6118   -0.2848   -4.6433 H   0  0  0  0  0  0  0  0  0  0  0  0
    5.0865   -1.1514    1.2674 H   0  0  0  0  0  0  0  0  0  0  0  0
  1  2  1  0
  1 15  1  0
  1 16  1  0
  1 17  1  0
  2 14  1  0
  2  3  2  0
  3  4  1  0
  4  5  2  0
  5 14  1  0
  5  6  1  0
  6 11  2  0
  6  7  1  0
  7  8  2  0
  7 18  1  0
  8  9  1  0
  9 10  1  0
  9 11  1  0
 10 19  1  0
 10 20  1  0
 10 21  1  0
 11 12  1  0
 12 13  2  0
 13 14  1  0
 13 22  1  0
M  END
>  <i_m_ct_stereo_status>  (103) 
1

>  <s_m_source_file>  (103) 
/var/tmp/pbs.5076255.sched01/tmp6mrmgolx/06cp14zw5.sdf

>  <i_m_source_file_index>  (103) 
46

>  <i_lp_mmshare_version>  (103) 
48012

>  <i_f3d_flags>  (103) 
0

>  <s_epik_input>  (103) 
bjFuYyhbQ0gzXSluMltjSF1uYyhjM2MxMiluKFtDSDNdKW5bY0hdMw==

>  <s_epik_cmdline>  (103) 
J2VwaWtfcHl0aG9uJywgJy1waHQnLCAnMi4wJywgJy1waCcsICc3LjAnLCAnLXRuJywgJzgnLCAnLW1hJywgJzIwMCcsICctaW1hZScsICc8aW5maWxlLm1hZT4nLCAnLW9tYWUnLCAnPG91dGZpbGUubWFlPic=

>  <r_lp_tautomer_probability>  (103) 
1

>  <r_epik_Ionization_Penalty>  (103) 
2.54101e-06

>  <r_epik_Ionization_Penalty_Charging>  (103) 
0

>  <r_epik_Ionization_Penalty_Neutral>  (103) 
2.54101e-06

>  <r_epik_State_Penalty>  (103) 
-0

>  <r_epik_Charging_Adjusted_Penalty>  (103) 
0

>  <i_epik_Tot_Q>  (103) 
0

>  <i_epik_Tot_abs_Q>  (103) 
0

>  <s_lp_Force_Field>  (103) 
OPLS3e

>  <r_lp_Energy>  (103) 
16.9529

>  <b_lp_Chiralities_Consistent>  (103) 
1

>  <s_lp_Variant>  (103) 
18:0-1

>  <s_i_glide_gridfile>  (103) 
pfpi4k_grid

>  <i_i_glide_lignum>  (103) 
46

>  <i_i_glide_rotatable_bonds>  (103) 
0

>  <r_i_docking_score>  (103) 
-3.78142

>  <r_i_glide_ligand_efficiency>  (103) 
-0.270102

>  <r_i_glide_ligand_efficiency_sa>  (103) 
-0.650983

>  <r_i_glide_ligand_efficiency_ln>  (103) 
-1.03912

>  <r_i_glide_gscore>  (103) 
-3.78142

>  <r_i_glide_lipo>  (103) 
-0.211914

>  <r_i_glide_hbond>  (103) 
0

>  <r_i_glide_metal>  (103) 
-0

>  <r_i_glide_rewards>  (103) 
-2.21063

>  <r_i_glide_evdw>  (103) 
-20.8026

>  <r_i_glide_ecoul>  (103) 
-1.26722

>  <r_i_glide_erotb>  (103) 
0

>  <r_i_glide_esite>  (103) 
-0.128667

>  <r_i_glide_emodel>  (103) 
-28.6243

>  <r_i_glide_energy>  (103) 
-22.0698

>  <r_i_glide_einternal>  (103) 
0

>  <r_i_glide_intrahb_reward>  (103) 
-0

>  <i_i_glide_confnum>  (103) 
1

>  <i_i_glide_posenum>  (103) 
2

>  <r_i_glide_eff_state_penalty>  (103) 
0

>  <ligand_id>  (103) 
18

>  <original_smiles>  (103) 
Cc1nnc2c3cnn(C)c3ncn12

>  <smiles>  (103) 
[H]c1nn(C([H])([H])[H])c2nc([H])n3c(C([H])([H])[H])nnc3c12

$$$$
20:0:0
     RDKit          3D

 45 48  0  0  1  0  0  0  0  0999 V2000
   -1.3522   -4.2763    7.1143 C   0  0  0  0  0  0  0  0  0  0  0  0
   -0.5835   -3.4385    6.2173 N   0  0  0  0  0  0  0  0  0  0  0  0
    0.6461   -3.6614    5.6818 C   0  0  0  0  0  0  0  0  0  0  0  0
    1.1117   -2.7066    4.8509 N   0  0  0  0  0  0  0  0  0  0  0  0
    0.0560   -1.7930    4.8761 C   0  0  0  0  0  0  0  0  0  0  0  0
   -0.9314   -2.2210    5.6707 C   0  0  0  0  0  0  0  0  0  0  0  0
   -1.9586   -1.3668    5.6764 N   0  0  0  0  0  0  0  0  0  0  0  0
   -1.5137   -0.3950    4.8476 C   0  0  0  0  0  0  0  0  0  0  0  0
   -0.2832   -0.6093    4.3228 N   0  0  0  0  0  0  0  0  0  0  0  0
    0.4806    0.2235    3.3546 C   0  0  2  0  0  0  0  0  0  0  0  0
    1.6189   -0.4686    2.9588 O   0  0  0  0  0  0  0  0  0  0  0  0
    2.7589    0.3939    2.9340 C   0  0  1  0  0  0  0  0  0  0  0  0
    3.5981    0.1911    1.6445 C   0  0  0  0  0  0  0  0  0  0  0  0
    3.5933   -1.2622    1.1313 C   0  0  0  0  0  0  0  0  0  0  0  0
    4.2445   -1.4273   -0.2413 C   0  0  0  0  0  0  0  0  0  0  0  0
    5.4757   -1.4593   -0.3397 O   0  0  0  0  0  0  0  0  0  0  0  0
    3.4209   -1.5502   -1.2879 N   0  0  0  0  0  0  0  0  0  0  0  0
    3.8225   -1.8715   -2.6200 C   0  0  0  0  0  0  0  0  0  0  0  0
    3.2775   -1.0571   -3.7741 C   0  0  0  0  0  0  0  0  0  0  0  0
    2.7692   -2.4522   -3.5353 C   0  0  0  0  0  0  0  0  0  0  0  0
    2.1950    1.8110    3.1993 C   0  0  1  0  0  0  0  0  0  0  0  0
    1.8066    2.4204    1.9790 O   0  0  0  0  0  0  0  0  0  0  0  0
    0.9682    1.4954    4.0438 C   0  0  1  0  0  0  0  0  0  0  0  0
    0.0312    2.5605    4.0032 O   0  0  0  0  0  0  0  0  0  0  0  0
   -2.0089   -4.9301    6.5364 H   0  0  0  0  0  0  0  0  0  0  0  0
   -1.9637   -3.6515    7.7644 H   0  0  0  0  0  0  0  0  0  0  0  0
   -0.6847   -4.8835    7.7302 H   0  0  0  0  0  0  0  0  0  0  0  0
    1.2170   -4.5531    5.9028 H   0  0  0  0  0  0  0  0  0  0  0  0
   -2.1020    0.4729    4.5987 H   0  0  0  0  0  0  0  0  0  0  0  0
   -0.1799    0.3801    2.4998 H   0  0  0  0  0  0  0  0  0  0  0  0
    3.3664    0.0907    3.7894 H   0  0  0  0  0  0  0  0  0  0  0  0
    3.2255    0.8156    0.8429 H   0  0  0  0  0  0  0  0  0  0  0  0
    4.6190    0.5310    1.8172 H   0  0  0  0  0  0  0  0  0  0  0  0
    4.0978   -1.9109    1.8446 H   0  0  0  0  0  0  0  0  0  0  0  0
    2.5696   -1.6287    1.0464 H   0  0  0  0  0  0  0  0  0  0  0  0
    2.4173   -1.4270   -1.1201 H   0  0  0  0  0  0  0  0  0  0  0  0
    4.8263   -2.2745   -2.7530 H   0  0  0  0  0  0  0  0  0  0  0  0
    2.6147   -0.2240   -3.5472 H   0  0  0  0  0  0  0  0  0  0  0  0
    3.9319   -0.9081   -4.6316 H   0  0  0  0  0  0  0  0  0  0  0  0
    3.0804   -3.2282   -4.2312 H   0  0  0  0  0  0  0  0  0  0  0  0
    1.7590   -2.5600   -3.1458 H   0  0  0  0  0  0  0  0  0  0  0  0
    2.9127    2.4600    3.7063 H   0  0  0  0  0  0  0  0  0  0  0  0
    1.3085    3.2178    2.1151 H   0  0  0  0  0  0  0  0  0  0  0  0
    1.2740    1.2578    5.0682 H   0  0  0  0  0  0  0  0  0  0  0  0
   -0.1885    2.7257    3.0964 H   0  0  0  0  0  0  0  0  0  0  0  0
  1  2  1  0
  1 25  1  0
  1 26  1  0
  1 27  1  0
  2  6  1  0
  2  3  1  0
  3  4  2  0
  3 28  1  0
  4  5  1  0
  5  9  1  0
  5  6  2  0
  6  7  1  0
  7  8  2  0
  8  9  1  0
  8 29  1  0
  9 10  1  0
 10 23  1  0
 10 11  1  0
 10 30  1  6
 11 12  1  0
 12 13  1  0
 12 21  1  0
 12 31  1  1
 13 14  1  0
 13 32  1  0
 13 33  1  0
 14 15  1  0
 14 34  1  0
 14 35  1  0
 15 16  2  0
 15 17  1  0
 17 18  1  0
 17 36  1  0
 18 20  1  0
 18 19  1  0
 18 37  1  0
 19 20  1  0
 19 38  1  0
 19 39  1  0
 20 40  1  0
 20 41  1  0
 21 22  1  0
 21 23  1  0
 21 42  1  1
 22 43  1  0
 23 24  1  0
 23 44  1  1
 24 45  1  0
M  END
>  <i_m_ct_stereo_status>  (104) 
1

>  <s_m_source_file>  (104) 
/var/tmp/pbs.5076255.sched01/tmpmtrcy7mx/460f9z2a7c.sdf

>  <i_m_source_file_index>  (104) 
2

>  <i_lp_mmshare_version>  (104) 
48012

>  <i_f3d_flags>  (104) 
0

>  <s_epik_input>  (104) 
bjFbY0hdbihbQ0gzXSljKGMxMiluW2NIXW4yW0NAQEhdM09bQ0BIXShbQ0BASF0oW09IXSlbQ0BIXTNbT0hdKVtDSDJdW0NIMl1DKD1PKVtOSF1bQ0hdNFtDSDJdW0NIMl00

>  <s_epik_cmdline>  (104) 
J2VwaWtfcHl0aG9uJywgJy1waHQnLCAnMi4wJywgJy1waCcsICc3LjAnLCAnLXRuJywgJzgnLCAnLW1hJywgJzIwMCcsICctaW1hZScsICc8aW5maWxlLm1hZT4nLCAnLW9tYWUnLCAnPG91dGZpbGUubWFlPic=

>  <r_lp_tautomer_probability>  (104) 
1

>  <r_epik_Ionization_Penalty>  (104) 
0.000258441

>  <r_epik_Ionization_Penalty_Charging>  (104) 
0.000256233

>  <r_epik_Ionization_Penalty_Neutral>  (104) 
2.2085e-06

>  <r_epik_State_Penalty>  (104) 
-0

>  <r_epik_Charging_Adjusted_Penalty>  (104) 
0.000256233

>  <i_epik_Tot_Q>  (104) 
0

>  <i_epik_Tot_abs_Q>  (104) 
0

>  <s_epik_Chemistry_Notes>  (104) 
This compound contains an acetal/aminal-like group ( X-CH(R)-Y where X, Y are N, S, or O) that may be acid/base labile, releasing an aldehyde.

>  <s_lp_Force_Field>  (104) 
OPLS3e

>  <r_lp_Energy>  (104) 
-0.955288

>  <b_lp_Chiralities_Consistent>  (104) 
1

>  <s_lp_Variant>  (104) 
20:0-1

>  <s_i_glide_gridfile>  (104) 
pfpi4k_grid

>  <i_i_glide_lignum>  (104) 
2

>  <i_i_glide_rotatable_bonds>  (104) 
8

>  <r_i_docking_score>  (104) 
-3.7913

>  <r_i_glide_ligand_efficiency>  (104) 
-0.157971

>  <r_i_glide_ligand_efficiency_sa>  (104) 
-0.455666

>  <r_i_glide_ligand_efficiency_ln>  (104) 
-0.907431

>  <r_i_glide_gscore>  (104) 
-3.7913

>  <r_i_glide_lipo>  (104) 
-0.485961

>  <r_i_glide_hbond>  (104) 
-0.174303

>  <r_i_glide_metal>  (104) 
-0

>  <r_i_glide_rewards>  (104) 
-1.12256

>  <r_i_glide_evdw>  (104) 
-27.0587

>  <r_i_glide_ecoul>  (104) 
-8.0599

>  <r_i_glide_erotb>  (104) 
0.839035

>  <r_i_glide_esite>  (104) 
-0.285592

>  <r_i_glide_emodel>  (104) 
-40.8721

>  <r_i_glide_energy>  (104) 
-35.1186

>  <r_i_glide_einternal>  (104) 
6.59846

>  <r_i_glide_intrahb_reward>  (104) 
-0

>  <i_i_glide_confnum>  (104) 
3

>  <i_i_glide_posenum>  (104) 
14

>  <r_i_glide_eff_state_penalty>  (104) 
0

>  <ligand_id>  (104) 
20

>  <original_smiles>  (104) 
Cn1cnc2c1ncn2C1OC(CCC(=O)NC2CC2)C(O)C1O

>  <smiles>  (104) 
[H]OC1([H])C([H])(n2c([H])nc3c2nc([H])n3C([H])([H])[H])OC([H])(C([H])([H])C([H])([H])C(=O)N([H])C2([H])C([H])([H])C2([H])[H])C1([H])O[H]

$$$$
20:0:1
     RDKit          3D

 45 48  0  0  1  0  0  0  0  0999 V2000
   -1.3838   -4.3598    7.1626 C   0  0  0  0  0  0  0  0  0  0  0  0
   -0.5757   -3.4704    6.3487 N   0  0  0  0  0  0  0  0  0  0  0  0
    0.7181   -3.6095    5.9505 C   0  0  0  0  0  0  0  0  0  0  0  0
    1.2128   -2.6203    5.1780 N   0  0  0  0  0  0  0  0  0  0  0  0
    0.1005   -1.7849    5.0738 C   0  0  0  0  0  0  0  0  0  0  0  0
   -0.9336   -2.2704    5.7653 C   0  0  0  0  0  0  0  0  0  0  0  0
   -2.0002   -1.4656    5.6763 N   0  0  0  0  0  0  0  0  0  0  0  0
   -1.5338   -0.4760    4.8808 C   0  0  0  0  0  0  0  0  0  0  0  0
   -0.2491   -0.6215    4.4796 N   0  0  0  0  0  0  0  0  0  0  0  0
    0.5812    0.2654    3.6315 C   0  0  2  0  0  0  0  0  0  0  0  0
    1.4221   -0.5153    2.8341 O   0  0  0  0  0  0  0  0  0  0  0  0
    2.7276    0.0634    2.7859 C   0  0  1  0  0  0  0  0  0  0  0  0
    3.2841    0.0727    1.3482 C   0  0  0  0  0  0  0  0  0  0  0  0
    3.5094   -1.3365    0.7750 C   0  0  0  0  0  0  0  0  0  0  0  0
    4.2095   -1.3416   -0.5872 C   0  0  0  0  0  0  0  0  0  0  0  0
    5.4302   -1.2329   -0.6596 O   0  0  0  0  0  0  0  0  0  0  0  0
    3.4185   -1.5047   -1.6570 N   0  0  0  0  0  0  0  0  0  0  0  0
    3.8791   -1.7319   -2.9886 C   0  0  0  0  0  0  0  0  0  0  0  0
    3.3193   -0.8964   -4.1203 C   0  0  0  0  0  0  0  0  0  0  0  0
    2.8820   -2.3277   -3.9559 C   0  0  0  0  0  0  0  0  0  0  0  0
    2.5839    1.4326    3.4819 C   0  0  1  0  0  0  0  0  0  0  0  0
    2.1729    2.4390    2.5648 O   0  0  0  0  0  0  0  0  0  0  0  0
    1.4794    1.1502    4.4891 C   0  0  1  0  0  0  0  0  0  0  0  0
    0.8446    2.3431    4.9077 O   0  0  0  0  0  0  0  0  0  0  0  0
   -1.9337   -5.0460    6.5199 H   0  0  0  0  0  0  0  0  0  0  0  0
   -2.0996   -3.7846    7.7480 H   0  0  0  0  0  0  0  0  0  0  0  0
   -0.7509   -4.9311    7.8425 H   0  0  0  0  0  0  0  0  0  0  0  0
    1.3122   -4.4671    6.2302 H   0  0  0  0  0  0  0  0  0  0  0  0
   -2.1395    0.3655    4.5912 H   0  0  0  0  0  0  0  0  0  0  0  0
   -0.1268    0.8106    3.0076 H   0  0  0  0  0  0  0  0  0  0  0  0
    3.3638   -0.5630    3.4112 H   0  0  0  0  0  0  0  0  0  0  0  0
    2.5607    0.5755    0.7146 H   0  0  0  0  0  0  0  0  0  0  0  0
    4.2149    0.6419    1.3101 H   0  0  0  0  0  0  0  0  0  0  0  0
    4.1340   -1.9166    1.4528 H   0  0  0  0  0  0  0  0  0  0  0  0
    2.5585   -1.8656    0.7075 H   0  0  0  0  0  0  0  0  0  0  0  0
    2.4106   -1.4726   -1.4973 H   0  0  0  0  0  0  0  0  0  0  0  0
    4.9030   -2.0809   -3.1130 H   0  0  0  0  0  0  0  0  0  0  0  0
    2.6105   -0.1110   -3.8733 H   0  0  0  0  0  0  0  0  0  0  0  0
    3.9889   -0.6700   -4.9477 H   0  0  0  0  0  0  0  0  0  0  0  0
    3.2516   -3.0470   -4.6835 H   0  0  0  0  0  0  0  0  0  0  0  0
    1.8635   -2.4989   -3.6165 H   0  0  0  0  0  0  0  0  0  0  0  0
    3.5172    1.7481    3.9519 H   0  0  0  0  0  0  0  0  0  0  0  0
    1.4012    2.1416    2.1031 H   0  0  0  0  0  0  0  0  0  0  0  0
    1.8722    0.5807    5.3377 H   0  0  0  0  0  0  0  0  0  0  0  0
    0.6624    2.8630    4.1363 H   0  0  0  0  0  0  0  0  0  0  0  0
  1  2  1  0
  1 25  1  0
  1 26  1  0
  1 27  1  0
  2  6  1  0
  2  3  1  0
  3  4  2  0
  3 28  1  0
  4  5  1  0
  5  9  1  0
  5  6  2  0
  6  7  1  0
  7  8  2  0
  8  9  1  0
  8 29  1  0
  9 10  1  0
 10 23  1  0
 10 11  1  0
 10 30  1  6
 11 12  1  0
 12 13  1  0
 12 21  1  0
 12 31  1  1
 13 14  1  0
 13 32  1  0
 13 33  1  0
 14 15  1  0
 14 34  1  0
 14 35  1  0
 15 16  2  0
 15 17  1  0
 17 18  1  0
 17 36  1  0
 18 20  1  0
 18 19  1  0
 18 37  1  0
 19 20  1  0
 19 38  1  0
 19 39  1  0
 20 40  1  0
 20 41  1  0
 21 22  1  0
 21 23  1  0
 21 42  1  1
 22 43  1  0
 23 24  1  0
 23 44  1  1
 24 45  1  0
M  END
>  <i_m_ct_stereo_status>  (105) 
1

>  <s_m_source_file>  (105) 
/var/tmp/pbs.5076255.sched01/tmpmtrcy7mx/460f9z2a7c.sdf

>  <i_m_source_file_index>  (105) 
2

>  <i_lp_mmshare_version>  (105) 
48012

>  <i_f3d_flags>  (105) 
0

>  <s_epik_input>  (105) 
bjFbY0hdbihbQ0gzXSljKGMxMiluW2NIXW4yW0NAQEhdM09bQ0BIXShbQ0BASF0oW09IXSlbQ0BIXTNbT0hdKVtDSDJdW0NIMl1DKD1PKVtOSF1bQ0hdNFtDSDJdW0NIMl00

>  <s_epik_cmdline>  (105) 
J2VwaWtfcHl0aG9uJywgJy1waHQnLCAnMi4wJywgJy1waCcsICc3LjAnLCAnLXRuJywgJzgnLCAnLW1hJywgJzIwMCcsICctaW1hZScsICc8aW5maWxlLm1hZT4nLCAnLW9tYWUnLCAnPG91dGZpbGUubWFlPic=

>  <r_lp_tautomer_probability>  (105) 
1

>  <r_epik_Ionization_Penalty>  (105) 
0.000258441

>  <r_epik_Ionization_Penalty_Charging>  (105) 
0.000256233

>  <r_epik_Ionization_Penalty_Neutral>  (105) 
2.2085e-06

>  <r_epik_State_Penalty>  (105) 
-0

>  <r_epik_Charging_Adjusted_Penalty>  (105) 
0.000256233

>  <i_epik_Tot_Q>  (105) 
0

>  <i_epik_Tot_abs_Q>  (105) 
0

>  <s_epik_Chemistry_Notes>  (105) 
This compound contains an acetal/aminal-like group ( X-CH(R)-Y where X, Y are N, S, or O) that may be acid/base labile, releasing an aldehyde.

>  <s_lp_Force_Field>  (105) 
OPLS3e

>  <r_lp_Energy>  (105) 
-0.955288

>  <b_lp_Chiralities_Consistent>  (105) 
1

>  <s_lp_Variant>  (105) 
20:0-1

>  <s_i_glide_gridfile>  (105) 
pfpi4k_grid

>  <i_i_glide_lignum>  (105) 
2

>  <i_i_glide_rotatable_bonds>  (105) 
8

>  <r_i_docking_score>  (105) 
-3.26518

>  <r_i_glide_ligand_efficiency>  (105) 
-0.136049

>  <r_i_glide_ligand_efficiency_sa>  (105) 
-0.392434

>  <r_i_glide_ligand_efficiency_ln>  (105) 
-0.781507

>  <r_i_glide_gscore>  (105) 
-3.26518

>  <r_i_glide_lipo>  (105) 
-0.352248

>  <r_i_glide_hbond>  (105) 
-0.169994

>  <r_i_glide_metal>  (105) 
-0

>  <r_i_glide_rewards>  (105) 
-1.12256

>  <r_i_glide_evdw>  (105) 
-28.3502

>  <r_i_glide_ecoul>  (105) 
-4.9786

>  <r_i_glide_erotb>  (105) 
0.839035

>  <r_i_glide_esite>  (105) 
-0.295118

>  <r_i_glide_emodel>  (105) 
-39.8959

>  <r_i_glide_energy>  (105) 
-33.3288

>  <r_i_glide_einternal>  (105) 
3.07484

>  <r_i_glide_intrahb_reward>  (105) 
-0

>  <i_i_glide_confnum>  (105) 
3

>  <i_i_glide_posenum>  (105) 
15

>  <r_i_glide_eff_state_penalty>  (105) 
0

>  <ligand_id>  (105) 
20

>  <original_smiles>  (105) 
Cn1cnc2c1ncn2C1OC(CCC(=O)NC2CC2)C(O)C1O

>  <smiles>  (105) 
[H]OC1([H])C([H])(n2c([H])nc3c2nc([H])n3C([H])([H])[H])OC([H])(C([H])([H])C([H])([H])C(=O)N([H])C2([H])C([H])([H])C2([H])[H])C1([H])O[H]

$$$$
20:0:2
     RDKit          3D

 45 48  0  0  1  0  0  0  0  0999 V2000
    2.3504   -9.5027    2.0116 C   0  0  0  0  0  0  0  0  0  0  0  0
    2.4398   -8.0917    1.7025 N   0  0  0  0  0  0  0  0  0  0  0  0
    1.4591   -7.1517    1.6746 C   0  0  0  0  0  0  0  0  0  0  0  0
    1.8367   -5.8989    1.3414 N   0  0  0  0  0  0  0  0  0  0  0  0
    3.2121   -6.0814    1.1686 C   0  0  0  0  0  0  0  0  0  0  0  0
    3.5582   -7.3592    1.3702 C   0  0  0  0  0  0  0  0  0  0  0  0
    4.8685   -7.5521    1.1962 N   0  0  0  0  0  0  0  0  0  0  0  0
    5.2839   -6.2997    0.8936 C   0  0  0  0  0  0  0  0  0  0  0  0
    4.3060   -5.3573    0.8680 N   0  0  0  0  0  0  0  0  0  0  0  0
    4.4062   -3.9033    0.5789 C   0  0  2  0  0  0  0  0  0  0  0  0
    3.4505   -3.2215    1.3282 O   0  0  0  0  0  0  0  0  0  0  0  0
    2.8410   -2.2201    0.5177 C   0  0  1  0  0  0  0  0  0  0  0  0
    2.7010   -0.8805    1.2802 C   0  0  0  0  0  0  0  0  0  0  0  0
    1.5171   -0.8641    2.2631 C   0  0  0  0  0  0  0  0  0  0  0  0
    1.2544    0.5249    2.8522 C   0  0  0  0  0  0  0  0  0  0  0  0
    2.1070    1.0596    3.5593 O   0  0  0  0  0  0  0  0  0  0  0  0
    0.0588    1.0795    2.5947 N   0  0  0  0  0  0  0  0  0  0  0  0
   -0.3765    2.3520    3.0778 C   0  0  0  0  0  0  0  0  0  0  0  0
   -1.4878    2.4098    4.1066 C   0  0  0  0  0  0  0  0  0  0  0  0
   -1.7639    2.8130    2.6835 C   0  0  0  0  0  0  0  0  0  0  0  0
    3.6641   -2.1728   -0.7855 C   0  0  1  0  0  0  0  0  0  0  0  0
    4.7604   -1.2690   -0.6716 O   0  0  0  0  0  0  0  0  0  0  0  0
    4.1186   -3.6202   -0.8910 C   0  0  1  0  0  0  0  0  0  0  0  0
    5.2423   -3.7782   -1.7375 O   0  0  0  0  0  0  0  0  0  0  0  0
    2.5456   -9.6555    3.0713 H   0  0  0  0  0  0  0  0  0  0  0  0
    3.0899  -10.0547    1.4317 H   0  0  0  0  0  0  0  0  0  0  0  0
    1.3589   -9.8773    1.7689 H   0  0  0  0  0  0  0  0  0  0  0  0
    0.4351   -7.4001    1.9059 H   0  0  0  0  0  0  0  0  0  0  0  0
    6.3187   -6.0664    0.6866 H   0  0  0  0  0  0  0  0  0  0  0  0
    5.4071   -3.6047    0.8975 H   0  0  0  0  0  0  0  0  0  0  0  0
    1.8603   -2.6308    0.2717 H   0  0  0  0  0  0  0  0  0  0  0  0
    3.6313   -0.6664    1.8097 H   0  0  0  0  0  0  0  0  0  0  0  0
    2.5662   -0.0704    0.5632 H   0  0  0  0  0  0  0  0  0  0  0  0
    0.6140   -1.2144    1.7641 H   0  0  0  0  0  0  0  0  0  0  0  0
    1.7109   -1.5580    3.0811 H   0  0  0  0  0  0  0  0  0  0  0  0
   -0.5558    0.6100    1.9458 H   0  0  0  0  0  0  0  0  0  0  0  0
    0.3771    3.1380    3.1296 H   0  0  0  0  0  0  0  0  0  0  0  0
   -1.9148    1.4719    4.4577 H   0  0  0  0  0  0  0  0  0  0  0  0
   -1.4370    3.2051    4.8475 H   0  0  0  0  0  0  0  0  0  0  0  0
   -1.8943    3.8731    2.4790 H   0  0  0  0  0  0  0  0  0  0  0  0
   -2.3801    2.1440    2.0847 H   0  0  0  0  0  0  0  0  0  0  0  0
    3.0534   -1.8775   -1.6397 H   0  0  0  0  0  0  0  0  0  0  0  0
    4.4148   -0.4038   -0.5139 H   0  0  0  0  0  0  0  0  0  0  0  0
    3.2865   -4.2383   -1.2316 H   0  0  0  0  0  0  0  0  0  0  0  0
    5.3424   -4.6975   -1.9343 H   0  0  0  0  0  0  0  0  0  0  0  0
  1  2  1  0
  1 25  1  0
  1 26  1  0
  1 27  1  0
  2  6  1  0
  2  3  1  0
  3  4  2  0
  3 28  1  0
  4  5  1  0
  5  9  1  0
  5  6  2  0
  6  7  1  0
  7  8  2  0
  8  9  1  0
  8 29  1  0
  9 10  1  0
 10 23  1  0
 10 11  1  0
 10 30  1  1
 11 12  1  0
 12 13  1  0
 12 21  1  0
 12 31  1  6
 13 14  1  0
 13 32  1  0
 13 33  1  0
 14 15  1  0
 14 34  1  0
 14 35  1  0
 15 16  2  0
 15 17  1  0
 17 18  1  0
 17 36  1  0
 18 20  1  0
 18 19  1  0
 18 37  1  0
 19 20  1  0
 19 38  1  0
 19 39  1  0
 20 40  1  0
 20 41  1  0
 21 22  1  0
 21 23  1  0
 21 42  1  6
 22 43  1  0
 23 24  1  0
 23 44  1  6
 24 45  1  0
M  END
>  <i_m_ct_stereo_status>  (106) 
1

>  <s_m_source_file>  (106) 
/var/tmp/pbs.5076255.sched01/tmpmtrcy7mx/460f9z2a7c.sdf

>  <i_m_source_file_index>  (106) 
2

>  <i_lp_mmshare_version>  (106) 
48012

>  <i_f3d_flags>  (106) 
0

>  <s_epik_input>  (106) 
bjFbY0hdbihbQ0gzXSljKGMxMiluW2NIXW4yW0NAQEhdM09bQ0BIXShbQ0BASF0oW09IXSlbQ0BIXTNbT0hdKVtDSDJdW0NIMl1DKD1PKVtOSF1bQ0hdNFtDSDJdW0NIMl00

>  <s_epik_cmdline>  (106) 
J2VwaWtfcHl0aG9uJywgJy1waHQnLCAnMi4wJywgJy1waCcsICc3LjAnLCAnLXRuJywgJzgnLCAnLW1hJywgJzIwMCcsICctaW1hZScsICc8aW5maWxlLm1hZT4nLCAnLW9tYWUnLCAnPG91dGZpbGUubWFlPic=

>  <r_lp_tautomer_probability>  (106) 
1

>  <r_epik_Ionization_Penalty>  (106) 
0.000258441

>  <r_epik_Ionization_Penalty_Charging>  (106) 
0.000256233

>  <r_epik_Ionization_Penalty_Neutral>  (106) 
2.2085e-06

>  <r_epik_State_Penalty>  (106) 
-0

>  <r_epik_Charging_Adjusted_Penalty>  (106) 
0.000256233

>  <i_epik_Tot_Q>  (106) 
0

>  <i_epik_Tot_abs_Q>  (106) 
0

>  <s_epik_Chemistry_Notes>  (106) 
This compound contains an acetal/aminal-like group ( X-CH(R)-Y where X, Y are N, S, or O) that may be acid/base labile, releasing an aldehyde.

>  <s_lp_Force_Field>  (106) 
OPLS3e

>  <r_lp_Energy>  (106) 
-0.955288

>  <b_lp_Chiralities_Consistent>  (106) 
1

>  <s_lp_Variant>  (106) 
20:0-1

>  <s_i_glide_gridfile>  (106) 
pfpi4k_grid

>  <i_i_glide_lignum>  (106) 
2

>  <i_i_glide_rotatable_bonds>  (106) 
8

>  <r_i_docking_score>  (106) 
-3.12875

>  <r_i_glide_ligand_efficiency>  (106) 
-0.130365

>  <r_i_glide_ligand_efficiency_sa>  (106) 
-0.376037

>  <r_i_glide_ligand_efficiency_ln>  (106) 
-0.748854

>  <r_i_glide_gscore>  (106) 
-3.12875

>  <r_i_glide_lipo>  (106) 
-0.034007

>  <r_i_glide_hbond>  (106) 
-0.0227346

>  <r_i_glide_metal>  (106) 
-0

>  <r_i_glide_rewards>  (106) 
-1.50664

>  <r_i_glide_evdw>  (106) 
-27.8124

>  <r_i_glide_ecoul>  (106) 
-5.87961

>  <r_i_glide_erotb>  (106) 
0.839035

>  <r_i_glide_esite>  (106) 
-0.131843

>  <r_i_glide_emodel>  (106) 
-39.3431

>  <r_i_glide_energy>  (106) 
-33.692

>  <r_i_glide_einternal>  (106) 
4.33425

>  <r_i_glide_intrahb_reward>  (106) 
-0

>  <i_i_glide_confnum>  (106) 
3

>  <i_i_glide_posenum>  (106) 
2

>  <r_i_glide_eff_state_penalty>  (106) 
0

>  <ligand_id>  (106) 
20

>  <original_smiles>  (106) 
Cn1cnc2c1ncn2C1OC(CCC(=O)NC2CC2)C(O)C1O

>  <smiles>  (106) 
[H]OC1([H])C([H])(n2c([H])nc3c2nc([H])n3C([H])([H])[H])OC([H])(C([H])([H])C([H])([H])C(=O)N([H])C2([H])C([H])([H])C2([H])[H])C1([H])O[H]

$$$$
21:0:0
     RDKit          3D

 41 44  0  0  1  0  0  0  0  0999 V2000
    3.4453    3.4516    5.3073 C   0  0  0  0  0  0  0  0  0  0  0  0
    2.5674    4.3005    4.5081 N   0  0  0  0  0  0  0  0  0  0  0  0
    2.0912    5.5398    4.8828 C   0  0  0  0  0  0  0  0  0  0  0  0
    1.3313    6.0012    3.8419 C   0  0  0  0  0  0  0  0  0  0  0  0
    1.3576    5.0303    2.8801 N   0  0  0  0  0  0  0  0  0  0  0  0
    2.0884    3.9848    3.2927 C   0  0  0  0  0  0  0  0  0  0  0  0
    2.3241    2.7527    2.4717 C   0  0  0  0  0  0  0  0  0  0  0  0
    1.7811    1.4435    3.0818 C   0  0  0  0  0  0  0  0  0  0  0  0
    0.9834    1.4647    4.0176 O   0  0  0  0  0  0  0  0  0  0  0  0
    2.2319    0.2699    2.5688 N   0  0  0  0  0  0  0  0  0  0  0  0
    1.8801   -1.0483    3.1091 C   0  0  0  0  0  0  0  0  0  0  0  0
    2.4563   -2.0637    2.1083 C   0  0  0  0  0  0  0  0  0  0  0  0
    3.5965   -1.3434    1.4112 C   0  0  0  0  0  0  0  0  0  0  0  0
    3.1475    0.1128    1.4467 C   0  0  0  0  0  0  0  0  0  0  0  0
    5.0013   -1.6317    1.9402 C   0  0  0  0  0  0  0  0  0  0  0  0
    5.4321   -1.5697    0.5585 N   0  0  0  0  0  0  0  0  0  0  0  0
    6.4635   -2.4424    0.1755 C   0  0  0  0  0  0  0  0  0  0  0  0
    7.0578   -3.5055    0.9308 C   0  0  0  0  0  0  0  0  0  0  0  0
    8.0685   -4.0943    0.3505 N   0  0  0  0  0  0  0  0  0  0  0  0
    8.2278   -3.3578   -1.1364 S   0  0  0  0  0  0  0  0  0  0  0  0
    6.9826   -2.2590   -1.0164 N   0  0  0  0  0  0  0  0  0  0  0  0
    4.0997   -1.8633    0.0611 C   0  0  0  0  0  0  0  0  0  0  0  0
    3.4910    3.8553    6.3190 H   0  0  0  0  0  0  0  0  0  0  0  0
    4.4368    3.4558    4.8557 H   0  0  0  0  0  0  0  0  0  0  0  0
    3.0426    2.4407    5.3483 H   0  0  0  0  0  0  0  0  0  0  0  0
    2.3216    5.9886    5.8372 H   0  0  0  0  0  0  0  0  0  0  0  0
    0.7604    6.9319    3.7388 H   0  0  0  0  0  0  0  0  0  0  0  0
    1.8447    2.9142    1.5023 H   0  0  0  0  0  0  0  0  0  0  0  0
    3.4015    2.7168    2.3369 H   0  0  0  0  0  0  0  0  0  0  0  0
    2.3718   -1.1989    4.0846 H   0  0  0  0  0  0  0  0  0  0  0  0
    0.7961   -1.2061    3.2269 H   0  0  0  0  0  0  0  0  0  0  0  0
    2.7962   -2.9674    2.6400 H   0  0  0  0  0  0  0  0  0  0  0  0
    1.6973   -2.3547    1.3688 H   0  0  0  0  0  0  0  0  0  0  0  0
    2.6234    0.3693    0.5271 H   0  0  0  0  0  0  0  0  0  0  0  0
    4.0181    0.7517    1.5727 H   0  0  0  0  0  0  0  0  0  0  0  0
    5.4032   -0.8493    2.5822 H   0  0  0  0  0  0  0  0  0  0  0  0
    5.0737   -2.6157    2.3926 H   0  0  0  0  0  0  0  0  0  0  0  0
    6.8109   -3.8117    1.9397 H   0  0  0  0  0  0  0  0  0  0  0  0
    3.9155   -2.9207   -0.1035 H   0  0  0  0  0  0  0  0  0  0  0  0
    3.7842   -1.2505   -0.7834 H   0  0  0  0  0  0  0  0  0  0  0  0
    0.8530    5.0211    1.9739 H   0  0  0  0  0  0  0  0  0  0  0  0
  1  2  1  0
  1 23  1  0
  1 24  1  0
  1 25  1  0
  2  6  1  0
  2  3  1  0
  3  4  2  0
  3 26  1  0
  4  5  1  0
  4 27  1  0
  5  6  2  0
  5 41  1  0
  6  7  1  0
  7  8  1  0
  7 28  1  0
  7 29  1  0
  8  9  2  0
  8 10  1  0
 10 14  1  0
 10 11  1  0
 11 12  1  0
 11 30  1  0
 11 31  1  0
 12 13  1  0
 12 32  1  0
 12 33  1  0
 13 22  1  0
 13 14  1  0
 13 15  1  0
 14 34  1  0
 14 35  1  0
 15 16  1  0
 15 36  1  0
 15 37  1  0
 16 17  1  0
 16 22  1  0
 17 21  2  0
 17 18  1  0
 18 19  2  0
 18 38  1  0
 19 20  1  0
 20 21  1  0
 22 39  1  0
 22 40  1  0
M  CHG  1   5   1
M  END
>  <i_m_ct_stereo_status>  (107) 
1

>  <s_m_source_file>  (107) 
/var/tmp/pbs.5076255.sched01/tmpmtrcy7mx/460f9z2a7c.sdf

>  <i_m_source_file_index>  (107) 
3

>  <i_lp_mmshare_version>  (107) 
48012

>  <i_f3d_flags>  (107) 
0

>  <s_epik_input>  (107) 
W0NIM11uMVtjSF1bY0hdbmMxW0NIMl1DKD1PKU4oW0NIMl0yKVtDSDJdW0NIMl1DMjNbQ0gyXU4oW0NIMl0zKWM0W2NIXW5zbjQ=

>  <s_epik_cmdline>  (107) 
J2VwaWtfcHl0aG9uJywgJy1waHQnLCAnMi4wJywgJy1waCcsICc3LjAnLCAnLXRuJywgJzgnLCAnLW1hJywgJzIwMCcsICctaW1hZScsICc8aW5maWxlLm1hZT4nLCAnLW9tYWUnLCAnPG91dGZpbGUubWFlPic=

>  <r_lp_tautomer_probability>  (107) 
1

>  <r_epik_Ionization_Penalty>  (107) 
0.393691

>  <r_epik_Ionization_Penalty_Charging>  (107) 
0

>  <r_epik_Ionization_Penalty_Neutral>  (107) 
0.393691

>  <r_epik_State_Penalty>  (107) 
0.392568

>  <r_epik_Charging_Adjusted_Penalty>  (107) 
0.392568

>  <i_epik_Tot_Q>  (107) 
1

>  <i_epik_Tot_abs_Q>  (107) 
1

>  <s_lp_Force_Field>  (107) 
OPLS3e

>  <r_lp_Energy>  (107) 
12.6315

>  <b_lp_Chiralities_Consistent>  (107) 
1

>  <s_lp_Variant>  (107) 
21:0-1

>  <s_i_glide_gridfile>  (107) 
pfpi4k_grid

>  <i_i_glide_lignum>  (107) 
3

>  <i_i_glide_rotatable_bonds>  (107) 
4

>  <r_i_docking_score>  (107) 
-3.98551

>  <r_i_glide_ligand_efficiency>  (107) 
-0.18116

>  <r_i_glide_ligand_efficiency_sa>  (107) 
-0.507616

>  <r_i_glide_ligand_efficiency_ln>  (107) 
-0.974204

>  <r_i_glide_gscore>  (107) 
-3.98551

>  <r_i_glide_lipo>  (107) 
-0.23931

>  <r_i_glide_hbond>  (107) 
-0.36

>  <r_i_glide_metal>  (107) 
-0

>  <r_i_glide_rewards>  (107) 
-1.33745

>  <r_i_glide_evdw>  (107) 
-21.6591

>  <r_i_glide_ecoul>  (107) 
-10.0901

>  <r_i_glide_erotb>  (107) 
0.731556

>  <r_i_glide_esite>  (107) 
-0.183843

>  <r_i_glide_emodel>  (107) 
-40.7167

>  <r_i_glide_energy>  (107) 
-31.7491

>  <r_i_glide_einternal>  (107) 
1.82965

>  <r_i_glide_intrahb_reward>  (107) 
-0

>  <i_i_glide_confnum>  (107) 
4

>  <i_i_glide_posenum>  (107) 
34

>  <r_i_glide_eff_state_penalty>  (107) 
0

>  <ligand_id>  (107) 
21

>  <original_smiles>  (107) 
Cn1ccnc1CC(=O)N1CCC2(C1)CN(c1cnsn1)C2

>  <smiles>  (107) 
[H]c1nsnc1N1C([H])([H])C2(C([H])([H])N(C(=O)C([H])([H])c3n(C([H])([H])[H])c([H])c([H])[n+]3[H])C([H])([H])C2([H])[H])C1([H])[H]

$$$$
21:0:1
     RDKit          3D

 41 44  0  0  1  0  0  0  0  0999 V2000
    0.7087    0.6105    5.5300 C   0  0  0  0  0  0  0  0  0  0  0  0
    0.3562    1.0879    4.1911 N   0  0  0  0  0  0  0  0  0  0  0  0
   -0.6229    0.5585    3.3906 C   0  0  0  0  0  0  0  0  0  0  0  0
   -0.6005    1.2317    2.2032 C   0  0  0  0  0  0  0  0  0  0  0  0
    0.3891    2.1504    2.3257 N   0  0  0  0  0  0  0  0  0  0  0  0
    0.9892    2.0741    3.5239 C   0  0  0  0  0  0  0  0  0  0  0  0
    2.1883    2.8839    3.9440 C   0  0  0  0  0  0  0  0  0  0  0  0
    3.4041    2.0544    4.4213 C   0  0  0  0  0  0  0  0  0  0  0  0
    4.0423    2.4601    5.3840 O   0  0  0  0  0  0  0  0  0  0  0  0
    3.7320    0.8946    3.8006 N   0  0  0  0  0  0  0  0  0  0  0  0
    4.7850   -0.0050    4.2420 C   0  0  0  0  0  0  0  0  0  0  0  0
    4.6310   -1.2370    3.3417 C   0  0  0  0  0  0  0  0  0  0  0  0
    3.9943   -0.7462    2.0631 C   0  0  0  0  0  0  0  0  0  0  0  0
    3.1569    0.3998    2.5647 C   0  0  0  0  0  0  0  0  0  0  0  0
    4.8943   -0.4505    0.8726 C   0  0  0  0  0  0  0  0  0  0  0  0
    3.8097   -0.9491    0.0431 N   0  0  0  0  0  0  0  0  0  0  0  0
    4.1541   -1.6519   -1.1203 C   0  0  0  0  0  0  0  0  0  0  0  0
    3.4825   -1.5101   -2.3699 C   0  0  0  0  0  0  0  0  0  0  0  0
    3.9823   -2.2084   -3.3638 N   0  0  0  0  0  0  0  0  0  0  0  0
    5.2429   -3.0782   -2.6991 S   0  0  0  0  0  0  0  0  0  0  0  0
    5.1669   -2.4881   -1.1338 N   0  0  0  0  0  0  0  0  0  0  0  0
    3.2566   -1.7205    1.1416 C   0  0  0  0  0  0  0  0  0  0  0  0
    0.1909   -0.3296    5.6966 H   0  0  0  0  0  0  0  0  0  0  0  0
    0.4329    1.3592    6.2729 H   0  0  0  0  0  0  0  0  0  0  0  0
    1.7686    0.3864    5.5851 H   0  0  0  0  0  0  0  0  0  0  0  0
   -1.2344   -0.2842    3.6971 H   0  0  0  0  0  0  0  0  0  0  0  0
   -1.1678    1.1129    1.2986 H   0  0  0  0  0  0  0  0  0  0  0  0
    2.4716    3.5095    3.0972 H   0  0  0  0  0  0  0  0  0  0  0  0
    1.8502    3.5499    4.7445 H   0  0  0  0  0  0  0  0  0  0  0  0
    5.7817    0.4263    4.0684 H   0  0  0  0  0  0  0  0  0  0  0  0
    4.7000   -0.3036    5.2902 H   0  0  0  0  0  0  0  0  0  0  0  0
    5.6141   -1.6589    3.1693 H   0  0  0  0  0  0  0  0  0  0  0  0
    3.9957   -1.9733    3.8272 H   0  0  0  0  0  0  0  0  0  0  0  0
    2.1686   -0.0246    2.7399 H   0  0  0  0  0  0  0  0  0  0  0  0
    3.1113    1.2118    1.8329 H   0  0  0  0  0  0  0  0  0  0  0  0
    5.0850    0.6127    0.7442 H   0  0  0  0  0  0  0  0  0  0  0  0
    5.8088   -1.0515    0.8698 H   0  0  0  0  0  0  0  0  0  0  0  0
    2.6306   -0.8621   -2.5344 H   0  0  0  0  0  0  0  0  0  0  0  0
    3.6086   -2.7569    1.2101 H   0  0  0  0  0  0  0  0  0  0  0  0
    2.1651   -1.6614    1.2111 H   0  0  0  0  0  0  0  0  0  0  0  0
    0.5850    2.8709    1.6188 H   0  0  0  0  0  0  0  0  0  0  0  0
  1  2  1  0
  1 23  1  0
  1 24  1  0
  1 25  1  0
  2  6  1  0
  2  3  1  0
  3  4  2  0
  3 26  1  0
  4  5  1  0
  4 27  1  0
  5  6  2  0
  5 41  1  0
  6  7  1  0
  7  8  1  0
  7 28  1  0
  7 29  1  0
  8  9  2  0
  8 10  1  0
 10 14  1  0
 10 11  1  0
 11 12  1  0
 11 30  1  0
 11 31  1  0
 12 13  1  0
 12 32  1  0
 12 33  1  0
 13 22  1  0
 13 14  1  0
 13 15  1  0
 14 34  1  0
 14 35  1  0
 15 16  1  0
 15 36  1  0
 15 37  1  0
 16 17  1  0
 16 22  1  0
 17 21  2  0
 17 18  1  0
 18 19  2  0
 18 38  1  0
 19 20  1  0
 20 21  1  0
 22 39  1  0
 22 40  1  0
M  CHG  1   5   1
M  END
>  <i_m_ct_stereo_status>  (108) 
1

>  <s_m_source_file>  (108) 
/var/tmp/pbs.5076255.sched01/tmpmtrcy7mx/460f9z2a7c.sdf

>  <i_m_source_file_index>  (108) 
3

>  <i_lp_mmshare_version>  (108) 
48012

>  <i_f3d_flags>  (108) 
0

>  <s_epik_input>  (108) 
W0NIM11uMVtjSF1bY0hdbmMxW0NIMl1DKD1PKU4oW0NIMl0yKVtDSDJdW0NIMl1DMjNbQ0gyXU4oW0NIMl0zKWM0W2NIXW5zbjQ=

>  <s_epik_cmdline>  (108) 
J2VwaWtfcHl0aG9uJywgJy1waHQnLCAnMi4wJywgJy1waCcsICc3LjAnLCAnLXRuJywgJzgnLCAnLW1hJywgJzIwMCcsICctaW1hZScsICc8aW5maWxlLm1hZT4nLCAnLW9tYWUnLCAnPG91dGZpbGUubWFlPic=

>  <r_lp_tautomer_probability>  (108) 
1

>  <r_epik_Ionization_Penalty>  (108) 
0.393691

>  <r_epik_Ionization_Penalty_Charging>  (108) 
0

>  <r_epik_Ionization_Penalty_Neutral>  (108) 
0.393691

>  <r_epik_State_Penalty>  (108) 
0.392568

>  <r_epik_Charging_Adjusted_Penalty>  (108) 
0.392568

>  <i_epik_Tot_Q>  (108) 
1

>  <i_epik_Tot_abs_Q>  (108) 
1

>  <s_lp_Force_Field>  (108) 
OPLS3e

>  <r_lp_Energy>  (108) 
12.6315

>  <b_lp_Chiralities_Consistent>  (108) 
1

>  <s_lp_Variant>  (108) 
21:0-1

>  <s_i_glide_gridfile>  (108) 
pfpi4k_grid

>  <i_i_glide_lignum>  (108) 
3

>  <i_i_glide_rotatable_bonds>  (108) 
4

>  <r_i_docking_score>  (108) 
-3.90246

>  <r_i_glide_ligand_efficiency>  (108) 
-0.177384

>  <r_i_glide_ligand_efficiency_sa>  (108) 
-0.497038

>  <r_i_glide_ligand_efficiency_ln>  (108) 
-0.953903

>  <r_i_glide_gscore>  (108) 
-3.90246

>  <r_i_glide_lipo>  (108) 
-0.566491

>  <r_i_glide_hbond>  (108) 
-0.2

>  <r_i_glide_metal>  (108) 
-0

>  <r_i_glide_rewards>  (108) 
-1.23132

>  <r_i_glide_evdw>  (108) 
-26.7162

>  <r_i_glide_ecoul>  (108) 
-7.35392

>  <r_i_glide_erotb>  (108) 
0.731556

>  <r_i_glide_esite>  (108) 
-0.197305

>  <r_i_glide_emodel>  (108) 
-40.4282

>  <r_i_glide_energy>  (108) 
-34.0701

>  <r_i_glide_einternal>  (108) 
4.48994

>  <r_i_glide_intrahb_reward>  (108) 
-0

>  <i_i_glide_confnum>  (108) 
4

>  <i_i_glide_posenum>  (108) 
17

>  <r_i_glide_eff_state_penalty>  (108) 
0

>  <ligand_id>  (108) 
21

>  <original_smiles>  (108) 
Cn1ccnc1CC(=O)N1CCC2(C1)CN(c1cnsn1)C2

>  <smiles>  (108) 
[H]c1nsnc1N1C([H])([H])C2(C([H])([H])N(C(=O)C([H])([H])c3n(C([H])([H])[H])c([H])c([H])[n+]3[H])C([H])([H])C2([H])[H])C1([H])[H]

$$$$
21:0:2
     RDKit          3D

 41 44  0  0  1  0  0  0  0  0999 V2000
    5.1887   -3.9718   -3.4000 C   0  0  0  0  0  0  0  0  0  0  0  0
    4.3595   -2.8095   -3.0511 N   0  0  0  0  0  0  0  0  0  0  0  0
    4.1940   -1.6831   -3.8038 C   0  0  0  0  0  0  0  0  0  0  0  0
    3.3427   -0.8614   -3.1056 C   0  0  0  0  0  0  0  0  0  0  0  0
    3.0158   -1.5268   -1.9672 N   0  0  0  0  0  0  0  0  0  0  0  0
    3.6639   -2.7054   -1.8930 C   0  0  0  0  0  0  0  0  0  0  0  0
    3.5557   -3.6790   -0.7528 C   0  0  0  0  0  0  0  0  0  0  0  0
    4.4232   -3.3065    0.4748 C   0  0  0  0  0  0  0  0  0  0  0  0
    5.4042   -4.0061    0.7539 O   0  0  0  0  0  0  0  0  0  0  0  0
    4.0814   -2.2479    1.2349 N   0  0  0  0  0  0  0  0  0  0  0  0
    4.8393   -1.7699    2.4051 C   0  0  0  0  0  0  0  0  0  0  0  0
    4.1737   -0.4332    2.7858 C   0  0  0  0  0  0  0  0  0  0  0  0
    2.7429   -0.5323    2.2704 C   0  0  0  0  0  0  0  0  0  0  0  0
    2.8921   -1.4221    1.0615 C   0  0  0  0  0  0  0  0  0  0  0  0
    1.6520   -0.9188    3.2752 C   0  0  0  0  0  0  0  0  0  0  0  0
    0.8115    0.0193    2.5599 N   0  0  0  0  0  0  0  0  0  0  0  0
   -0.1434    0.7467    3.3033 C   0  0  0  0  0  0  0  0  0  0  0  0
   -0.6878    2.0159    2.9528 C   0  0  0  0  0  0  0  0  0  0  0  0
   -1.5932    2.4824    3.7804 N   0  0  0  0  0  0  0  0  0  0  0  0
   -1.7315    1.3363    4.9880 S   0  0  0  0  0  0  0  0  0  0  0  0
   -0.6293    0.2319    4.4137 N   0  0  0  0  0  0  0  0  0  0  0  0
    1.9394    0.7520    2.0194 C   0  0  0  0  0  0  0  0  0  0  0  0
    5.7945   -3.7297   -4.2732 H   0  0  0  0  0  0  0  0  0  0  0  0
    4.5364   -4.8026   -3.6656 H   0  0  0  0  0  0  0  0  0  0  0  0
    5.8311   -4.2223   -2.5507 H   0  0  0  0  0  0  0  0  0  0  0  0
    4.6650   -1.4955   -4.7591 H   0  0  0  0  0  0  0  0  0  0  0  0
    2.9510    0.1248   -3.3276 H   0  0  0  0  0  0  0  0  0  0  0  0
    2.5048   -3.7714   -0.4802 H   0  0  0  0  0  0  0  0  0  0  0  0
    3.8659   -4.6483   -1.1156 H   0  0  0  0  0  0  0  0  0  0  0  0
    4.7164   -2.4718    3.2389 H   0  0  0  0  0  0  0  0  0  0  0  0
    5.9073   -1.6212    2.1996 H   0  0  0  0  0  0  0  0  0  0  0  0
    4.1993   -0.2772    3.8703 H   0  0  0  0  0  0  0  0  0  0  0  0
    4.6804    0.4070    2.2866 H   0  0  0  0  0  0  0  0  0  0  0  0
    3.0422   -0.7548    0.2179 H   0  0  0  0  0  0  0  0  0  0  0  0
    2.0132   -2.0569    0.9401 H   0  0  0  0  0  0  0  0  0  0  0  0
    1.3484   -1.9617    3.1884 H   0  0  0  0  0  0  0  0  0  0  0  0
    1.9040   -0.6251    4.2959 H   0  0  0  0  0  0  0  0  0  0  0  0
   -0.4394    2.5810    2.0672 H   0  0  0  0  0  0  0  0  0  0  0  0
    2.2644    1.6013    2.6133 H   0  0  0  0  0  0  0  0  0  0  0  0
    1.8270    1.0054    0.9663 H   0  0  0  0  0  0  0  0  0  0  0  0
    2.2929   -1.2105   -1.2878 H   0  0  0  0  0  0  0  0  0  0  0  0
  1  2  1  0
  1 23  1  0
  1 24  1  0
  1 25  1  0
  2  6  1  0
  2  3  1  0
  3  4  2  0
  3 26  1  0
  4  5  1  0
  4 27  1  0
  5  6  2  0
  5 41  1  0
  6  7  1  0
  7  8  1  0
  7 28  1  0
  7 29  1  0
  8  9  2  0
  8 10  1  0
 10 14  1  0
 10 11  1  0
 11 12  1  0
 11 30  1  0
 11 31  1  0
 12 13  1  0
 12 32  1  0
 12 33  1  0
 13 22  1  0
 13 14  1  0
 13 15  1  0
 14 34  1  0
 14 35  1  0
 15 16  1  0
 15 36  1  0
 15 37  1  0
 16 17  1  0
 16 22  1  0
 17 21  2  0
 17 18  1  0
 18 19  2  0
 18 38  1  0
 19 20  1  0
 20 21  1  0
 22 39  1  0
 22 40  1  0
M  CHG  1   5   1
M  END
>  <i_m_ct_stereo_status>  (109) 
1

>  <s_m_source_file>  (109) 
/var/tmp/pbs.5076255.sched01/tmpmtrcy7mx/460f9z2a7c.sdf

>  <i_m_source_file_index>  (109) 
3

>  <i_lp_mmshare_version>  (109) 
48012

>  <i_f3d_flags>  (109) 
0

>  <s_epik_input>  (109) 
W0NIM11uMVtjSF1bY0hdbmMxW0NIMl1DKD1PKU4oW0NIMl0yKVtDSDJdW0NIMl1DMjNbQ0gyXU4oW0NIMl0zKWM0W2NIXW5zbjQ=

>  <s_epik_cmdline>  (109) 
J2VwaWtfcHl0aG9uJywgJy1waHQnLCAnMi4wJywgJy1waCcsICc3LjAnLCAnLXRuJywgJzgnLCAnLW1hJywgJzIwMCcsICctaW1hZScsICc8aW5maWxlLm1hZT4nLCAnLW9tYWUnLCAnPG91dGZpbGUubWFlPic=

>  <r_lp_tautomer_probability>  (109) 
1

>  <r_epik_Ionization_Penalty>  (109) 
0.393691

>  <r_epik_Ionization_Penalty_Charging>  (109) 
0

>  <r_epik_Ionization_Penalty_Neutral>  (109) 
0.393691

>  <r_epik_State_Penalty>  (109) 
0.392568

>  <r_epik_Charging_Adjusted_Penalty>  (109) 
0.392568

>  <i_epik_Tot_Q>  (109) 
1

>  <i_epik_Tot_abs_Q>  (109) 
1

>  <s_lp_Force_Field>  (109) 
OPLS3e

>  <r_lp_Energy>  (109) 
12.6315

>  <b_lp_Chiralities_Consistent>  (109) 
1

>  <s_lp_Variant>  (109) 
21:0-1

>  <s_i_glide_gridfile>  (109) 
pfpi4k_grid

>  <i_i_glide_lignum>  (109) 
3

>  <i_i_glide_rotatable_bonds>  (109) 
4

>  <r_i_docking_score>  (109) 
-3.36257

>  <r_i_glide_ligand_efficiency>  (109) 
-0.152844

>  <r_i_glide_ligand_efficiency_sa>  (109) 
-0.428275

>  <r_i_glide_ligand_efficiency_ln>  (109) 
-0.821935

>  <r_i_glide_gscore>  (109) 
-3.36257

>  <r_i_glide_lipo>  (109) 
-0.284811

>  <r_i_glide_hbond>  (109) 
-0.2

>  <r_i_glide_metal>  (109) 
-0

>  <r_i_glide_rewards>  (109) 
-1.40841

>  <r_i_glide_evdw>  (109) 
-26.8439

>  <r_i_glide_ecoul>  (109) 
-4.65745

>  <r_i_glide_erotb>  (109) 
0.731556

>  <r_i_glide_esite>  (109) 
-0.160095

>  <r_i_glide_emodel>  (109) 
-38.8118

>  <r_i_glide_energy>  (109) 
-31.5013

>  <r_i_glide_einternal>  (109) 
0.515096

>  <r_i_glide_intrahb_reward>  (109) 
-0

>  <i_i_glide_confnum>  (109) 
4

>  <i_i_glide_posenum>  (109) 
14

>  <r_i_glide_eff_state_penalty>  (109) 
0

>  <ligand_id>  (109) 
21

>  <original_smiles>  (109) 
Cn1ccnc1CC(=O)N1CCC2(C1)CN(c1cnsn1)C2

>  <smiles>  (109) 
[H]c1nsnc1N1C([H])([H])C2(C([H])([H])N(C(=O)C([H])([H])c3n(C([H])([H])[H])c([H])c([H])[n+]3[H])C([H])([H])C2([H])[H])C1([H])[H]

$$$$
21:1:0
     RDKit          3D

 40 43  0  0  1  0  0  0  0  0999 V2000
    0.9882   -9.9725    3.5225 C   0  0  0  0  0  0  0  0  0  0  0  0
    0.1641   -8.8375    3.1567 N   0  0  0  0  0  0  0  0  0  0  0  0
   -1.1725   -8.6808    3.4570 C   0  0  0  0  0  0  0  0  0  0  0  0
   -1.5758   -7.4889    2.8806 C   0  0  0  0  0  0  0  0  0  0  0  0
   -0.5124   -6.9017    2.2496 N   0  0  0  0  0  0  0  0  0  0  0  0
    0.5139   -7.7372    2.4336 C   0  0  0  0  0  0  0  0  0  0  0  0
    1.8720   -7.5577    1.8264 C   0  0  0  0  0  0  0  0  0  0  0  0
    2.7297   -6.5538    2.6329 C   0  0  0  0  0  0  0  0  0  0  0  0
    2.7420   -6.5700    3.8523 O   0  0  0  0  0  0  0  0  0  0  0  0
    3.4823   -5.6286    1.9441 N   0  0  0  0  0  0  0  0  0  0  0  0
    4.3496   -4.6460    2.5785 C   0  0  0  0  0  0  0  0  0  0  0  0
    5.1247   -3.9805    1.4175 C   0  0  0  0  0  0  0  0  0  0  0  0
    4.2429   -4.1790    0.2039 C   0  0  0  0  0  0  0  0  0  0  0  0
    3.5190   -5.4805    0.4978 C   0  0  0  0  0  0  0  0  0  0  0  0
    4.8589   -4.0454   -1.2038 C   0  0  0  0  0  0  0  0  0  0  0  0
    3.6339   -3.3396   -1.5635 N   0  0  0  0  0  0  0  0  0  0  0  0
    3.7478   -2.3256   -2.5143 C   0  0  0  0  0  0  0  0  0  0  0  0
    3.7898   -2.5303   -3.9292 C   0  0  0  0  0  0  0  0  0  0  0  0
    3.8240   -1.4468   -4.6571 N   0  0  0  0  0  0  0  0  0  0  0  0
    3.7454   -0.1833   -3.5831 S   0  0  0  0  0  0  0  0  0  0  0  0
    3.8063   -1.0553   -2.1667 N   0  0  0  0  0  0  0  0  0  0  0  0
    3.3536   -2.9779   -0.1805 C   0  0  0  0  0  0  0  0  0  0  0  0
    0.3641  -10.7160    4.0218 H   0  0  0  0  0  0  0  0  0  0  0  0
    1.7725   -9.6513    4.2070 H   0  0  0  0  0  0  0  0  0  0  0  0
    1.4319  -10.4366    2.6386 H   0  0  0  0  0  0  0  0  0  0  0  0
   -1.7027   -9.4107    4.0194 H   0  0  0  0  0  0  0  0  0  0  0  0
   -2.5642   -7.0591    2.9123 H   0  0  0  0  0  0  0  0  0  0  0  0
    2.4268   -8.4924    1.7603 H   0  0  0  0  0  0  0  0  0  0  0  0
    1.6840   -7.2454    0.7961 H   0  0  0  0  0  0  0  0  0  0  0  0
    3.7597   -3.8586    3.0784 H   0  0  0  0  0  0  0  0  0  0  0  0
    5.0719   -5.0596    3.2978 H   0  0  0  0  0  0  0  0  0  0  0  0
    5.2816   -2.9244    1.6563 H   0  0  0  0  0  0  0  0  0  0  0  0
    6.0941   -4.4799    1.2712 H   0  0  0  0  0  0  0  0  0  0  0  0
    4.0400   -6.3347    0.0487 H   0  0  0  0  0  0  0  0  0  0  0  0
    2.5074   -5.4142    0.1030 H   0  0  0  0  0  0  0  0  0  0  0  0
    5.7412   -3.4243   -1.2534 H   0  0  0  0  0  0  0  0  0  0  0  0
    4.9853   -5.0020   -1.7125 H   0  0  0  0  0  0  0  0  0  0  0  0
    3.7527   -3.5013   -4.4050 H   0  0  0  0  0  0  0  0  0  0  0  0
    2.3071   -3.0894    0.1032 H   0  0  0  0  0  0  0  0  0  0  0  0
    3.7647   -2.0253    0.1254 H   0  0  0  0  0  0  0  0  0  0  0  0
  1  2  1  0
  1 23  1  0
  1 24  1  0
  1 25  1  0
  2  6  1  0
  2  3  1  0
  3  4  2  0
  3 26  1  0
  4  5  1  0
  4 27  1  0
  5  6  2  0
  6  7  1  0
  7  8  1  0
  7 28  1  0
  7 29  1  0
  8  9  2  0
  8 10  1  0
 10 14  1  0
 10 11  1  0
 11 12  1  0
 11 30  1  0
 11 31  1  0
 12 13  1  0
 12 32  1  0
 12 33  1  0
 13 22  1  0
 13 14  1  0
 13 15  1  0
 14 34  1  0
 14 35  1  0
 15 16  1  0
 15 36  1  0
 15 37  1  0
 16 17  1  0
 16 22  1  0
 17 21  2  0
 17 18  1  0
 18 19  2  0
 18 38  1  0
 19 20  1  0
 20 21  1  0
 22 39  1  0
 22 40  1  0
M  END
>  <i_m_ct_stereo_status>  (110) 
1

>  <s_m_source_file>  (110) 
/var/tmp/pbs.5076255.sched01/tmpmtrcy7mx/460f9z2a7c.sdf

>  <i_m_source_file_index>  (110) 
4

>  <i_lp_mmshare_version>  (110) 
48012

>  <i_f3d_flags>  (110) 
0

>  <s_epik_input>  (110) 
W0NIM11uMVtjSF1bY0hdbmMxW0NIMl1DKD1PKU4oW0NIMl0yKVtDSDJdW0NIMl1DMjNbQ0gyXU4oW0NIMl0zKWM0W2NIXW5zbjQ=

>  <s_epik_cmdline>  (110) 
J2VwaWtfcHl0aG9uJywgJy1waHQnLCAnMi4wJywgJy1waCcsICc3LjAnLCAnLXRuJywgJzgnLCAnLW1hJywgJzIwMCcsICctaW1hZScsICc8aW5maWxlLm1hZT4nLCAnLW9tYWUnLCAnPG91dGZpbGUubWFlPic=

>  <r_lp_tautomer_probability>  (110) 
1

>  <r_epik_Ionization_Penalty>  (110) 
0.428173

>  <r_epik_Ionization_Penalty_Charging>  (110) 
0.428172

>  <r_epik_Ionization_Penalty_Neutral>  (110) 
1.51008e-06

>  <r_epik_State_Penalty>  (110) 
0.429363

>  <r_epik_Charging_Adjusted_Penalty>  (110) 
0.857535

>  <i_epik_Tot_Q>  (110) 
0

>  <i_epik_Tot_abs_Q>  (110) 
0

>  <s_lp_Force_Field>  (110) 
OPLS3e

>  <r_lp_Energy>  (110) 
8.97014

>  <b_lp_Chiralities_Consistent>  (110) 
1

>  <s_lp_Variant>  (110) 
21:0-2

>  <s_i_glide_gridfile>  (110) 
pfpi4k_grid

>  <i_i_glide_lignum>  (110) 
4

>  <i_i_glide_rotatable_bonds>  (110) 
4

>  <r_i_docking_score>  (110) 
-3.58385

>  <r_i_glide_ligand_efficiency>  (110) 
-0.162902

>  <r_i_glide_ligand_efficiency_sa>  (110) 
-0.456459

>  <r_i_glide_ligand_efficiency_ln>  (110) 
-0.876025

>  <r_i_glide_gscore>  (110) 
-3.58385

>  <r_i_glide_lipo>  (110) 
-0.296249

>  <r_i_glide_hbond>  (110) 
-0.48

>  <r_i_glide_metal>  (110) 
-0

>  <r_i_glide_rewards>  (110) 
-1.28722

>  <r_i_glide_evdw>  (110) 
-29.1729

>  <r_i_glide_ecoul>  (110) 
-4.78723

>  <r_i_glide_erotb>  (110) 
0.73564

>  <r_i_glide_esite>  (110) 
-0.0792974

>  <r_i_glide_emodel>  (110) 
-40.5668

>  <r_i_glide_energy>  (110) 
-33.9601

>  <r_i_glide_einternal>  (110) 
2.34546

>  <r_i_glide_intrahb_reward>  (110) 
-0

>  <i_i_glide_confnum>  (110) 
4

>  <i_i_glide_posenum>  (110) 
1

>  <r_i_glide_eff_state_penalty>  (110) 
0

>  <ligand_id>  (110) 
21

>  <original_smiles>  (110) 
Cn1ccnc1CC(=O)N1CCC2(C1)CN(c1cnsn1)C2

>  <smiles>  (110) 
[H]c1nsnc1N1C([H])([H])C2(C([H])([H])N(C(=O)C([H])([H])c3nc([H])c([H])n3C([H])([H])[H])C([H])([H])C2([H])[H])C1([H])[H]

$$$$
21:1:1
     RDKit          3D

 40 43  0  0  1  0  0  0  0  0999 V2000
    6.4677   -2.9121   -2.3339 C   0  0  0  0  0  0  0  0  0  0  0  0
    5.0606   -2.8403   -2.6619 N   0  0  0  0  0  0  0  0  0  0  0  0
    4.4470   -3.5197   -3.7021 C   0  0  0  0  0  0  0  0  0  0  0  0
    3.1206   -3.1606   -3.6946 C   0  0  0  0  0  0  0  0  0  0  0  0
    2.9008   -2.2705   -2.6670 N   0  0  0  0  0  0  0  0  0  0  0  0
    4.0770   -2.1150   -2.0682 C   0  0  0  0  0  0  0  0  0  0  0  0
    4.2606   -1.1584   -0.9097 C   0  0  0  0  0  0  0  0  0  0  0  0
    5.1578   -1.6812    0.2330 C   0  0  0  0  0  0  0  0  0  0  0  0
    6.3335   -1.3199    0.2992 O   0  0  0  0  0  0  0  0  0  0  0  0
    4.6279   -2.5243    1.1411 N   0  0  0  0  0  0  0  0  0  0  0  0
    5.3567   -3.0659    2.2854 C   0  0  0  0  0  0  0  0  0  0  0  0
    4.3012   -3.7929    3.1337 C   0  0  0  0  0  0  0  0  0  0  0  0
    3.2032   -4.1553    2.1560 C   0  0  0  0  0  0  0  0  0  0  0  0
    3.2734   -3.0458    1.1104 C   0  0  0  0  0  0  0  0  0  0  0  0
    1.8063   -4.4874    2.6908 C   0  0  0  0  0  0  0  0  0  0  0  0
    1.7790   -5.5477    1.6919 N   0  0  0  0  0  0  0  0  0  0  0  0
    1.1188   -6.7419    2.0362 C   0  0  0  0  0  0  0  0  0  0  0  0
    1.6924   -8.0429    2.2346 C   0  0  0  0  0  0  0  0  0  0  0  0
    0.8342   -8.9908    2.5082 N   0  0  0  0  0  0  0  0  0  0  0  0
   -0.6694   -8.2678    2.4987 S   0  0  0  0  0  0  0  0  0  0  0  0
   -0.1862   -6.7005    2.1654 N   0  0  0  0  0  0  0  0  0  0  0  0
    3.2293   -5.5881    1.6148 C   0  0  0  0  0  0  0  0  0  0  0  0
    6.9911   -3.5055   -3.0821 H   0  0  0  0  0  0  0  0  0  0  0  0
    6.5983   -3.3928   -1.3637 H   0  0  0  0  0  0  0  0  0  0  0  0
    6.8893   -1.9067   -2.3144 H   0  0  0  0  0  0  0  0  0  0  0  0
    4.9928   -4.2020   -4.3398 H   0  0  0  0  0  0  0  0  0  0  0  0
    2.3262   -3.4918   -4.3297 H   0  0  0  0  0  0  0  0  0  0  0  0
    4.7059   -0.2451   -1.2988 H   0  0  0  0  0  0  0  0  0  0  0  0
    3.2798   -0.8728   -0.5149 H   0  0  0  0  0  0  0  0  0  0  0  0
    6.1126   -3.7926    1.9420 H   0  0  0  0  0  0  0  0  0  0  0  0
    5.8625   -2.2947    2.8849 H   0  0  0  0  0  0  0  0  0  0  0  0
    4.7397   -4.6830    3.6170 H   0  0  0  0  0  0  0  0  0  0  0  0
    3.9132   -3.1271    3.9112 H   0  0  0  0  0  0  0  0  0  0  0  0
    2.5606   -2.2446    1.3340 H   0  0  0  0  0  0  0  0  0  0  0  0
    3.0524   -3.4496    0.1171 H   0  0  0  0  0  0  0  0  0  0  0  0
    1.7972   -4.8432    3.7212 H   0  0  0  0  0  0  0  0  0  0  0  0
    1.0817   -3.6874    2.5250 H   0  0  0  0  0  0  0  0  0  0  0  0
    2.7429   -8.3065    2.1594 H   0  0  0  0  0  0  0  0  0  0  0  0
    3.6243   -5.6815    0.6000 H   0  0  0  0  0  0  0  0  0  0  0  0
    3.6909   -6.2880    2.3094 H   0  0  0  0  0  0  0  0  0  0  0  0
  1  2  1  0
  1 23  1  0
  1 24  1  0
  1 25  1  0
  2  6  1  0
  2  3  1  0
  3  4  2  0
  3 26  1  0
  4  5  1  0
  4 27  1  0
  5  6  2  0
  6  7  1  0
  7  8  1  0
  7 28  1  0
  7 29  1  0
  8  9  2  0
  8 10  1  0
 10 14  1  0
 10 11  1  0
 11 12  1  0
 11 30  1  0
 11 31  1  0
 12 13  1  0
 12 32  1  0
 12 33  1  0
 13 22  1  0
 13 14  1  0
 13 15  1  0
 14 34  1  0
 14 35  1  0
 15 16  1  0
 15 36  1  0
 15 37  1  0
 16 17  1  0
 16 22  1  0
 17 21  2  0
 17 18  1  0
 18 19  2  0
 18 38  1  0
 19 20  1  0
 20 21  1  0
 22 39  1  0
 22 40  1  0
M  END
>  <i_m_ct_stereo_status>  (111) 
1

>  <s_m_source_file>  (111) 
/var/tmp/pbs.5076255.sched01/tmpmtrcy7mx/460f9z2a7c.sdf

>  <i_m_source_file_index>  (111) 
4

>  <i_lp_mmshare_version>  (111) 
48012

>  <i_f3d_flags>  (111) 
0

>  <s_epik_input>  (111) 
W0NIM11uMVtjSF1bY0hdbmMxW0NIMl1DKD1PKU4oW0NIMl0yKVtDSDJdW0NIMl1DMjNbQ0gyXU4oW0NIMl0zKWM0W2NIXW5zbjQ=

>  <s_epik_cmdline>  (111) 
J2VwaWtfcHl0aG9uJywgJy1waHQnLCAnMi4wJywgJy1waCcsICc3LjAnLCAnLXRuJywgJzgnLCAnLW1hJywgJzIwMCcsICctaW1hZScsICc8aW5maWxlLm1hZT4nLCAnLW9tYWUnLCAnPG91dGZpbGUubWFlPic=

>  <r_lp_tautomer_probability>  (111) 
1

>  <r_epik_Ionization_Penalty>  (111) 
0.428173

>  <r_epik_Ionization_Penalty_Charging>  (111) 
0.428172

>  <r_epik_Ionization_Penalty_Neutral>  (111) 
1.51008e-06

>  <r_epik_State_Penalty>  (111) 
0.429363

>  <r_epik_Charging_Adjusted_Penalty>  (111) 
0.857535

>  <i_epik_Tot_Q>  (111) 
0

>  <i_epik_Tot_abs_Q>  (111) 
0

>  <s_lp_Force_Field>  (111) 
OPLS3e

>  <r_lp_Energy>  (111) 
8.97014

>  <b_lp_Chiralities_Consistent>  (111) 
1

>  <s_lp_Variant>  (111) 
21:0-2

>  <s_i_glide_gridfile>  (111) 
pfpi4k_grid

>  <i_i_glide_lignum>  (111) 
4

>  <i_i_glide_rotatable_bonds>  (111) 
4

>  <r_i_docking_score>  (111) 
-3.45628

>  <r_i_glide_ligand_efficiency>  (111) 
-0.157104

>  <r_i_glide_ligand_efficiency_sa>  (111) 
-0.440211

>  <r_i_glide_ligand_efficiency_ln>  (111) 
-0.844842

>  <r_i_glide_gscore>  (111) 
-3.45628

>  <r_i_glide_lipo>  (111) 
-0.416154

>  <r_i_glide_hbond>  (111) 
-0.16

>  <r_i_glide_metal>  (111) 
-0

>  <r_i_glide_rewards>  (111) 
-1.55482

>  <r_i_glide_evdw>  (111) 
-31.3243

>  <r_i_glide_ecoul>  (111) 
-2.83158

>  <r_i_glide_erotb>  (111) 
0.73564

>  <r_i_glide_esite>  (111) 
-0.0700001

>  <r_i_glide_emodel>  (111) 
-39.99

>  <r_i_glide_energy>  (111) 
-34.1558

>  <r_i_glide_einternal>  (111) 
3.61982

>  <r_i_glide_intrahb_reward>  (111) 
-0

>  <i_i_glide_confnum>  (111) 
4

>  <i_i_glide_posenum>  (111) 
2

>  <r_i_glide_eff_state_penalty>  (111) 
0

>  <ligand_id>  (111) 
21

>  <original_smiles>  (111) 
Cn1ccnc1CC(=O)N1CCC2(C1)CN(c1cnsn1)C2

>  <smiles>  (111) 
[H]c1nsnc1N1C([H])([H])C2(C([H])([H])N(C(=O)C([H])([H])c3nc([H])c([H])n3C([H])([H])[H])C([H])([H])C2([H])[H])C1([H])[H]

$$$$
21:1:2
     RDKit          3D

 40 43  0  0  1  0  0  0  0  0999 V2000
    6.2508   -2.8390   -2.4561 C   0  0  0  0  0  0  0  0  0  0  0  0
    5.5730   -2.1789   -1.3645 N   0  0  0  0  0  0  0  0  0  0  0  0
    4.2366   -1.8019   -1.3406 C   0  0  0  0  0  0  0  0  0  0  0  0
    4.0060   -1.2046   -0.1244 C   0  0  0  0  0  0  0  0  0  0  0  0
    5.1891   -1.1708    0.5927 N   0  0  0  0  0  0  0  0  0  0  0  0
    6.0820   -1.8013   -0.1699 C   0  0  0  0  0  0  0  0  0  0  0  0
    7.4976   -2.0654    0.2831 C   0  0  0  0  0  0  0  0  0  0  0  0
    7.9024   -3.5587    0.3593 C   0  0  0  0  0  0  0  0  0  0  0  0
    8.9750   -3.9001   -0.1392 O   0  0  0  0  0  0  0  0  0  0  0  0
    7.1113   -4.4612    0.9784 N   0  0  0  0  0  0  0  0  0  0  0  0
    7.4344   -5.8817    1.1274 C   0  0  0  0  0  0  0  0  0  0  0  0
    6.3425   -6.4599    2.0412 C   0  0  0  0  0  0  0  0  0  0  0  0
    5.1604   -5.5326    1.8742 C   0  0  0  0  0  0  0  0  0  0  0  0
    5.8134   -4.1979    1.5765 C   0  0  0  0  0  0  0  0  0  0  0  0
    4.0492   -5.4832    2.9254 C   0  0  0  0  0  0  0  0  0  0  0  0
    3.1219   -5.3735    1.8073 N   0  0  0  0  0  0  0  0  0  0  0  0
    1.8646   -5.9908    1.9471 C   0  0  0  0  0  0  0  0  0  0  0  0
    1.1145   -6.1124    3.1601 C   0  0  0  0  0  0  0  0  0  0  0  0
   -0.0679   -6.6633    3.0305 N   0  0  0  0  0  0  0  0  0  0  0  0
   -0.1842   -7.0900    1.4237 S   0  0  0  0  0  0  0  0  0  0  0  0
    1.2544   -6.4473    0.8791 N   0  0  0  0  0  0  0  0  0  0  0  0
    4.0698   -5.9672    0.8791 C   0  0  0  0  0  0  0  0  0  0  0  0
    5.5901   -2.8939   -3.3231 H   0  0  0  0  0  0  0  0  0  0  0  0
    6.5180   -3.8480   -2.1593 H   0  0  0  0  0  0  0  0  0  0  0  0
    7.1633   -2.3026   -2.7196 H   0  0  0  0  0  0  0  0  0  0  0  0
    3.5579   -2.0092   -2.1585 H   0  0  0  0  0  0  0  0  0  0  0  0
    3.0821   -0.8410    0.2765 H   0  0  0  0  0  0  0  0  0  0  0  0
    8.2004   -1.5461   -0.3771 H   0  0  0  0  0  0  0  0  0  0  0  0
    7.6266   -1.6033    1.2616 H   0  0  0  0  0  0  0  0  0  0  0  0
    7.3894   -6.3704    0.1413 H   0  0  0  0  0  0  0  0  0  0  0  0
    8.4297   -6.0730    1.5580 H   0  0  0  0  0  0  0  0  0  0  0  0
    6.0967   -7.4917    1.7377 H   0  0  0  0  0  0  0  0  0  0  0  0
    6.6741   -6.4572    3.0841 H   0  0  0  0  0  0  0  0  0  0  0  0
    5.9258   -3.5806    2.4774 H   0  0  0  0  0  0  0  0  0  0  0  0
    5.1576   -3.7049    0.8659 H   0  0  0  0  0  0  0  0  0  0  0  0
    3.9549   -6.3998    3.5092 H   0  0  0  0  0  0  0  0  0  0  0  0
    4.0791   -4.5830    3.5480 H   0  0  0  0  0  0  0  0  0  0  0  0
    1.4203   -5.7544    4.1341 H   0  0  0  0  0  0  0  0  0  0  0  0
    4.1163   -5.4688   -0.0936 H   0  0  0  0  0  0  0  0  0  0  0  0
    3.9694   -7.0466    0.7745 H   0  0  0  0  0  0  0  0  0  0  0  0
  1  2  1  0
  1 23  1  0
  1 24  1  0
  1 25  1  0
  2  6  1  0
  2  3  1  0
  3  4  2  0
  3 26  1  0
  4  5  1  0
  4 27  1  0
  5  6  2  0
  6  7  1  0
  7  8  1  0
  7 28  1  0
  7 29  1  0
  8  9  2  0
  8 10  1  0
 10 14  1  0
 10 11  1  0
 11 12  1  0
 11 30  1  0
 11 31  1  0
 12 13  1  0
 12 32  1  0
 12 33  1  0
 13 22  1  0
 13 14  1  0
 13 15  1  0
 14 34  1  0
 14 35  1  0
 15 16  1  0
 15 36  1  0
 15 37  1  0
 16 17  1  0
 16 22  1  0
 17 21  2  0
 17 18  1  0
 18 19  2  0
 18 38  1  0
 19 20  1  0
 20 21  1  0
 22 39  1  0
 22 40  1  0
M  END
>  <i_m_ct_stereo_status>  (112) 
1

>  <s_m_source_file>  (112) 
/var/tmp/pbs.5076255.sched01/tmpmtrcy7mx/460f9z2a7c.sdf

>  <i_m_source_file_index>  (112) 
4

>  <i_lp_mmshare_version>  (112) 
48012

>  <i_f3d_flags>  (112) 
0

>  <s_epik_input>  (112) 
W0NIM11uMVtjSF1bY0hdbmMxW0NIMl1DKD1PKU4oW0NIMl0yKVtDSDJdW0NIMl1DMjNbQ0gyXU4oW0NIMl0zKWM0W2NIXW5zbjQ=

>  <s_epik_cmdline>  (112) 
J2VwaWtfcHl0aG9uJywgJy1waHQnLCAnMi4wJywgJy1waCcsICc3LjAnLCAnLXRuJywgJzgnLCAnLW1hJywgJzIwMCcsICctaW1hZScsICc8aW5maWxlLm1hZT4nLCAnLW9tYWUnLCAnPG91dGZpbGUubWFlPic=

>  <r_lp_tautomer_probability>  (112) 
1

>  <r_epik_Ionization_Penalty>  (112) 
0.428173

>  <r_epik_Ionization_Penalty_Charging>  (112) 
0.428172

>  <r_epik_Ionization_Penalty_Neutral>  (112) 
1.51008e-06

>  <r_epik_State_Penalty>  (112) 
0.429363

>  <r_epik_Charging_Adjusted_Penalty>  (112) 
0.857535

>  <i_epik_Tot_Q>  (112) 
0

>  <i_epik_Tot_abs_Q>  (112) 
0

>  <s_lp_Force_Field>  (112) 
OPLS3e

>  <r_lp_Energy>  (112) 
8.97014

>  <b_lp_Chiralities_Consistent>  (112) 
1

>  <s_lp_Variant>  (112) 
21:0-2

>  <s_i_glide_gridfile>  (112) 
pfpi4k_grid

>  <i_i_glide_lignum>  (112) 
4

>  <i_i_glide_rotatable_bonds>  (112) 
4

>  <r_i_docking_score>  (112) 
-3.44579

>  <r_i_glide_ligand_efficiency>  (112) 
-0.156627

>  <r_i_glide_ligand_efficiency_sa>  (112) 
-0.438874

>  <r_i_glide_ligand_efficiency_ln>  (112) 
-0.842276

>  <r_i_glide_gscore>  (112) 
-3.44579

>  <r_i_glide_lipo>  (112) 
-0.366368

>  <r_i_glide_hbond>  (112) 
-0.300021

>  <r_i_glide_metal>  (112) 
-0

>  <r_i_glide_rewards>  (112) 
-1.70895

>  <r_i_glide_evdw>  (112) 
-27.849

>  <r_i_glide_ecoul>  (112) 
-2.4086

>  <r_i_glide_erotb>  (112) 
0.73564

>  <r_i_glide_esite>  (112) 
-0.0523466

>  <r_i_glide_emodel>  (112) 
-37.4225

>  <r_i_glide_energy>  (112) 
-30.2576

>  <r_i_glide_einternal>  (112) 
0.44774

>  <r_i_glide_intrahb_reward>  (112) 
-0

>  <i_i_glide_confnum>  (112) 
4

>  <i_i_glide_posenum>  (112) 
20

>  <r_i_glide_eff_state_penalty>  (112) 
0

>  <ligand_id>  (112) 
21

>  <original_smiles>  (112) 
Cn1ccnc1CC(=O)N1CCC2(C1)CN(c1cnsn1)C2

>  <smiles>  (112) 
[H]c1nsnc1N1C([H])([H])C2(C([H])([H])N(C(=O)C([H])([H])c3nc([H])c([H])n3C([H])([H])[H])C([H])([H])C2([H])[H])C1([H])[H]

$$$$
22:0:0
     RDKit          3D

 35 37  0  0  1  0  0  0  0  0999 V2000
    5.1843   -9.5041    2.4014 C   0  0  0  0  0  0  0  0  0  0  0  0
    4.2811   -8.4329    1.9404 N   0  0  0  0  0  0  0  0  0  0  0  0
    4.8319   -7.2957    1.4098 C   0  0  0  0  0  0  0  0  0  0  0  0
    6.0393   -7.0885    1.2848 O   0  0  0  0  0  0  0  0  0  0  0  0
    3.8475   -6.2965    0.9903 C   0  0  0  0  0  0  0  0  0  0  0  0
    2.5190   -6.4963    1.1366 C   0  0  0  0  0  0  0  0  0  0  0  0
    1.7942   -5.4368    0.6364 N   0  0  0  0  0  0  0  0  0  0  0  0
    2.7466   -4.5997    0.2349 C   0  0  0  0  0  0  0  0  0  0  0  0
    4.0126   -5.0435    0.3891 N   0  0  0  0  0  0  0  0  0  0  0  0
    5.2199   -4.3205    0.0075 C   0  0  0  0  0  0  0  0  0  0  0  0
    5.4277   -3.0945    0.9079 C   0  0  0  0  0  0  0  0  0  0  0  0
    6.6217   -2.2612    0.4162 C   0  0  0  0  0  0  0  0  0  0  0  0
    6.4397   -1.8838   -0.9486 O   0  0  0  0  0  0  0  0  0  0  0  0
    6.3552   -3.0057   -1.8253 C   0  0  0  0  0  0  0  0  0  0  0  0
    5.1444   -3.8752   -1.4606 C   0  0  0  0  0  0  0  0  0  0  0  0
    2.0459   -7.6980    1.7040 N   0  0  0  0  0  0  0  0  0  0  0  0
    0.5944   -7.8413    1.8380 C   0  0  0  0  0  0  0  0  0  0  0  0
    2.9270   -8.6705    2.1065 C   0  0  0  0  0  0  0  0  0  0  0  0
    2.5169   -9.7160    2.6155 O   0  0  0  0  0  0  0  0  0  0  0  0
    6.2480   -9.3079    2.2657 H   0  0  0  0  0  0  0  0  0  0  0  0
    4.9646  -10.4277    1.8651 H   0  0  0  0  0  0  0  0  0  0  0  0
    5.0303   -9.6861    3.4656 H   0  0  0  0  0  0  0  0  0  0  0  0
    2.5171   -3.6338   -0.1884 H   0  0  0  0  0  0  0  0  0  0  0  0
    6.0873   -4.9719    0.1071 H   0  0  0  0  0  0  0  0  0  0  0  0
    4.5342   -2.4683    0.9079 H   0  0  0  0  0  0  0  0  0  0  0  0
    5.5857   -3.4080    1.9415 H   0  0  0  0  0  0  0  0  0  0  0  0
    6.7188   -1.3601    1.0231 H   0  0  0  0  0  0  0  0  0  0  0  0
    7.5519   -2.8209    0.5258 H   0  0  0  0  0  0  0  0  0  0  0  0
    6.2492   -2.6559   -2.8521 H   0  0  0  0  0  0  0  0  0  0  0  0
    7.2830   -3.5753   -1.7759 H   0  0  0  0  0  0  0  0  0  0  0  0
    5.0831   -4.7461   -2.1151 H   0  0  0  0  0  0  0  0  0  0  0  0
    4.2391   -3.2972   -1.6475 H   0  0  0  0  0  0  0  0  0  0  0  0
    0.2794   -8.7834    2.2803 H   0  0  0  0  0  0  0  0  0  0  0  0
    0.1242   -7.7709    0.8574 H   0  0  0  0  0  0  0  0  0  0  0  0
    0.1972   -7.0350    2.4553 H   0  0  0  0  0  0  0  0  0  0  0  0
  1  2  1  0
  1 20  1  0
  1 21  1  0
  1 22  1  0
  2 18  1  0
  2  3  1  0
  3  4  2  0
  3  5  1  0
  5  9  1  0
  5  6  2  0
  6  7  1  0
  6 16  1  0
  7  8  2  0
  8  9  1  0
  8 23  1  0
  9 10  1  0
 10 15  1  0
 10 11  1  0
 10 24  1  0
 11 12  1  0
 11 25  1  0
 11 26  1  0
 12 13  1  0
 12 27  1  0
 12 28  1  0
 13 14  1  0
 14 15  1  0
 14 29  1  0
 14 30  1  0
 15 31  1  0
 15 32  1  0
 16 17  1  0
 16 18  1  0
 17 33  1  0
 17 34  1  0
 17 35  1  0
 18 19  2  0
M  END
>  <i_m_ct_stereo_status>  (113) 
1

>  <s_m_source_file>  (113) 
/var/tmp/pbs.5076255.sched01/tmpmtrcy7mx/460f9z2a7c.sdf

>  <i_m_source_file_index>  (113) 
5

>  <i_lp_mmshare_version>  (113) 
48012

>  <i_f3d_flags>  (113) 
0

>  <s_epik_input>  (113) 
Tz1jMW4oW0NIM10pYyg9TyluKFtDSDNdKWMoYzEyKW5bY0hdbjJbQ0hdM1tDSDJdW0NIMl1PW0NIMl1bQ0gyXTM=

>  <s_epik_cmdline>  (113) 
J2VwaWtfcHl0aG9uJywgJy1waHQnLCAnMi4wJywgJy1waCcsICc3LjAnLCAnLXRuJywgJzgnLCAnLW1hJywgJzIwMCcsICctaW1hZScsICc8aW5maWxlLm1hZT4nLCAnLW9tYWUnLCAnPG91dGZpbGUubWFlPic=

>  <r_lp_tautomer_probability>  (113) 
1

>  <r_epik_Ionization_Penalty>  (113) 
1.79255e-06

>  <r_epik_Ionization_Penalty_Charging>  (113) 
4.14101e-09

>  <r_epik_Ionization_Penalty_Neutral>  (113) 
1.78841e-06

>  <r_epik_State_Penalty>  (113) 
-0

>  <r_epik_Charging_Adjusted_Penalty>  (113) 
4.14101e-09

>  <i_epik_Tot_Q>  (113) 
0

>  <i_epik_Tot_abs_Q>  (113) 
0

>  <s_lp_Force_Field>  (113) 
OPLS3e

>  <r_lp_Energy>  (113) 
5.47842

>  <b_lp_Chiralities_Consistent>  (113) 
1

>  <s_lp_Variant>  (113) 
22:0-1

>  <s_i_glide_gridfile>  (113) 
pfpi4k_grid

>  <i_i_glide_lignum>  (113) 
5

>  <i_i_glide_rotatable_bonds>  (113) 
1

>  <r_i_docking_score>  (113) 
-3.8255

>  <r_i_glide_ligand_efficiency>  (113) 
-0.201342

>  <r_i_glide_ligand_efficiency_sa>  (113) 
-0.537262

>  <r_i_glide_ligand_efficiency_ln>  (113) 
-0.969847

>  <r_i_glide_gscore>  (113) 
-3.8255

>  <r_i_glide_lipo>  (113) 
-0.406718

>  <r_i_glide_hbond>  (113) 
-0.266434

>  <r_i_glide_metal>  (113) 
-0

>  <r_i_glide_rewards>  (113) 
-1.6458

>  <r_i_glide_evdw>  (113) 
-21.2567

>  <r_i_glide_ecoul>  (113) 
-4.02342

>  <r_i_glide_erotb>  (113) 
0.254487

>  <r_i_glide_esite>  (113) 
-0.0946896

>  <r_i_glide_emodel>  (113) 
-31.6626

>  <r_i_glide_energy>  (113) 
-25.2801

>  <r_i_glide_einternal>  (113) 
0.0401042

>  <r_i_glide_intrahb_reward>  (113) 
-0

>  <i_i_glide_confnum>  (113) 
1

>  <i_i_glide_posenum>  (113) 
33

>  <r_i_glide_eff_state_penalty>  (113) 
0

>  <ligand_id>  (113) 
22

>  <original_smiles>  (113) 
Cn1c(=O)c2c(ncn2C2CCOCC2)n(C)c1=O

>  <smiles>  (113) 
[H]c1nc2c(c(=O)n(C([H])([H])[H])c(=O)n2C([H])([H])[H])n1C1([H])C([H])([H])C([H])([H])OC([H])([H])C1([H])[H]

$$$$
22:0:1
     RDKit          3D

 35 37  0  0  1  0  0  0  0  0999 V2000
    2.1316   -5.1855    3.6285 C   0  0  0  0  0  0  0  0  0  0  0  0
    2.8483   -4.0580    2.9923 N   0  0  0  0  0  0  0  0  0  0  0  0
    3.0172   -4.0593    1.6342 C   0  0  0  0  0  0  0  0  0  0  0  0
    2.5967   -4.9387    0.8811 O   0  0  0  0  0  0  0  0  0  0  0  0
    3.7484   -2.8942    1.1189 C   0  0  0  0  0  0  0  0  0  0  0  0
    4.2001   -1.9041    1.9227 C   0  0  0  0  0  0  0  0  0  0  0  0
    4.8481   -0.9111    1.2050 N   0  0  0  0  0  0  0  0  0  0  0  0
    4.7381   -1.3620   -0.0413 C   0  0  0  0  0  0  0  0  0  0  0  0
    4.1165   -2.5553   -0.1866 N   0  0  0  0  0  0  0  0  0  0  0  0
    3.8841   -3.2542   -1.4466 C   0  0  0  0  0  0  0  0  0  0  0  0
    5.1668   -3.2989   -2.2918 C   0  0  0  0  0  0  0  0  0  0  0  0
    4.8875   -3.9000   -3.6707 C   0  0  0  0  0  0  0  0  0  0  0  0
    3.8617   -3.1591   -4.3188 O   0  0  0  0  0  0  0  0  0  0  0  0
    2.6149   -3.2238   -3.6366 C   0  0  0  0  0  0  0  0  0  0  0  0
    2.7570   -2.5878   -2.2471 C   0  0  0  0  0  0  0  0  0  0  0  0
    3.9685   -1.9945    3.3123 N   0  0  0  0  0  0  0  0  0  0  0  0
    4.4768   -0.8954    4.1339 C   0  0  0  0  0  0  0  0  0  0  0  0
    3.2954   -3.0664    3.8490 C   0  0  0  0  0  0  0  0  0  0  0  0
    3.0906   -3.1398    5.0644 O   0  0  0  0  0  0  0  0  0  0  0  0
    1.7873   -5.9641    2.9470 H   0  0  0  0  0  0  0  0  0  0  0  0
    1.2513   -4.8166    4.1579 H   0  0  0  0  0  0  0  0  0  0  0  0
    2.7811   -5.6751    4.3566 H   0  0  0  0  0  0  0  0  0  0  0  0
    5.1377   -0.8085   -0.8775 H   0  0  0  0  0  0  0  0  0  0  0  0
    3.5926   -4.2822   -1.2450 H   0  0  0  0  0  0  0  0  0  0  0  0
    5.5672   -2.2993   -2.4500 H   0  0  0  0  0  0  0  0  0  0  0  0
    5.9410   -3.8660   -1.7694 H   0  0  0  0  0  0  0  0  0  0  0  0
    5.7926   -3.8531   -4.2723 H   0  0  0  0  0  0  0  0  0  0  0  0
    4.6174   -4.9542   -3.5920 H   0  0  0  0  0  0  0  0  0  0  0  0
    1.8621   -2.6856   -4.2141 H   0  0  0  0  0  0  0  0  0  0  0  0
    2.2660   -4.2524   -3.5612 H   0  0  0  0  0  0  0  0  0  0  0  0
    1.8146   -2.6757   -1.7110 H   0  0  0  0  0  0  0  0  0  0  0  0
    2.9540   -1.5207   -2.3585 H   0  0  0  0  0  0  0  0  0  0  0  0
    4.2785   -1.0008    5.1986 H   0  0  0  0  0  0  0  0  0  0  0  0
    4.0295    0.0433    3.8041 H   0  0  0  0  0  0  0  0  0  0  0  0
    5.5564   -0.8121    4.0033 H   0  0  0  0  0  0  0  0  0  0  0  0
  1  2  1  0
  1 20  1  0
  1 21  1  0
  1 22  1  0
  2 18  1  0
  2  3  1  0
  3  4  2  0
  3  5  1  0
  5  9  1  0
  5  6  2  0
  6  7  1  0
  6 16  1  0
  7  8  2  0
  8  9  1  0
  8 23  1  0
  9 10  1  0
 10 15  1  0
 10 11  1  0
 10 24  1  0
 11 12  1  0
 11 25  1  0
 11 26  1  0
 12 13  1  0
 12 27  1  0
 12 28  1  0
 13 14  1  0
 14 15  1  0
 14 29  1  0
 14 30  1  0
 15 31  1  0
 15 32  1  0
 16 17  1  0
 16 18  1  0
 17 33  1  0
 17 34  1  0
 17 35  1  0
 18 19  2  0
M  END
>  <i_m_ct_stereo_status>  (114) 
1

>  <s_m_source_file>  (114) 
/var/tmp/pbs.5076255.sched01/tmpmtrcy7mx/460f9z2a7c.sdf

>  <i_m_source_file_index>  (114) 
5

>  <i_lp_mmshare_version>  (114) 
48012

>  <i_f3d_flags>  (114) 
0

>  <s_epik_input>  (114) 
Tz1jMW4oW0NIM10pYyg9TyluKFtDSDNdKWMoYzEyKW5bY0hdbjJbQ0hdM1tDSDJdW0NIMl1PW0NIMl1bQ0gyXTM=

>  <s_epik_cmdline>  (114) 
J2VwaWtfcHl0aG9uJywgJy1waHQnLCAnMi4wJywgJy1waCcsICc3LjAnLCAnLXRuJywgJzgnLCAnLW1hJywgJzIwMCcsICctaW1hZScsICc8aW5maWxlLm1hZT4nLCAnLW9tYWUnLCAnPG91dGZpbGUubWFlPic=

>  <r_lp_tautomer_probability>  (114) 
1

>  <r_epik_Ionization_Penalty>  (114) 
1.79255e-06

>  <r_epik_Ionization_Penalty_Charging>  (114) 
4.14101e-09

>  <r_epik_Ionization_Penalty_Neutral>  (114) 
1.78841e-06

>  <r_epik_State_Penalty>  (114) 
-0

>  <r_epik_Charging_Adjusted_Penalty>  (114) 
4.14101e-09

>  <i_epik_Tot_Q>  (114) 
0

>  <i_epik_Tot_abs_Q>  (114) 
0

>  <s_lp_Force_Field>  (114) 
OPLS3e

>  <r_lp_Energy>  (114) 
5.47842

>  <b_lp_Chiralities_Consistent>  (114) 
1

>  <s_lp_Variant>  (114) 
22:0-1

>  <s_i_glide_gridfile>  (114) 
pfpi4k_grid

>  <i_i_glide_lignum>  (114) 
5

>  <i_i_glide_rotatable_bonds>  (114) 
1

>  <r_i_docking_score>  (114) 
-3.77896

>  <r_i_glide_ligand_efficiency>  (114) 
-0.198893

>  <r_i_glide_ligand_efficiency_sa>  (114) 
-0.530726

>  <r_i_glide_ligand_efficiency_ln>  (114) 
-0.958048

>  <r_i_glide_gscore>  (114) 
-3.77896

>  <r_i_glide_lipo>  (114) 
-0.461063

>  <r_i_glide_hbond>  (114) 
-0.224587

>  <r_i_glide_metal>  (114) 
-0

>  <r_i_glide_rewards>  (114) 
-1.61111

>  <r_i_glide_evdw>  (114) 
-21.0379

>  <r_i_glide_ecoul>  (114) 
-4.39508

>  <r_i_glide_erotb>  (114) 
0.254487

>  <r_i_glide_esite>  (114) 
-0.0255281

>  <r_i_glide_emodel>  (114) 
-31.6708

>  <r_i_glide_energy>  (114) 
-25.433

>  <r_i_glide_einternal>  (114) 
0.163471

>  <r_i_glide_intrahb_reward>  (114) 
-0

>  <i_i_glide_confnum>  (114) 
1

>  <i_i_glide_posenum>  (114) 
13

>  <r_i_glide_eff_state_penalty>  (114) 
0

>  <ligand_id>  (114) 
22

>  <original_smiles>  (114) 
Cn1c(=O)c2c(ncn2C2CCOCC2)n(C)c1=O

>  <smiles>  (114) 
[H]c1nc2c(c(=O)n(C([H])([H])[H])c(=O)n2C([H])([H])[H])n1C1([H])C([H])([H])C([H])([H])OC([H])([H])C1([H])[H]

$$$$
22:0:2
     RDKit          3D

 35 37  0  0  1  0  0  0  0  0999 V2000
    0.4005   -3.7069    5.4684 C   0  0  0  0  0  0  0  0  0  0  0  0
    0.5646   -2.4932    4.6457 N   0  0  0  0  0  0  0  0  0  0  0  0
    1.5887   -2.4500    3.7386 C   0  0  0  0  0  0  0  0  0  0  0  0
    2.3922   -3.3636    3.5513 O   0  0  0  0  0  0  0  0  0  0  0  0
    1.6653   -1.1978    2.9819 C   0  0  0  0  0  0  0  0  0  0  0  0
    0.7897   -0.1829    3.1678 C   0  0  0  0  0  0  0  0  0  0  0  0
    1.0692    0.8942    2.3436 N   0  0  0  0  0  0  0  0  0  0  0  0
    2.1328    0.4566    1.6787 C   0  0  0  0  0  0  0  0  0  0  0  0
    2.5658   -0.7836    1.9950 N   0  0  0  0  0  0  0  0  0  0  0  0
    3.7067   -1.4702    1.3955 C   0  0  0  0  0  0  0  0  0  0  0  0
    4.9877   -0.6404    1.5665 C   0  0  0  0  0  0  0  0  0  0  0  0
    6.1604   -1.2925    0.8220 C   0  0  0  0  0  0  0  0  0  0  0  0
    5.8326   -1.4589   -0.5552 O   0  0  0  0  0  0  0  0  0  0  0  0
    4.7200   -2.3306   -0.7532 C   0  0  0  0  0  0  0  0  0  0  0  0
    3.4632   -1.7420   -0.0961 C   0  0  0  0  0  0  0  0  0  0  0  0
   -0.2385   -0.3293    4.1251 N   0  0  0  0  0  0  0  0  0  0  0  0
   -1.1600    0.7975    4.2746 C   0  0  0  0  0  0  0  0  0  0  0  0
   -0.3521   -1.4798    4.8651 C   0  0  0  0  0  0  0  0  0  0  0  0
   -1.2593   -1.6073    5.6958 O   0  0  0  0  0  0  0  0  0  0  0  0
    1.1288   -4.4983    5.2851 H   0  0  0  0  0  0  0  0  0  0  0  0
   -0.5794   -4.1465    5.2889 H   0  0  0  0  0  0  0  0  0  0  0  0
    0.4690   -3.4510    6.5267 H   0  0  0  0  0  0  0  0  0  0  0  0
    2.6116    1.0509    0.9164 H   0  0  0  0  0  0  0  0  0  0  0  0
    3.8664   -2.4278    1.8874 H   0  0  0  0  0  0  0  0  0  0  0  0
    4.8426    0.3643    1.1698 H   0  0  0  0  0  0  0  0  0  0  0  0
    5.2257   -0.5298    2.6261 H   0  0  0  0  0  0  0  0  0  0  0  0
    7.0433   -0.6592    0.8945 H   0  0  0  0  0  0  0  0  0  0  0  0
    6.4173   -2.2545    1.2695 H   0  0  0  0  0  0  0  0  0  0  0  0
    4.5543   -2.4558   -1.8237 H   0  0  0  0  0  0  0  0  0  0  0  0
    4.9405   -3.3199   -0.3482 H   0  0  0  0  0  0  0  0  0  0  0  0
    2.6176   -2.4197   -0.2251 H   0  0  0  0  0  0  0  0  0  0  0  0
    3.1975   -0.8192   -0.6107 H   0  0  0  0  0  0  0  0  0  0  0  0
   -1.9365    0.6437    5.0193 H   0  0  0  0  0  0  0  0  0  0  0  0
   -1.6494    1.0006    3.3206 H   0  0  0  0  0  0  0  0  0  0  0  0
   -0.5985    1.6900    4.5550 H   0  0  0  0  0  0  0  0  0  0  0  0
  1  2  1  0
  1 20  1  0
  1 21  1  0
  1 22  1  0
  2 18  1  0
  2  3  1  0
  3  4  2  0
  3  5  1  0
  5  9  1  0
  5  6  2  0
  6  7  1  0
  6 16  1  0
  7  8  2  0
  8  9  1  0
  8 23  1  0
  9 10  1  0
 10 15  1  0
 10 11  1  0
 10 24  1  0
 11 12  1  0
 11 25  1  0
 11 26  1  0
 12 13  1  0
 12 27  1  0
 12 28  1  0
 13 14  1  0
 14 15  1  0
 14 29  1  0
 14 30  1  0
 15 31  1  0
 15 32  1  0
 16 17  1  0
 16 18  1  0
 17 33  1  0
 17 34  1  0
 17 35  1  0
 18 19  2  0
M  END
>  <i_m_ct_stereo_status>  (115) 
1

>  <s_m_source_file>  (115) 
/var/tmp/pbs.5076255.sched01/tmpmtrcy7mx/460f9z2a7c.sdf

>  <i_m_source_file_index>  (115) 
5

>  <i_lp_mmshare_version>  (115) 
48012

>  <i_f3d_flags>  (115) 
0

>  <s_epik_input>  (115) 
Tz1jMW4oW0NIM10pYyg9TyluKFtDSDNdKWMoYzEyKW5bY0hdbjJbQ0hdM1tDSDJdW0NIMl1PW0NIMl1bQ0gyXTM=

>  <s_epik_cmdline>  (115) 
J2VwaWtfcHl0aG9uJywgJy1waHQnLCAnMi4wJywgJy1waCcsICc3LjAnLCAnLXRuJywgJzgnLCAnLW1hJywgJzIwMCcsICctaW1hZScsICc8aW5maWxlLm1hZT4nLCAnLW9tYWUnLCAnPG91dGZpbGUubWFlPic=

>  <r_lp_tautomer_probability>  (115) 
1

>  <r_epik_Ionization_Penalty>  (115) 
1.79255e-06

>  <r_epik_Ionization_Penalty_Charging>  (115) 
4.14101e-09

>  <r_epik_Ionization_Penalty_Neutral>  (115) 
1.78841e-06

>  <r_epik_State_Penalty>  (115) 
-0

>  <r_epik_Charging_Adjusted_Penalty>  (115) 
4.14101e-09

>  <i_epik_Tot_Q>  (115) 
0

>  <i_epik_Tot_abs_Q>  (115) 
0

>  <s_lp_Force_Field>  (115) 
OPLS3e

>  <r_lp_Energy>  (115) 
5.47842

>  <b_lp_Chiralities_Consistent>  (115) 
1

>  <s_lp_Variant>  (115) 
22:0-1

>  <s_i_glide_gridfile>  (115) 
pfpi4k_grid

>  <i_i_glide_lignum>  (115) 
5

>  <i_i_glide_rotatable_bonds>  (115) 
1

>  <r_i_docking_score>  (115) 
-3.45338

>  <r_i_glide_ligand_efficiency>  (115) 
-0.181757

>  <r_i_glide_ligand_efficiency_sa>  (115) 
-0.485001

>  <r_i_glide_ligand_efficiency_ln>  (115) 
-0.875507

>  <r_i_glide_gscore>  (115) 
-3.45338

>  <r_i_glide_lipo>  (115) 
-0.30662

>  <r_i_glide_hbond>  (115) 
-0.0128014

>  <r_i_glide_metal>  (115) 
-0

>  <r_i_glide_rewards>  (115) 
-1.64661

>  <r_i_glide_evdw>  (115) 
-21.0675

>  <r_i_glide_ecoul>  (115) 
-3.62966

>  <r_i_glide_erotb>  (115) 
0.254487

>  <r_i_glide_esite>  (115) 
-0.144017

>  <r_i_glide_emodel>  (115) 
-30.4942

>  <r_i_glide_energy>  (115) 
-24.6971

>  <r_i_glide_einternal>  (115) 
0.0083099

>  <r_i_glide_intrahb_reward>  (115) 
-0

>  <i_i_glide_confnum>  (115) 
1

>  <i_i_glide_posenum>  (115) 
2

>  <r_i_glide_eff_state_penalty>  (115) 
0

>  <ligand_id>  (115) 
22

>  <original_smiles>  (115) 
Cn1c(=O)c2c(ncn2C2CCOCC2)n(C)c1=O

>  <smiles>  (115) 
[H]c1nc2c(c(=O)n(C([H])([H])[H])c(=O)n2C([H])([H])[H])n1C1([H])C([H])([H])C([H])([H])OC([H])([H])C1([H])[H]

$$$$
23:0:0
     RDKit          3D

 35 38  0  0  1  0  0  0  0  0999 V2000
   -1.9139    4.1438    4.2689 O   0  0  0  0  0  0  0  0  0  0  0  0
   -1.7558    2.9273    4.4452 C   0  0  0  0  0  0  0  0  0  0  0  0
   -1.1538    2.0218    3.3724 C   0  0  2  0  0  0  0  0  0  0  0  0
   -1.1594    0.6360    4.0548 C   0  0  2  0  0  0  0  0  0  0  0  0
   -1.7903    0.9278    5.3915 C   0  0  0  0  0  0  0  0  0  0  0  0
   -2.0525    0.0128    6.1737 O   0  0  0  0  0  0  0  0  0  0  0  0
   -2.0835    2.2391    5.5473 N   0  0  0  0  0  0  0  0  0  0  0  0
   -2.7178    2.8327    6.7506 C   0  0  0  0  0  0  0  0  0  0  0  0
   -1.8667    2.7356    8.0358 C   0  0  2  0  0  0  0  0  0  0  0  0
   -0.4320    3.2805    7.9120 C   0  0  0  0  0  0  0  0  0  0  0  0
    0.4113    2.3119    8.7264 C   0  0  0  0  0  0  0  0  0  0  0  0
   -0.5983    1.3121    9.3026 C   0  0  0  0  0  0  0  0  0  0  0  0
   -1.7202    1.3931    8.4541 O   0  0  0  0  0  0  0  0  0  0  0  0
    0.3463    0.2508    4.1165 C   0  0  1  0  0  0  0  0  0  0  0  0
    0.7659    0.0094    2.6819 C   0  0  0  0  0  0  0  0  0  0  0  0
    0.7623    1.1949    2.0713 C   0  0  0  0  0  0  0  0  0  0  0  0
    0.3600    2.2392    3.0953 C   0  0  2  0  0  0  0  0  0  0  0  0
    1.0214    1.6119    4.3350 C   0  0  0  0  0  0  0  0  0  0  0  0
   -1.7665    2.0355    2.4688 H   0  0  0  0  0  0  0  0  0  0  0  0
   -1.7677   -0.0995    3.5430 H   0  0  0  0  0  0  0  0  0  0  0  0
   -3.7010    2.4006    6.9089 H   0  0  0  0  0  0  0  0  0  0  0  0
   -2.9167    3.8901    6.5875 H   0  0  0  0  0  0  0  0  0  0  0  0
   -2.3622    3.2706    8.8536 H   0  0  0  0  0  0  0  0  0  0  0  0
   -0.0833    3.3034    6.8869 H   0  0  0  0  0  0  0  0  0  0  0  0
   -0.3572    4.3111    8.2654 H   0  0  0  0  0  0  0  0  0  0  0  0
    1.1321    1.8131    8.0786 H   0  0  0  0  0  0  0  0  0  0  0  0
    0.9753    2.8098    9.5145 H   0  0  0  0  0  0  0  0  0  0  0  0
   -0.1951    0.2987    9.3294 H   0  0  0  0  0  0  0  0  0  0  0  0
   -0.8778    1.5884   10.3270 H   0  0  0  0  0  0  0  0  0  0  0  0
    0.6276   -0.5299    4.8249 H   0  0  0  0  0  0  0  0  0  0  0  0
    0.9532   -0.9628    2.2498 H   0  0  0  0  0  0  0  0  0  0  0  0
    0.9385    1.3923    1.0257 H   0  0  0  0  0  0  0  0  0  0  0  0
    0.6654    3.2645    2.8767 H   0  0  0  0  0  0  0  0  0  0  0  0
    0.7819    2.0902    5.2824 H   0  0  0  0  0  0  0  0  0  0  0  0
    2.1085    1.5640    4.2539 H   0  0  0  0  0  0  0  0  0  0  0  0
  1  2  2  0
  2  3  1  0
  2  7  1  0
  3 17  1  0
  3 19  1  6
  3  4  1  0
  4 14  1  0
  4 20  1  6
  4  5  1  0
  5  6  2  0
  5  7  1  0
  7  8  1  0
  8  9  1  0
  8 21  1  0
  8 22  1  0
  9 13  1  0
  9 10  1  0
  9 23  1  1
 10 11  1  0
 10 24  1  0
 10 25  1  0
 11 12  1  0
 11 26  1  0
 11 27  1  0
 12 13  1  0
 12 28  1  0
 12 29  1  0
 14 18  1  0
 14 15  1  0
 14 30  1  1
 15 16  2  0
 15 31  1  0
 16 17  1  0
 16 32  1  0
 17 18  1  0
 17 33  1  6
 18 34  1  0
 18 35  1  0
M  END
>  <i_m_ct_stereo_status>  (116) 
1

>  <s_m_source_file>  (116) 
/var/tmp/pbs.5076255.sched01/tmpmtrcy7mx/460f9z2a7c.sdf

>  <i_m_source_file_index>  (116) 
6

>  <i_lp_mmshare_version>  (116) 
48012

>  <i_f3d_flags>  (116) 
0

>  <s_epik_input>  (116) 
TzFbQ0gyXVtDSDJdW0NIMl1bQ0BIXTFbQ0gyXW4oYzJbT0hdKWMoW09IXSljKGMyMylbQ0BIXTRbQ0hdPVtDSF1bQ0BASF0zW0NIMl00

>  <s_epik_cmdline>  (116) 
J2VwaWtfcHl0aG9uJywgJy1waHQnLCAnMi4wJywgJy1waCcsICc3LjAnLCAnLXRuJywgJzgnLCAnLW1hJywgJzIwMCcsICctaW1hZScsICc8aW5maWxlLm1hZT4nLCAnLW9tYWUnLCAnPG91dGZpbGUubWFlPic=

>  <r_lp_tautomer_probability>  (116) 
1

>  <r_epik_Ionization_Penalty>  (116) 
3.70379e-11

>  <r_epik_Ionization_Penalty_Charging>  (116) 
0

>  <r_epik_Ionization_Penalty_Neutral>  (116) 
3.70379e-11

>  <r_epik_State_Penalty>  (116) 
-0

>  <r_epik_Charging_Adjusted_Penalty>  (116) 
0

>  <i_epik_Tot_Q>  (116) 
0

>  <i_epik_Tot_abs_Q>  (116) 
0

>  <s_lp_Force_Field>  (116) 
OPLS3e

>  <r_lp_Energy>  (116) 
12.5409

>  <b_lp_Chiralities_Consistent>  (116) 
1

>  <s_lp_Variant>  (116) 
23:0-1

>  <s_i_glide_gridfile>  (116) 
pfpi4k_grid

>  <i_i_glide_lignum>  (116) 
6

>  <i_i_glide_rotatable_bonds>  (116) 
2

>  <r_i_docking_score>  (116) 
-3.62915

>  <r_i_glide_ligand_efficiency>  (116) 
-0.20162

>  <r_i_glide_ligand_efficiency_sa>  (116) 
-0.528393

>  <r_i_glide_ligand_efficiency_ln>  (116) 
-0.932855

>  <r_i_glide_gscore>  (116) 
-3.62915

>  <r_i_glide_lipo>  (116) 
-0.172442

>  <r_i_glide_hbond>  (116) 
-0.241996

>  <r_i_glide_metal>  (116) 
-0

>  <r_i_glide_rewards>  (116) 
-1.73284

>  <r_i_glide_evdw>  (116) 
-15.7643

>  <r_i_glide_ecoul>  (116) 
-8.00255

>  <r_i_glide_erotb>  (116) 
0.570556

>  <r_i_glide_esite>  (116) 
-0.0638319

>  <r_i_glide_emodel>  (116) 
-28.3005

>  <r_i_glide_energy>  (116) 
-23.7669

>  <r_i_glide_einternal>  (116) 
3.37268

>  <r_i_glide_intrahb_reward>  (116) 
-0

>  <i_i_glide_confnum>  (116) 
2

>  <i_i_glide_posenum>  (116) 
22

>  <r_i_glide_eff_state_penalty>  (116) 
0

>  <ligand_id>  (116) 
23

>  <original_smiles>  (116) 
Oc1c2c(c(O)n1CC1CCCO1)C1C=CC2C1

>  <smiles>  (116) 
[H]C1=C([H])C2([H])C([H])([H])C1([H])C1([H])C(=O)N(C([H])([H])C3([H])OC([H])([H])C([H])([H])C3([H])[H])C(=O)C21[H]

$$$$
23:0:1
     RDKit          3D

 35 38  0  0  1  0  0  0  0  0999 V2000
    4.5703   -6.1973    3.2099 O   0  0  0  0  0  0  0  0  0  0  0  0
    3.8695   -5.7134    2.3233 C   0  0  0  0  0  0  0  0  0  0  0  0
    4.0700   -4.2891    1.8082 C   0  0  2  0  0  0  0  0  0  0  0  0
    2.9785   -4.1615    0.7155 C   0  0  2  0  0  0  0  0  0  0  0  0
    2.3075   -5.5350    0.7500 C   0  0  0  0  0  0  0  0  0  0  0  0
    1.3686   -5.8395    0.0127 O   0  0  0  0  0  0  0  0  0  0  0  0
    2.8527   -6.3181    1.6905 N   0  0  0  0  0  0  0  0  0  0  0  0
    2.3984   -7.6869    1.9545 C   0  0  0  0  0  0  0  0  0  0  0  0
    1.1397   -7.7345    2.8406 C   0  0  2  0  0  0  0  0  0  0  0  0
    0.5818   -9.1525    3.0017 C   0  0  0  0  0  0  0  0  0  0  0  0
   -0.9290   -8.9673    3.0283 C   0  0  0  0  0  0  0  0  0  0  0  0
   -1.1259   -7.4602    2.9086 C   0  0  0  0  0  0  0  0  0  0  0  0
    0.0539   -7.0105    2.2715 O   0  0  0  0  0  0  0  0  0  0  0  0
    3.8078   -3.8567   -0.5630 C   0  0  1  0  0  0  0  0  0  0  0  0
    4.4221   -2.4843   -0.3713 C   0  0  0  0  0  0  0  0  0  0  0  0
    5.3643   -2.5979    0.5678 C   0  0  0  0  0  0  0  0  0  0  0  0
    5.3844   -4.0474    1.0112 C   0  0  2  0  0  0  0  0  0  0  0  0
    5.0611   -4.7154   -0.3359 C   0  0  0  0  0  0  0  0  0  0  0  0
    3.9372   -3.5745    2.6228 H   0  0  0  0  0  0  0  0  0  0  0  0
    2.2529   -3.3765    0.9366 H   0  0  0  0  0  0  0  0  0  0  0  0
    3.1929   -8.2650    2.4306 H   0  0  0  0  0  0  0  0  0  0  0  0
    2.2045   -8.1924    1.0079 H   0  0  0  0  0  0  0  0  0  0  0  0
    1.3489   -7.3075    3.8225 H   0  0  0  0  0  0  0  0  0  0  0  0
    0.8536   -9.7780    2.1500 H   0  0  0  0  0  0  0  0  0  0  0  0
    0.9616   -9.6428    3.8986 H   0  0  0  0  0  0  0  0  0  0  0  0
   -1.3790   -9.4871    2.1809 H   0  0  0  0  0  0  0  0  0  0  0  0
   -1.3792   -9.3568    3.9389 H   0  0  0  0  0  0  0  0  0  0  0  0
   -2.0170   -7.2041    2.3388 H   0  0  0  0  0  0  0  0  0  0  0  0
   -1.2008   -6.9959    3.8923 H   0  0  0  0  0  0  0  0  0  0  0  0
    3.3059   -4.0029   -1.5199 H   0  0  0  0  0  0  0  0  0  0  0  0
    4.1009   -1.5910   -0.8871 H   0  0  0  0  0  0  0  0  0  0  0  0
    5.9817   -1.8169    0.9871 H   0  0  0  0  0  0  0  0  0  0  0  0
    6.3106   -4.3722    1.4867 H   0  0  0  0  0  0  0  0  0  0  0  0
    4.8837   -5.7918   -0.2899 H   0  0  0  0  0  0  0  0  0  0  0  0
    5.8222   -4.5362   -1.0944 H   0  0  0  0  0  0  0  0  0  0  0  0
  1  2  2  0
  2  3  1  0
  2  7  1  0
  3 17  1  0
  3 19  1  1
  3  4  1  0
  4 14  1  0
  4 20  1  1
  4  5  1  0
  5  6  2  0
  5  7  1  0
  7  8  1  0
  8  9  1  0
  8 21  1  0
  8 22  1  0
  9 13  1  0
  9 10  1  0
  9 23  1  1
 10 11  1  0
 10 24  1  0
 10 25  1  0
 11 12  1  0
 11 26  1  0
 11 27  1  0
 12 13  1  0
 12 28  1  0
 12 29  1  0
 14 18  1  0
 14 15  1  0
 14 30  1  6
 15 16  2  0
 15 31  1  0
 16 17  1  0
 16 32  1  0
 17 18  1  0
 17 33  1  1
 18 34  1  0
 18 35  1  0
M  END
>  <i_m_ct_stereo_status>  (117) 
1

>  <s_m_source_file>  (117) 
/var/tmp/pbs.5076255.sched01/tmpmtrcy7mx/460f9z2a7c.sdf

>  <i_m_source_file_index>  (117) 
6

>  <i_lp_mmshare_version>  (117) 
48012

>  <i_f3d_flags>  (117) 
0

>  <s_epik_input>  (117) 
TzFbQ0gyXVtDSDJdW0NIMl1bQ0BIXTFbQ0gyXW4oYzJbT0hdKWMoW09IXSljKGMyMylbQ0BIXTRbQ0hdPVtDSF1bQ0BASF0zW0NIMl00

>  <s_epik_cmdline>  (117) 
J2VwaWtfcHl0aG9uJywgJy1waHQnLCAnMi4wJywgJy1waCcsICc3LjAnLCAnLXRuJywgJzgnLCAnLW1hJywgJzIwMCcsICctaW1hZScsICc8aW5maWxlLm1hZT4nLCAnLW9tYWUnLCAnPG91dGZpbGUubWFlPic=

>  <r_lp_tautomer_probability>  (117) 
1

>  <r_epik_Ionization_Penalty>  (117) 
3.70379e-11

>  <r_epik_Ionization_Penalty_Charging>  (117) 
0

>  <r_epik_Ionization_Penalty_Neutral>  (117) 
3.70379e-11

>  <r_epik_State_Penalty>  (117) 
-0

>  <r_epik_Charging_Adjusted_Penalty>  (117) 
0

>  <i_epik_Tot_Q>  (117) 
0

>  <i_epik_Tot_abs_Q>  (117) 
0

>  <s_lp_Force_Field>  (117) 
OPLS3e

>  <r_lp_Energy>  (117) 
12.5409

>  <b_lp_Chiralities_Consistent>  (117) 
1

>  <s_lp_Variant>  (117) 
23:0-1

>  <s_i_glide_gridfile>  (117) 
pfpi4k_grid

>  <i_i_glide_lignum>  (117) 
6

>  <i_i_glide_rotatable_bonds>  (117) 
2

>  <r_i_docking_score>  (117) 
-3.21431

>  <r_i_glide_ligand_efficiency>  (117) 
-0.178573

>  <r_i_glide_ligand_efficiency_sa>  (117) 
-0.467993

>  <r_i_glide_ligand_efficiency_ln>  (117) 
-0.826221

>  <r_i_glide_gscore>  (117) 
-3.21431

>  <r_i_glide_lipo>  (117) 
-0.122407

>  <r_i_glide_hbond>  (117) 
-0.318982

>  <r_i_glide_metal>  (117) 
-0

>  <r_i_glide_rewards>  (117) 
-1.73682

>  <r_i_glide_evdw>  (117) 
-17.6168

>  <r_i_glide_ecoul>  (117) 
-4.53458

>  <r_i_glide_erotb>  (117) 
0.570556

>  <r_i_glide_esite>  (117) 
-0.0456306

>  <r_i_glide_emodel>  (117) 
-27.4415

>  <r_i_glide_energy>  (117) 
-22.1513

>  <r_i_glide_einternal>  (117) 
0.919124

>  <r_i_glide_intrahb_reward>  (117) 
-0

>  <i_i_glide_confnum>  (117) 
2

>  <i_i_glide_posenum>  (117) 
4

>  <r_i_glide_eff_state_penalty>  (117) 
0

>  <ligand_id>  (117) 
23

>  <original_smiles>  (117) 
Oc1c2c(c(O)n1CC1CCCO1)C1C=CC2C1

>  <smiles>  (117) 
[H]C1=C([H])C2([H])C([H])([H])C1([H])C1([H])C(=O)N(C([H])([H])C3([H])OC([H])([H])C([H])([H])C3([H])[H])C(=O)C21[H]

$$$$
23:0:2
     RDKit          3D

 35 38  0  0  1  0  0  0  0  0999 V2000
    0.5627    3.5716    6.3907 O   0  0  0  0  0  0  0  0  0  0  0  0
   -0.0226    2.6172    5.8823 C   0  0  0  0  0  0  0  0  0  0  0  0
   -0.0292    2.3680    4.3776 C   0  0  2  0  0  0  0  0  0  0  0  0
   -0.8422    1.0546    4.2508 C   0  0  2  0  0  0  0  0  0  0  0  0
   -1.1976    0.7392    5.7042 C   0  0  0  0  0  0  0  0  0  0  0  0
   -1.8386   -0.2604    6.0321 O   0  0  0  0  0  0  0  0  0  0  0  0
   -0.7235    1.6759    6.5364 N   0  0  0  0  0  0  0  0  0  0  0  0
   -0.8896    1.6427    7.9944 C   0  0  0  0  0  0  0  0  0  0  0  0
   -1.7468    2.8033    8.5238 C   0  0  2  0  0  0  0  0  0  0  0  0
   -1.8324    2.8391   10.0496 C   0  0  0  0  0  0  0  0  0  0  0  0
   -3.2496    3.3121   10.3330 C   0  0  0  0  0  0  0  0  0  0  0  0
   -3.8676    3.5079    8.9511 C   0  0  0  0  0  0  0  0  0  0  0  0
   -3.0959    2.6648    8.1118 O   0  0  0  0  0  0  0  0  0  0  0  0
    0.1788    0.0874    3.5859 C   0  0  1  0  0  0  0  0  0  0  0  0
    0.4181    0.6109    2.1837 C   0  0  0  0  0  0  0  0  0  0  0  0
    1.1125    1.7433    2.2932 C   0  0  0  0  0  0  0  0  0  0  0  0
    1.3486    1.9853    3.7672 C   0  0  2  0  0  0  0  0  0  0  0  0
    1.5050    0.5260    4.2273 C   0  0  0  0  0  0  0  0  0  0  0  0
   -0.4967    3.2073    3.8574 H   0  0  0  0  0  0  0  0  0  0  0  0
   -1.7534    1.1783    3.6618 H   0  0  0  0  0  0  0  0  0  0  0  0
    0.0968    1.6692    8.4577 H   0  0  0  0  0  0  0  0  0  0  0  0
   -1.3332    0.7035    8.3255 H   0  0  0  0  0  0  0  0  0  0  0  0
   -1.3822    3.7665    8.1701 H   0  0  0  0  0  0  0  0  0  0  0  0
   -1.6841    1.8495   10.4815 H   0  0  0  0  0  0  0  0  0  0  0  0
   -1.0763    3.4978   10.4766 H   0  0  0  0  0  0  0  0  0  0  0  0
   -3.7832    2.5465   10.8877 H   0  0  0  0  0  0  0  0  0  0  0  0
   -3.2666    4.2227   10.9295 H   0  0  0  0  0  0  0  0  0  0  0  0
   -4.9276    3.2580    8.9269 H   0  0  0  0  0  0  0  0  0  0  0  0
   -3.7548    4.5444    8.6309 H   0  0  0  0  0  0  0  0  0  0  0  0
   -0.0427   -0.9777    3.6492 H   0  0  0  0  0  0  0  0  0  0  0  0
    0.0424    0.1553    1.2825 H   0  0  0  0  0  0  0  0  0  0  0  0
    1.4153    2.4148    1.5020 H   0  0  0  0  0  0  0  0  0  0  0  0
    2.1878    2.6430    3.9934 H   0  0  0  0  0  0  0  0  0  0  0  0
    1.5645    0.3872    5.3087 H   0  0  0  0  0  0  0  0  0  0  0  0
    2.3720    0.0357    3.7802 H   0  0  0  0  0  0  0  0  0  0  0  0
  1  2  2  0
  2  3  1  0
  2  7  1  0
  3 17  1  0
  3 19  1  6
  3  4  1  0
  4 14  1  0
  4 20  1  6
  4  5  1  0
  5  6  2  0
  5  7  1  0
  7  8  1  0
  8  9  1  0
  8 21  1  0
  8 22  1  0
  9 13  1  0
  9 10  1  0
  9 23  1  6
 10 11  1  0
 10 24  1  0
 10 25  1  0
 11 12  1  0
 11 26  1  0
 11 27  1  0
 12 13  1  0
 12 28  1  0
 12 29  1  0
 14 18  1  0
 14 15  1  0
 14 30  1  6
 15 16  2  0
 15 31  1  0
 16 17  1  0
 16 32  1  0
 17 18  1  0
 17 33  1  6
 18 34  1  0
 18 35  1  0
M  END
>  <i_m_ct_stereo_status>  (118) 
1

>  <s_m_source_file>  (118) 
/var/tmp/pbs.5076255.sched01/tmpmtrcy7mx/460f9z2a7c.sdf

>  <i_m_source_file_index>  (118) 
6

>  <i_lp_mmshare_version>  (118) 
48012

>  <i_f3d_flags>  (118) 
0

>  <s_epik_input>  (118) 
TzFbQ0gyXVtDSDJdW0NIMl1bQ0BIXTFbQ0gyXW4oYzJbT0hdKWMoW09IXSljKGMyMylbQ0BIXTRbQ0hdPVtDSF1bQ0BASF0zW0NIMl00

>  <s_epik_cmdline>  (118) 
J2VwaWtfcHl0aG9uJywgJy1waHQnLCAnMi4wJywgJy1waCcsICc3LjAnLCAnLXRuJywgJzgnLCAnLW1hJywgJzIwMCcsICctaW1hZScsICc8aW5maWxlLm1hZT4nLCAnLW9tYWUnLCAnPG91dGZpbGUubWFlPic=

>  <r_lp_tautomer_probability>  (118) 
1

>  <r_epik_Ionization_Penalty>  (118) 
3.70379e-11

>  <r_epik_Ionization_Penalty_Charging>  (118) 
0

>  <r_epik_Ionization_Penalty_Neutral>  (118) 
3.70379e-11

>  <r_epik_State_Penalty>  (118) 
-0

>  <r_epik_Charging_Adjusted_Penalty>  (118) 
0

>  <i_epik_Tot_Q>  (118) 
0

>  <i_epik_Tot_abs_Q>  (118) 
0

>  <s_lp_Force_Field>  (118) 
OPLS3e

>  <r_lp_Energy>  (118) 
12.5409

>  <b_lp_Chiralities_Consistent>  (118) 
1

>  <s_lp_Variant>  (118) 
23:0-1

>  <s_i_glide_gridfile>  (118) 
pfpi4k_grid

>  <i_i_glide_lignum>  (118) 
6

>  <i_i_glide_rotatable_bonds>  (118) 
2

>  <r_i_docking_score>  (118) 
-3.00183

>  <r_i_glide_ligand_efficiency>  (118) 
-0.166768

>  <r_i_glide_ligand_efficiency_sa>  (118) 
-0.437056

>  <r_i_glide_ligand_efficiency_ln>  (118) 
-0.771604

>  <r_i_glide_gscore>  (118) 
-3.00183

>  <r_i_glide_lipo>  (118) 
-0.101955

>  <r_i_glide_hbond>  (118) 
-0.14292

>  <r_i_glide_metal>  (118) 
-0

>  <r_i_glide_rewards>  (118) 
-1.72302

>  <r_i_glide_evdw>  (118) 
-17.779

>  <r_i_glide_ecoul>  (118) 
-4.44437

>  <r_i_glide_erotb>  (118) 
0.570556

>  <r_i_glide_esite>  (118) 
-0.0488765

>  <r_i_glide_emodel>  (118) 
-27.422

>  <r_i_glide_energy>  (118) 
-22.2234

>  <r_i_glide_einternal>  (118) 
0.469123

>  <r_i_glide_intrahb_reward>  (118) 
-0

>  <i_i_glide_confnum>  (118) 
2

>  <i_i_glide_posenum>  (118) 
1

>  <r_i_glide_eff_state_penalty>  (118) 
0

>  <ligand_id>  (118) 
23

>  <original_smiles>  (118) 
Oc1c2c(c(O)n1CC1CCCO1)C1C=CC2C1

>  <smiles>  (118) 
[H]C1=C([H])C2([H])C([H])([H])C1([H])C1([H])C(=O)N(C([H])([H])C3([H])OC([H])([H])C([H])([H])C3([H])[H])C(=O)C21[H]

$$$$
26:0:0
     RDKit          3D

 24 25  0  0  1  0  0  0  0  0999 V2000
    3.6721    0.1116   -4.2521 C   0  0  0  0  0  0  0  0  0  0  0  0
    3.9211   -1.2114   -4.7163 O   0  0  0  0  0  0  0  0  0  0  0  0
    3.1202   -2.1979   -4.0801 C   0  0  0  0  0  0  0  0  0  0  0  0
    3.6707   -2.5522   -2.6866 C   0  0  2  0  0  0  0  0  0  0  0  0
    4.9949   -3.3452   -2.7698 C   0  0  0  0  0  0  0  0  0  0  0  0
    5.5579   -3.5799   -1.4744 O   0  0  0  0  0  0  0  0  0  0  0  0
    4.6864   -4.0147   -0.5368 C   0  0  0  0  0  0  0  0  0  0  0  0
    4.9197   -4.6242    0.6609 C   0  0  0  0  0  0  0  0  0  0  0  0
    3.6064   -4.8122    1.1847 C   0  0  0  0  0  0  0  0  0  0  0  0
    2.6507   -4.3596    0.3740 N   0  0  0  0  0  0  0  0  0  0  0  0
    3.3263   -3.8618   -0.6841 N   0  0  0  0  0  0  0  0  0  0  0  0
    2.6453   -3.3153   -1.8324 C   0  0  0  0  0  0  0  0  0  0  0  0
    4.3046    0.8146   -4.7933 H   0  0  0  0  0  0  0  0  0  0  0  0
    3.8874    0.2347   -3.1913 H   0  0  0  0  0  0  0  0  0  0  0  0
    2.6343    0.3968   -4.4277 H   0  0  0  0  0  0  0  0  0  0  0  0
    2.0833   -1.8660   -4.0304 H   0  0  0  0  0  0  0  0  0  0  0  0
    3.1103   -3.0902   -4.7059 H   0  0  0  0  0  0  0  0  0  0  0  0
    3.8842   -1.6406   -2.1331 H   0  0  0  0  0  0  0  0  0  0  0  0
    4.8464   -4.3039   -3.2753 H   0  0  0  0  0  0  0  0  0  0  0  0
    5.7268   -2.7915   -3.3559 H   0  0  0  0  0  0  0  0  0  0  0  0
    5.8761   -4.8911    1.0908 H   0  0  0  0  0  0  0  0  0  0  0  0
    3.3083   -5.2634    2.1201 H   0  0  0  0  0  0  0  0  0  0  0  0
    1.8431   -2.6627   -1.5110 H   0  0  0  0  0  0  0  0  0  0  0  0
    2.1850   -4.1229   -2.3987 H   0  0  0  0  0  0  0  0  0  0  0  0
  1  2  1  0
  1 13  1  0
  1 14  1  0
  1 15  1  0
  2  3  1  0
  3  4  1  0
  3 16  1  0
  3 17  1  0
  4 12  1  0
  4  5  1  0
  4 18  1  1
  5  6  1  0
  5 19  1  0
  5 20  1  0
  6  7  1  0
  7 11  1  0
  7  8  2  0
  8  9  1  0
  8 21  1  0
  9 10  2  0
  9 22  1  0
 10 11  1  0
 11 12  1  0
 12 23  1  0
 12 24  1  0
M  END
>  <i_m_ct_stereo_status>  (119) 
1

>  <s_m_source_file>  (119) 
/var/tmp/pbs.5076255.sched01/tmpmtrcy7mx/460f9z2a7c.sdf

>  <i_m_source_file_index>  (119) 
9

>  <i_lp_mmshare_version>  (119) 
48012

>  <i_f3d_flags>  (119) 
0

>  <s_epik_input>  (119) 
W0NIM11PW0NIMl1bQ0BIXShbQ0gyXU8xKVtDSDJdbihjMTIpbltjSF1bY0hdMg==

>  <s_epik_cmdline>  (119) 
J2VwaWtfcHl0aG9uJywgJy1waHQnLCAnMi4wJywgJy1waCcsICc3LjAnLCAnLXRuJywgJzgnLCAnLW1hJywgJzIwMCcsICctaW1hZScsICc8aW5maWxlLm1hZT4nLCAnLW9tYWUnLCAnPG91dGZpbGUubWFlPic=

>  <r_lp_tautomer_probability>  (119) 
1

>  <r_epik_Ionization_Penalty>  (119) 
0.000262256

>  <r_epik_Ionization_Penalty_Charging>  (119) 
0

>  <r_epik_Ionization_Penalty_Neutral>  (119) 
0.000262256

>  <r_epik_State_Penalty>  (119) 
-0

>  <r_epik_Charging_Adjusted_Penalty>  (119) 
0

>  <i_epik_Tot_Q>  (119) 
0

>  <i_epik_Tot_abs_Q>  (119) 
0

>  <s_lp_Force_Field>  (119) 
OPLS3e

>  <r_lp_Energy>  (119) 
8.60545

>  <b_lp_Chiralities_Consistent>  (119) 
1

>  <s_lp_Variant>  (119) 
26:0-1

>  <s_i_glide_gridfile>  (119) 
pfpi4k_grid

>  <i_i_glide_lignum>  (119) 
9

>  <i_i_glide_rotatable_bonds>  (119) 
2

>  <r_i_docking_score>  (119) 
-4.54265

>  <r_i_glide_ligand_efficiency>  (119) 
-0.378555

>  <r_i_glide_ligand_efficiency_sa>  (119) 
-0.866673

>  <r_i_glide_ligand_efficiency_ln>  (119) 
-1.30352

>  <r_i_glide_gscore>  (119) 
-4.54265

>  <r_i_glide_lipo>  (119) 
-0.549029

>  <r_i_glide_hbond>  (119) 
-0.32

>  <r_i_glide_metal>  (119) 
-0

>  <r_i_glide_rewards>  (119) 
-2.25

>  <r_i_glide_evdw>  (119) 
-17.1705

>  <r_i_glide_ecoul>  (119) 
-3.69037

>  <r_i_glide_erotb>  (119) 
0

>  <r_i_glide_esite>  (119) 
-0.0115452

>  <r_i_glide_emodel>  (119) 
-26.5786

>  <r_i_glide_energy>  (119) 
-20.8609

>  <r_i_glide_einternal>  (119) 
1.12781

>  <r_i_glide_intrahb_reward>  (119) 
-0

>  <i_i_glide_confnum>  (119) 
2

>  <i_i_glide_posenum>  (119) 
1

>  <r_i_glide_eff_state_penalty>  (119) 
0

>  <ligand_id>  (119) 
26

>  <original_smiles>  (119) 
COCC1COc2ccnn2C1

>  <smiles>  (119) 
[H]c1nn2c(c1[H])OC([H])([H])C([H])(C([H])([H])OC([H])([H])[H])C2([H])[H]

$$$$
26:0:1
     RDKit          3D

 24 25  0  0  1  0  0  0  0  0999 V2000
    3.0284    0.0593   -5.0792 C   0  0  0  0  0  0  0  0  0  0  0  0
    3.7126   -1.0094   -4.4402 O   0  0  0  0  0  0  0  0  0  0  0  0
    2.9767   -1.5469   -3.3503 C   0  0  0  0  0  0  0  0  0  0  0  0
    3.8729   -2.4991   -2.5438 C   0  0  2  0  0  0  0  0  0  0  0  0
    3.0915   -3.2297   -1.4245 C   0  0  0  0  0  0  0  0  0  0  0  0
    3.9072   -4.1602   -0.7061 O   0  0  0  0  0  0  0  0  0  0  0  0
    5.1340   -3.7073   -0.3468 C   0  0  0  0  0  0  0  0  0  0  0  0
    6.0168   -4.1931    0.5705 C   0  0  0  0  0  0  0  0  0  0  0  0
    7.1158   -3.2858    0.4612 C   0  0  0  0  0  0  0  0  0  0  0  0
    6.9213   -2.3332   -0.4458 N   0  0  0  0  0  0  0  0  0  0  0  0
    5.6938   -2.6017   -0.9362 N   0  0  0  0  0  0  0  0  0  0  0  0
    5.0753   -1.7628   -1.9324 C   0  0  0  0  0  0  0  0  0  0  0  0
    3.6202    0.4250   -5.9194 H   0  0  0  0  0  0  0  0  0  0  0  0
    2.8791    0.8920   -4.3905 H   0  0  0  0  0  0  0  0  0  0  0  0
    2.0545   -0.2518   -5.4602 H   0  0  0  0  0  0  0  0  0  0  0  0
    2.6162   -0.7478   -2.7011 H   0  0  0  0  0  0  0  0  0  0  0  0
    2.1056   -2.0796   -3.7346 H   0  0  0  0  0  0  0  0  0  0  0  0
    4.2435   -3.2627   -3.2304 H   0  0  0  0  0  0  0  0  0  0  0  0
    2.6739   -2.5082   -0.7189 H   0  0  0  0  0  0  0  0  0  0  0  0
    2.2554   -3.7788   -1.8558 H   0  0  0  0  0  0  0  0  0  0  0  0
    5.8886   -5.0520    1.2125 H   0  0  0  0  0  0  0  0  0  0  0  0
    8.0438   -3.2853    1.0167 H   0  0  0  0  0  0  0  0  0  0  0  0
    5.8013   -1.5222   -2.7015 H   0  0  0  0  0  0  0  0  0  0  0  0
    4.7600   -0.8371   -1.4464 H   0  0  0  0  0  0  0  0  0  0  0  0
  1  2  1  0
  1 13  1  0
  1 14  1  0
  1 15  1  0
  2  3  1  0
  3  4  1  0
  3 16  1  0
  3 17  1  0
  4 12  1  0
  4  5  1  0
  4 18  1  6
  5  6  1  0
  5 19  1  0
  5 20  1  0
  6  7  1  0
  7 11  1  0
  7  8  2  0
  8  9  1  0
  8 21  1  0
  9 10  2  0
  9 22  1  0
 10 11  1  0
 11 12  1  0
 12 23  1  0
 12 24  1  0
M  END
>  <i_m_ct_stereo_status>  (120) 
1

>  <s_m_source_file>  (120) 
/var/tmp/pbs.5076255.sched01/tmpmtrcy7mx/460f9z2a7c.sdf

>  <i_m_source_file_index>  (120) 
9

>  <i_lp_mmshare_version>  (120) 
48012

>  <i_f3d_flags>  (120) 
0

>  <s_epik_input>  (120) 
W0NIM11PW0NIMl1bQ0BIXShbQ0gyXU8xKVtDSDJdbihjMTIpbltjSF1bY0hdMg==

>  <s_epik_cmdline>  (120) 
J2VwaWtfcHl0aG9uJywgJy1waHQnLCAnMi4wJywgJy1waCcsICc3LjAnLCAnLXRuJywgJzgnLCAnLW1hJywgJzIwMCcsICctaW1hZScsICc8aW5maWxlLm1hZT4nLCAnLW9tYWUnLCAnPG91dGZpbGUubWFlPic=

>  <r_lp_tautomer_probability>  (120) 
1

>  <r_epik_Ionization_Penalty>  (120) 
0.000262256

>  <r_epik_Ionization_Penalty_Charging>  (120) 
0

>  <r_epik_Ionization_Penalty_Neutral>  (120) 
0.000262256

>  <r_epik_State_Penalty>  (120) 
-0

>  <r_epik_Charging_Adjusted_Penalty>  (120) 
0

>  <i_epik_Tot_Q>  (120) 
0

>  <i_epik_Tot_abs_Q>  (120) 
0

>  <s_lp_Force_Field>  (120) 
OPLS3e

>  <r_lp_Energy>  (120) 
8.60545

>  <b_lp_Chiralities_Consistent>  (120) 
1

>  <s_lp_Variant>  (120) 
26:0-1

>  <s_i_glide_gridfile>  (120) 
pfpi4k_grid

>  <i_i_glide_lignum>  (120) 
9

>  <i_i_glide_rotatable_bonds>  (120) 
2

>  <r_i_docking_score>  (120) 
-4.42359

>  <r_i_glide_ligand_efficiency>  (120) 
-0.368633

>  <r_i_glide_ligand_efficiency_sa>  (120) 
-0.843959

>  <r_i_glide_ligand_efficiency_ln>  (120) 
-1.26936

>  <r_i_glide_gscore>  (120) 
-4.42359

>  <r_i_glide_lipo>  (120) 
-0.568217

>  <r_i_glide_hbond>  (120) 
-0.202504

>  <r_i_glide_metal>  (120) 
-0

>  <r_i_glide_rewards>  (120) 
-2.25

>  <r_i_glide_evdw>  (120) 
-18.2213

>  <r_i_glide_ecoul>  (120) 
-3.20376

>  <r_i_glide_erotb>  (120) 
0

>  <r_i_glide_esite>  (120) 
-0.0112436

>  <r_i_glide_emodel>  (120) 
-27.4462

>  <r_i_glide_energy>  (120) 
-21.4251

>  <r_i_glide_einternal>  (120) 
0.274181

>  <r_i_glide_intrahb_reward>  (120) 
-0

>  <i_i_glide_confnum>  (120) 
1

>  <i_i_glide_posenum>  (120) 
10

>  <r_i_glide_eff_state_penalty>  (120) 
0

>  <ligand_id>  (120) 
26

>  <original_smiles>  (120) 
COCC1COc2ccnn2C1

>  <smiles>  (120) 
[H]c1nn2c(c1[H])OC([H])([H])C([H])(C([H])([H])OC([H])([H])[H])C2([H])[H]

$$$$
26:0:2
     RDKit          3D

 24 25  0  0  1  0  0  0  0  0999 V2000
    4.8536   -6.7439    0.8934 C   0  0  0  0  0  0  0  0  0  0  0  0
    5.1100   -5.6157    0.0751 O   0  0  0  0  0  0  0  0  0  0  0  0
    4.4437   -4.4445    0.5178 C   0  0  0  0  0  0  0  0  0  0  0  0
    4.6988   -3.3054   -0.4846 C   0  0  2  0  0  0  0  0  0  0  0  0
    4.1765   -1.9479    0.0390 C   0  0  0  0  0  0  0  0  0  0  0  0
    4.4868   -0.8753   -0.8534 O   0  0  0  0  0  0  0  0  0  0  0  0
    4.2037   -1.1042   -2.1586 C   0  0  0  0  0  0  0  0  0  0  0  0
    4.0545   -0.2344   -3.1917 C   0  0  0  0  0  0  0  0  0  0  0  0
    3.8045   -1.0876   -4.3012 C   0  0  0  0  0  0  0  0  0  0  0  0
    3.8187   -2.3769   -3.9784 N   0  0  0  0  0  0  0  0  0  0  0  0
    4.0572   -2.3779   -2.6510 N   0  0  0  0  0  0  0  0  0  0  0  0
    4.0816   -3.5915   -1.8709 C   0  0  0  0  0  0  0  0  0  0  0  0
    5.3890   -7.6080    0.5005 H   0  0  0  0  0  0  0  0  0  0  0  0
    3.7910   -6.9896    0.9061 H   0  0  0  0  0  0  0  0  0  0  0  0
    5.1898   -6.5779    1.9179 H   0  0  0  0  0  0  0  0  0  0  0  0
    3.3722   -4.6255    0.6223 H   0  0  0  0  0  0  0  0  0  0  0  0
    4.8251   -4.1669    1.5020 H   0  0  0  0  0  0  0  0  0  0  0  0
    5.7776   -3.2074   -0.6100 H   0  0  0  0  0  0  0  0  0  0  0  0
    3.0974   -1.9824    0.2103 H   0  0  0  0  0  0  0  0  0  0  0  0
    4.6372   -1.7191    0.9989 H   0  0  0  0  0  0  0  0  0  0  0  0
    4.1042    0.8449   -3.1574 H   0  0  0  0  0  0  0  0  0  0  0  0
    3.6140   -0.8098   -5.3283 H   0  0  0  0  0  0  0  0  0  0  0  0
    4.6306   -4.3685   -2.4032 H   0  0  0  0  0  0  0  0  0  0  0  0
    3.0458   -3.9141   -1.7601 H   0  0  0  0  0  0  0  0  0  0  0  0
  1  2  1  0
  1 13  1  0
  1 14  1  0
  1 15  1  0
  2  3  1  0
  3  4  1  0
  3 16  1  0
  3 17  1  0
  4 12  1  0
  4  5  1  0
  4 18  1  6
  5  6  1  0
  5 19  1  0
  5 20  1  0
  6  7  1  0
  7 11  1  0
  7  8  2  0
  8  9  1  0
  8 21  1  0
  9 10  2  0
  9 22  1  0
 10 11  1  0
 11 12  1  0
 12 23  1  0
 12 24  1  0
M  END
>  <i_m_ct_stereo_status>  (121) 
1

>  <s_m_source_file>  (121) 
/var/tmp/pbs.5076255.sched01/tmpmtrcy7mx/460f9z2a7c.sdf

>  <i_m_source_file_index>  (121) 
9

>  <i_lp_mmshare_version>  (121) 
48012

>  <i_f3d_flags>  (121) 
0

>  <s_epik_input>  (121) 
W0NIM11PW0NIMl1bQ0BIXShbQ0gyXU8xKVtDSDJdbihjMTIpbltjSF1bY0hdMg==

>  <s_epik_cmdline>  (121) 
J2VwaWtfcHl0aG9uJywgJy1waHQnLCAnMi4wJywgJy1waCcsICc3LjAnLCAnLXRuJywgJzgnLCAnLW1hJywgJzIwMCcsICctaW1hZScsICc8aW5maWxlLm1hZT4nLCAnLW9tYWUnLCAnPG91dGZpbGUubWFlPic=

>  <r_lp_tautomer_probability>  (121) 
1

>  <r_epik_Ionization_Penalty>  (121) 
0.000262256

>  <r_epik_Ionization_Penalty_Charging>  (121) 
0

>  <r_epik_Ionization_Penalty_Neutral>  (121) 
0.000262256

>  <r_epik_State_Penalty>  (121) 
-0

>  <r_epik_Charging_Adjusted_Penalty>  (121) 
0

>  <i_epik_Tot_Q>  (121) 
0

>  <i_epik_Tot_abs_Q>  (121) 
0

>  <s_lp_Force_Field>  (121) 
OPLS3e

>  <r_lp_Energy>  (121) 
8.60545

>  <b_lp_Chiralities_Consistent>  (121) 
1

>  <s_lp_Variant>  (121) 
26:0-1

>  <s_i_glide_gridfile>  (121) 
pfpi4k_grid

>  <i_i_glide_lignum>  (121) 
9

>  <i_i_glide_rotatable_bonds>  (121) 
2

>  <r_i_docking_score>  (121) 
-4.09332

>  <r_i_glide_ligand_efficiency>  (121) 
-0.34111

>  <r_i_glide_ligand_efficiency_sa>  (121) 
-0.780946

>  <r_i_glide_ligand_efficiency_ln>  (121) 
-1.17458

>  <r_i_glide_gscore>  (121) 
-4.09332

>  <r_i_glide_lipo>  (121) 
-0.387342

>  <r_i_glide_hbond>  (121) 
-0.191969

>  <r_i_glide_metal>  (121) 
-0

>  <r_i_glide_rewards>  (121) 
-2.38642

>  <r_i_glide_evdw>  (121) 
-17.8086

>  <r_i_glide_ecoul>  (121) 
-1.58106

>  <r_i_glide_erotb>  (121) 
0

>  <r_i_glide_esite>  (121) 
0

>  <r_i_glide_emodel>  (121) 
-25.0817

>  <r_i_glide_energy>  (121) 
-19.3897

>  <r_i_glide_einternal>  (121) 
0.0422165

>  <r_i_glide_intrahb_reward>  (121) 
-0

>  <i_i_glide_confnum>  (121) 
1

>  <i_i_glide_posenum>  (121) 
2

>  <r_i_glide_eff_state_penalty>  (121) 
0

>  <ligand_id>  (121) 
26

>  <original_smiles>  (121) 
COCC1COc2ccnn2C1

>  <smiles>  (121) 
[H]c1nn2c(c1[H])OC([H])([H])C([H])(C([H])([H])OC([H])([H])[H])C2([H])[H]

$$$$
27:0:0
     RDKit          3D

 44 48  0  0  1  0  0  0  0  0999 V2000
    1.3170    5.1274    5.3498 C   0  0  0  0  0  0  0  0  0  0  0  0
    0.2610    4.0620    5.6692 C   0  0  1  0  0  0  0  0  0  0  0  0
   -0.4039    4.3215    6.9092 O   0  0  0  0  0  0  0  0  0  0  0  0
   -0.8040    3.1910    7.5321 C   0  0  0  0  0  0  0  0  0  0  0  0
   -1.3881    3.0940    8.6053 O   0  0  0  0  0  0  0  0  0  0  0  0
   -0.4303    2.0065    6.6477 C   0  0  1  0  0  0  0  0  0  0  0  0
   -1.6151    1.7376    5.6549 C   0  0  0  0  0  0  0  0  0  0  0  0
   -1.6972    2.8520    4.6359 C   0  0  0  0  0  0  0  0  0  0  0  0
   -2.5304    3.1396    3.5219 C   0  0  0  0  0  0  0  0  0  0  0  0
   -2.2190    4.3114    2.9831 N   0  0  0  0  0  0  0  0  0  0  0  0
   -1.1236    4.8131    3.7088 O   0  0  0  0  0  0  0  0  0  0  0  0
   -0.8326    3.8978    4.6558 C   0  0  0  0  0  0  0  0  0  0  0  0
    0.8192    2.6510    5.9891 C   0  0  1  0  0  0  0  0  0  0  0  0
    1.4002    1.8973    4.7893 C   0  0  0  0  0  0  0  0  0  0  0  0
    2.6128    1.3122    4.7631 C   0  0  0  0  0  0  0  0  0  0  0  0
    3.2114    0.6085    3.6150 C   0  0  0  0  0  0  0  0  0  0  0  0
    4.4799    0.0123    3.7511 C   0  0  0  0  0  0  0  0  0  0  0  0
    5.0419   -0.6562    2.6509 C   0  0  0  0  0  0  0  0  0  0  0  0
    4.3408   -0.7194    1.4254 C   0  0  0  0  0  0  0  0  0  0  0  0
    4.8998   -1.4108    0.2353 C   0  0  0  0  0  0  0  0  0  0  0  0
    4.0744   -1.8772   -0.8159 C   0  0  0  0  0  0  0  0  0  0  0  0
    4.6447   -2.5258   -1.9230 C   0  0  0  0  0  0  0  0  0  0  0  0
    6.0383   -2.7003   -1.9553 C   0  0  0  0  0  0  0  0  0  0  0  0
    6.8516   -2.2544   -0.9769 N   0  0  0  0  0  0  0  0  0  0  0  0
    6.2880   -1.6424    0.0854 C   0  0  0  0  0  0  0  0  0  0  0  0
    3.0757   -0.0851    1.4021 C   0  0  0  0  0  0  0  0  0  0  0  0
    2.5236    0.5527    2.4553 N   0  0  0  0  0  0  0  0  0  0  0  0
    1.8251    4.9234    4.4065 H   0  0  0  0  0  0  0  0  0  0  0  0
    2.0705    5.1806    6.1348 H   0  0  0  0  0  0  0  0  0  0  0  0
    0.8578    6.1137    5.2735 H   0  0  0  0  0  0  0  0  0  0  0  0
   -0.1949    1.1346    7.2571 H   0  0  0  0  0  0  0  0  0  0  0  0
   -1.4645    0.7808    5.1564 H   0  0  0  0  0  0  0  0  0  0  0  0
   -2.5524    1.6503    6.2129 H   0  0  0  0  0  0  0  0  0  0  0  0
   -3.3452    2.5614    3.1123 H   0  0  0  0  0  0  0  0  0  0  0  0
    1.6106    2.7287    6.7397 H   0  0  0  0  0  0  0  0  0  0  0  0
    0.7815    1.8499    3.9022 H   0  0  0  0  0  0  0  0  0  0  0  0
    3.2205    1.3593    5.6545 H   0  0  0  0  0  0  0  0  0  0  0  0
    5.0175    0.0624    4.6865 H   0  0  0  0  0  0  0  0  0  0  0  0
    6.0085   -1.1224    2.7682 H   0  0  0  0  0  0  0  0  0  0  0  0
    3.0036   -1.7543   -0.7851 H   0  0  0  0  0  0  0  0  0  0  0  0
    4.0243   -2.8914   -2.7292 H   0  0  0  0  0  0  0  0  0  0  0  0
    6.5180   -3.1917   -2.7895 H   0  0  0  0  0  0  0  0  0  0  0  0
    6.9961   -1.3067    0.8261 H   0  0  0  0  0  0  0  0  0  0  0  0
    2.4743   -0.0687    0.5091 H   0  0  0  0  0  0  0  0  0  0  0  0
  2  1  1  6
  1 28  1  0
  1 29  1  0
  1 30  1  0
  2 12  1  0
  2 13  1  0
  2  3  1  0
  3  4  1  0
  4  5  2  0
  4  6  1  0
  6  7  1  0
  6 13  1  0
  6 31  1  1
  7  8  1  0
  7 32  1  0
  7 33  1  0
  8 12  2  0
  8  9  1  0
  9 10  2  0
  9 34  1  0
 10 11  1  0
 11 12  1  0
 13 14  1  0
 13 35  1  1
 14 15  2  3
 14 36  1  0
 15 16  1  0
 15 37  1  0
 16 27  1  0
 16 17  2  0
 17 18  1  0
 17 38  1  0
 18 19  2  0
 18 39  1  0
 19 20  1  0
 19 26  1  0
 20 25  1  0
 20 21  2  0
 21 22  1  0
 21 40  1  0
 22 23  2  0
 22 41  1  0
 23 24  1  0
 23 42  1  0
 24 25  2  0
 25 43  1  0
 26 27  2  0
 26 44  1  0
M  END
>  <i_m_ct_stereo_status>  (122) 
1

>  <s_m_source_file>  (122) 
/var/tmp/pbs.5076255.sched01/tmpmtrcy7mx/460f9z2a7c.sdf

>  <i_m_source_file_index>  (122) 
10

>  <i_lp_mmshare_version>  (122) 
48012

>  <i_f3d_flags>  (122) 
0

>  <s_epik_input>  (122) 
W0NIM11bQ0BdMTJjM2MoW2NIXW5vMylbQ0gyXVtDQEhdKEMoTzEpPU8pW0NASF0yL1tDSF09W0NIXS9jNFtjSF1bY0hdYyhbY0hdbjQpLWM1W2NIXVtjSF1bY0hdbltjSF01

>  <s_epik_cmdline>  (122) 
J2VwaWtfcHl0aG9uJywgJy1waHQnLCAnMi4wJywgJy1waCcsICc3LjAnLCAnLXRuJywgJzgnLCAnLW1hJywgJzIwMCcsICctaW1hZScsICc8aW5maWxlLm1hZT4nLCAnLW9tYWUnLCAnPG91dGZpbGUubWFlPic=

>  <r_epik_Ionization_Penalty>  (122) 
0.0115951

>  <r_epik_Ionization_Penalty_Charging>  (122) 
0

>  <r_epik_Ionization_Penalty_Neutral>  (122) 
0.0115951

>  <r_epik_State_Penalty>  (122) 
0.00643764

>  <r_epik_Charging_Adjusted_Penalty>  (122) 
0.00643764

>  <i_epik_Tot_Q>  (122) 
0

>  <i_epik_Tot_abs_Q>  (122) 
0

>  <s_epik_Chemistry_Notes>  (122) 
This compound has an ester and may undergo hydrolysis at high or low pH.

>  <s_lp_Force_Field>  (122) 
OPLS3e

>  <r_lp_Energy>  (122) 
38.412

>  <b_lp_Chiralities_Consistent>  (122) 
1

>  <s_lp_Variant>  (122) 
27:0-1

>  <s_i_glide_gridfile>  (122) 
pfpi4k_grid

>  <i_i_glide_lignum>  (122) 
10

>  <i_i_glide_rotatable_bonds>  (122) 
3

>  <r_i_docking_score>  (122) 
-3.22388

>  <r_i_glide_ligand_efficiency>  (122) 
-0.119403

>  <r_i_glide_ligand_efficiency_sa>  (122) 
-0.358209

>  <r_i_glide_ligand_efficiency_ln>  (122) 
-0.750467

>  <r_i_glide_gscore>  (122) 
-3.22388

>  <r_i_glide_lipo>  (122) 
-0.256466

>  <r_i_glide_hbond>  (122) 
-0.16

>  <r_i_glide_metal>  (122) 
-0

>  <r_i_glide_rewards>  (122) 
-0.958786

>  <r_i_glide_evdw>  (122) 
-29.4833

>  <r_i_glide_ecoul>  (122) 
-4.13046

>  <r_i_glide_erotb>  (122) 
0.445211

>  <r_i_glide_esite>  (122) 
-0.200109

>  <r_i_glide_emodel>  (122) 
-40.5885

>  <r_i_glide_energy>  (122) 
-33.6137

>  <r_i_glide_einternal>  (122) 
0.15749

>  <r_i_glide_intrahb_reward>  (122) 
-0

>  <i_i_glide_confnum>  (122) 
6

>  <i_i_glide_posenum>  (122) 
12

>  <r_i_glide_eff_state_penalty>  (122) 
0

>  <ligand_id>  (122) 
27

>  <original_smiles>  (122) 
CC12OC(=O)C(Cc3cnoc31)C2C=Cc1ccc(-c2cccnc2)cn1

>  <smiles>  (122) 
[H]C(=C([H])C1([H])C2([H])C(=O)OC1(C([H])([H])[H])c1onc([H])c1C2([H])[H])c1nc([H])c(-c2c([H])nc([H])c([H])c2[H])c([H])c1[H]

$$$$
27:0:1
     RDKit          3D

 44 48  0  0  1  0  0  0  0  0999 V2000
    1.5611    2.3353    6.9952 C   0  0  0  0  0  0  0  0  0  0  0  0
    0.4635    2.8303    6.0439 C   0  0  1  0  0  0  0  0  0  0  0  0
   -0.7058    3.2411    6.7558 O   0  0  0  0  0  0  0  0  0  0  0  0
   -1.8371    3.0531    6.0475 C   0  0  0  0  0  0  0  0  0  0  0  0
   -2.9845    3.2974    6.3985 O   0  0  0  0  0  0  0  0  0  0  0  0
   -1.4563    2.4866    4.6821 C   0  0  1  0  0  0  0  0  0  0  0  0
   -1.1863    3.6839    3.7050 C   0  0  0  0  0  0  0  0  0  0  0  0
    0.0860    4.3978    4.1033 C   0  0  0  0  0  0  0  0  0  0  0  0
    0.8280    5.4958    3.5903 C   0  0  0  0  0  0  0  0  0  0  0  0
    1.9075    5.7276    4.3278 N   0  0  0  0  0  0  0  0  0  0  0  0
    1.9022    4.7817    5.3657 O   0  0  0  0  0  0  0  0  0  0  0  0
    0.8263    3.9907    5.1628 C   0  0  0  0  0  0  0  0  0  0  0  0
   -0.1779    1.7395    5.1470 C   0  0  1  0  0  0  0  0  0  0  0  0
    0.7222    1.2047    4.0289 C   0  0  0  0  0  0  0  0  0  0  0  0
    0.9713   -0.0986    3.8018 C   0  0  0  0  0  0  0  0  0  0  0  0
    1.8696   -0.6398    2.7662 C   0  0  0  0  0  0  0  0  0  0  0  0
    1.8485   -2.0215    2.4961 C   0  0  0  0  0  0  0  0  0  0  0  0
    2.6955   -2.5340    1.4966 C   0  0  0  0  0  0  0  0  0  0  0  0
    3.5515   -1.6659    0.7890 C   0  0  0  0  0  0  0  0  0  0  0  0
    4.4523   -2.1689   -0.2703 C   0  0  0  0  0  0  0  0  0  0  0  0
    4.0730   -3.2248   -1.1288 C   0  0  0  0  0  0  0  0  0  0  0  0
    4.9676   -3.6752   -2.1159 C   0  0  0  0  0  0  0  0  0  0  0  0
    6.2238   -3.0538   -2.2140 C   0  0  0  0  0  0  0  0  0  0  0  0
    6.6099   -2.0461   -1.4083 N   0  0  0  0  0  0  0  0  0  0  0  0
    5.7390   -1.6195   -0.4680 C   0  0  0  0  0  0  0  0  0  0  0  0
    3.4930   -0.2980    1.1415 C   0  0  0  0  0  0  0  0  0  0  0  0
    2.6827    0.2057    2.0965 N   0  0  0  0  0  0  0  0  0  0  0  0
    2.4505    2.0088    6.4524 H   0  0  0  0  0  0  0  0  0  0  0  0
    1.2085    1.5005    7.6011 H   0  0  0  0  0  0  0  0  0  0  0  0
    1.8595    3.1294    7.6818 H   0  0  0  0  0  0  0  0  0  0  0  0
   -2.2406    1.8234    4.3120 H   0  0  0  0  0  0  0  0  0  0  0  0
   -1.1055    3.3087    2.6854 H   0  0  0  0  0  0  0  0  0  0  0  0
   -2.0356    4.3671    3.7078 H   0  0  0  0  0  0  0  0  0  0  0  0
    0.6309    6.1118    2.7248 H   0  0  0  0  0  0  0  0  0  0  0  0
   -0.4772    0.8866    5.7644 H   0  0  0  0  0  0  0  0  0  0  0  0
    1.1887    1.9432    3.3911 H   0  0  0  0  0  0  0  0  0  0  0  0
    0.4928   -0.8274    4.4377 H   0  0  0  0  0  0  0  0  0  0  0  0
    1.1904   -2.6832    3.0350 H   0  0  0  0  0  0  0  0  0  0  0  0
    2.6847   -3.5910    1.2757 H   0  0  0  0  0  0  0  0  0  0  0  0
    3.1017   -3.6938   -1.0432 H   0  0  0  0  0  0  0  0  0  0  0  0
    4.6986   -4.4815   -2.7823 H   0  0  0  0  0  0  0  0  0  0  0  0
    6.9339   -3.3780   -2.9572 H   0  0  0  0  0  0  0  0  0  0  0  0
    6.0979   -0.8123    0.1491 H   0  0  0  0  0  0  0  0  0  0  0  0
    4.1102    0.4274    0.6346 H   0  0  0  0  0  0  0  0  0  0  0  0
  2  1  1  1
  1 28  1  0
  1 29  1  0
  1 30  1  0
  2 12  1  0
  2 13  1  0
  2  3  1  0
  3  4  1  0
  4  5  2  0
  4  6  1  0
  6  7  1  0
  6 13  1  0
  6 31  1  6
  7  8  1  0
  7 32  1  0
  7 33  1  0
  8 12  2  0
  8  9  1  0
  9 10  2  0
  9 34  1  0
 10 11  1  0
 11 12  1  0
 13 14  1  0
 13 35  1  1
 14 15  2  3
 14 36  1  0
 15 16  1  0
 15 37  1  0
 16 27  1  0
 16 17  2  0
 17 18  1  0
 17 38  1  0
 18 19  2  0
 18 39  1  0
 19 20  1  0
 19 26  1  0
 20 25  1  0
 20 21  2  0
 21 22  1  0
 21 40  1  0
 22 23  2  0
 22 41  1  0
 23 24  1  0
 23 42  1  0
 24 25  2  0
 25 43  1  0
 26 27  2  0
 26 44  1  0
M  END
>  <i_m_ct_stereo_status>  (123) 
1

>  <s_m_source_file>  (123) 
/var/tmp/pbs.5076255.sched01/tmpmtrcy7mx/460f9z2a7c.sdf

>  <i_m_source_file_index>  (123) 
10

>  <i_lp_mmshare_version>  (123) 
48012

>  <i_f3d_flags>  (123) 
0

>  <s_epik_input>  (123) 
W0NIM11bQ0BdMTJjM2MoW2NIXW5vMylbQ0gyXVtDQEhdKEMoTzEpPU8pW0NASF0yL1tDSF09W0NIXS9jNFtjSF1bY0hdYyhbY0hdbjQpLWM1W2NIXVtjSF1bY0hdbltjSF01

>  <s_epik_cmdline>  (123) 
J2VwaWtfcHl0aG9uJywgJy1waHQnLCAnMi4wJywgJy1waCcsICc3LjAnLCAnLXRuJywgJzgnLCAnLW1hJywgJzIwMCcsICctaW1hZScsICc8aW5maWxlLm1hZT4nLCAnLW9tYWUnLCAnPG91dGZpbGUubWFlPic=

>  <r_epik_Ionization_Penalty>  (123) 
0.0115951

>  <r_epik_Ionization_Penalty_Charging>  (123) 
0

>  <r_epik_Ionization_Penalty_Neutral>  (123) 
0.0115951

>  <r_epik_State_Penalty>  (123) 
0.00643764

>  <r_epik_Charging_Adjusted_Penalty>  (123) 
0.00643764

>  <i_epik_Tot_Q>  (123) 
0

>  <i_epik_Tot_abs_Q>  (123) 
0

>  <s_epik_Chemistry_Notes>  (123) 
This compound has an ester and may undergo hydrolysis at high or low pH.

>  <s_lp_Force_Field>  (123) 
OPLS3e

>  <r_lp_Energy>  (123) 
38.412

>  <b_lp_Chiralities_Consistent>  (123) 
1

>  <s_lp_Variant>  (123) 
27:0-1

>  <s_i_glide_gridfile>  (123) 
pfpi4k_grid

>  <i_i_glide_lignum>  (123) 
10

>  <i_i_glide_rotatable_bonds>  (123) 
3

>  <r_i_docking_score>  (123) 
-3.08827

>  <r_i_glide_ligand_efficiency>  (123) 
-0.11438

>  <r_i_glide_ligand_efficiency_sa>  (123) 
-0.343141

>  <r_i_glide_ligand_efficiency_ln>  (123) 
-0.718897

>  <r_i_glide_gscore>  (123) 
-3.08827

>  <r_i_glide_lipo>  (123) 
-0.156308

>  <r_i_glide_hbond>  (123) 
-0.16

>  <r_i_glide_metal>  (123) 
-0

>  <r_i_glide_rewards>  (123) 
-1.02135

>  <r_i_glide_evdw>  (123) 
-27.4799

>  <r_i_glide_ecoul>  (123) 
-5.33728

>  <r_i_glide_erotb>  (123) 
0.445211

>  <r_i_glide_esite>  (123) 
-0.0212264

>  <r_i_glide_emodel>  (123) 
-39.3024

>  <r_i_glide_energy>  (123) 
-32.8172

>  <r_i_glide_einternal>  (123) 
0.550906

>  <r_i_glide_intrahb_reward>  (123) 
-0

>  <i_i_glide_confnum>  (123) 
6

>  <i_i_glide_posenum>  (123) 
2

>  <r_i_glide_eff_state_penalty>  (123) 
0

>  <ligand_id>  (123) 
27

>  <original_smiles>  (123) 
CC12OC(=O)C(Cc3cnoc31)C2C=Cc1ccc(-c2cccnc2)cn1

>  <smiles>  (123) 
[H]C(=C([H])C1([H])C2([H])C(=O)OC1(C([H])([H])[H])c1onc([H])c1C2([H])[H])c1nc([H])c(-c2c([H])nc([H])c([H])c2[H])c([H])c1[H]

$$$$
27:0:2
     RDKit          3D

 44 48  0  0  1  0  0  0  0  0999 V2000
    1.6176    2.4819    6.9668 C   0  0  0  0  0  0  0  0  0  0  0  0
    0.4707    2.9204    6.0477 C   0  0  1  0  0  0  0  0  0  0  0  0
   -0.6928    3.2934    6.7912 O   0  0  0  0  0  0  0  0  0  0  0  0
   -1.8388    3.0505    6.1199 C   0  0  0  0  0  0  0  0  0  0  0  0
   -2.9870    3.2486    6.5053 O   0  0  0  0  0  0  0  0  0  0  0  0
   -1.4786    2.4847    4.7516 C   0  0  1  0  0  0  0  0  0  0  0  0
   -1.2843    3.6808    3.7539 C   0  0  0  0  0  0  0  0  0  0  0  0
   -0.0298    4.4493    4.1052 C   0  0  0  0  0  0  0  0  0  0  0  0
    0.6524    5.5668    3.5561 C   0  0  0  0  0  0  0  0  0  0  0  0
    1.7422    5.8542    4.2575 N   0  0  0  0  0  0  0  0  0  0  0  0
    1.8074    4.9202    5.3059 O   0  0  0  0  0  0  0  0  0  0  0  0
    0.7588    4.0840    5.1454 C   0  0  0  0  0  0  0  0  0  0  0  0
   -0.1595    1.7916    5.1882 C   0  0  1  0  0  0  0  0  0  0  0  0
    0.7205    1.2708    4.0507 C   0  0  0  0  0  0  0  0  0  0  0  0
    1.0720   -0.0173    3.8640 C   0  0  0  0  0  0  0  0  0  0  0  0
    1.9776   -0.5109    2.8106 C   0  0  0  0  0  0  0  0  0  0  0  0
    2.8807    0.3518    2.1531 C   0  0  0  0  0  0  0  0  0  0  0  0
    3.7004   -0.1610    1.1356 C   0  0  0  0  0  0  0  0  0  0  0  0
    3.6014   -1.5179    0.7719 C   0  0  0  0  0  0  0  0  0  0  0  0
    4.4317   -2.0822   -0.3096 C   0  0  0  0  0  0  0  0  0  0  0  0
    3.8986   -2.9670   -1.2727 C   0  0  0  0  0  0  0  0  0  0  0  0
    4.7301   -3.4578   -2.2936 C   0  0  0  0  0  0  0  0  0  0  0  0
    6.0769   -3.0569   -2.3196 C   0  0  0  0  0  0  0  0  0  0  0  0
    6.6102   -2.2135   -1.4116 N   0  0  0  0  0  0  0  0  0  0  0  0
    5.7994   -1.7483   -0.4376 C   0  0  0  0  0  0  0  0  0  0  0  0
    2.6598   -2.2926    1.4848 C   0  0  0  0  0  0  0  0  0  0  0  0
    1.8781   -1.8177    2.4798 N   0  0  0  0  0  0  0  0  0  0  0  0
    2.5011    2.1857    6.3993 H   0  0  0  0  0  0  0  0  0  0  0  0
    1.3191    1.6409    7.5915 H   0  0  0  0  0  0  0  0  0  0  0  0
    1.9062    3.2951    7.6348 H   0  0  0  0  0  0  0  0  0  0  0  0
   -2.2434    1.7873    4.4112 H   0  0  0  0  0  0  0  0  0  0  0  0
   -1.2202    3.3006    2.7345 H   0  0  0  0  0  0  0  0  0  0  0  0
   -2.1606    4.3309    3.7778 H   0  0  0  0  0  0  0  0  0  0  0  0
    0.4044    6.1517    2.6846 H   0  0  0  0  0  0  0  0  0  0  0  0
   -0.4010    0.9369    5.8251 H   0  0  0  0  0  0  0  0  0  0  0  0
    1.0786    2.0173    3.3574 H   0  0  0  0  0  0  0  0  0  0  0  0
    0.6902   -0.7612    4.5495 H   0  0  0  0  0  0  0  0  0  0  0  0
    2.9616    1.3964    2.4148 H   0  0  0  0  0  0  0  0  0  0  0  0
    4.3880    0.4960    0.6224 H   0  0  0  0  0  0  0  0  0  0  0  0
    2.8604   -3.2646   -1.2399 H   0  0  0  0  0  0  0  0  0  0  0  0
    4.3542   -4.1503   -3.0333 H   0  0  0  0  0  0  0  0  0  0  0  0
    6.7429   -3.4373   -3.0769 H   0  0  0  0  0  0  0  0  0  0  0  0
    6.2692   -1.0706    0.2573 H   0  0  0  0  0  0  0  0  0  0  0  0
    2.5324   -3.3386    1.2502 H   0  0  0  0  0  0  0  0  0  0  0  0
  2  1  1  1
  1 28  1  0
  1 29  1  0
  1 30  1  0
  2 12  1  0
  2 13  1  0
  2  3  1  0
  3  4  1  0
  4  5  2  0
  4  6  1  0
  6  7  1  0
  6 13  1  0
  6 31  1  6
  7  8  1  0
  7 32  1  0
  7 33  1  0
  8 12  2  0
  8  9  1  0
  9 10  2  0
  9 34  1  0
 10 11  1  0
 11 12  1  0
 13 14  1  0
 13 35  1  1
 14 15  2  3
 14 36  1  0
 15 16  1  0
 15 37  1  0
 16 27  1  0
 16 17  2  0
 17 18  1  0
 17 38  1  0
 18 19  2  0
 18 39  1  0
 19 20  1  0
 19 26  1  0
 20 25  1  0
 20 21  2  0
 21 22  1  0
 21 40  1  0
 22 23  2  0
 22 41  1  0
 23 24  1  0
 23 42  1  0
 24 25  2  0
 25 43  1  0
 26 27  2  0
 26 44  1  0
M  END
>  <i_m_ct_stereo_status>  (124) 
1

>  <s_m_source_file>  (124) 
/var/tmp/pbs.5076255.sched01/tmpmtrcy7mx/460f9z2a7c.sdf

>  <i_m_source_file_index>  (124) 
10

>  <i_lp_mmshare_version>  (124) 
48012

>  <i_f3d_flags>  (124) 
0

>  <s_epik_input>  (124) 
W0NIM11bQ0BdMTJjM2MoW2NIXW5vMylbQ0gyXVtDQEhdKEMoTzEpPU8pW0NASF0yL1tDSF09W0NIXS9jNFtjSF1bY0hdYyhbY0hdbjQpLWM1W2NIXVtjSF1bY0hdbltjSF01

>  <s_epik_cmdline>  (124) 
J2VwaWtfcHl0aG9uJywgJy1waHQnLCAnMi4wJywgJy1waCcsICc3LjAnLCAnLXRuJywgJzgnLCAnLW1hJywgJzIwMCcsICctaW1hZScsICc8aW5maWxlLm1hZT4nLCAnLW9tYWUnLCAnPG91dGZpbGUubWFlPic=

>  <r_epik_Ionization_Penalty>  (124) 
0.0115951

>  <r_epik_Ionization_Penalty_Charging>  (124) 
0

>  <r_epik_Ionization_Penalty_Neutral>  (124) 
0.0115951

>  <r_epik_State_Penalty>  (124) 
0.00643764

>  <r_epik_Charging_Adjusted_Penalty>  (124) 
0.00643764

>  <i_epik_Tot_Q>  (124) 
0

>  <i_epik_Tot_abs_Q>  (124) 
0

>  <s_epik_Chemistry_Notes>  (124) 
This compound has an ester and may undergo hydrolysis at high or low pH.

>  <s_lp_Force_Field>  (124) 
OPLS3e

>  <r_lp_Energy>  (124) 
38.412

>  <b_lp_Chiralities_Consistent>  (124) 
1

>  <s_lp_Variant>  (124) 
27:0-1

>  <s_i_glide_gridfile>  (124) 
pfpi4k_grid

>  <i_i_glide_lignum>  (124) 
10

>  <i_i_glide_rotatable_bonds>  (124) 
3

>  <r_i_docking_score>  (124) 
-3.05148

>  <r_i_glide_ligand_efficiency>  (124) 
-0.113018

>  <r_i_glide_ligand_efficiency_sa>  (124) 
-0.339053

>  <r_i_glide_ligand_efficiency_ln>  (124) 
-0.710334

>  <r_i_glide_gscore>  (124) 
-3.05148

>  <r_i_glide_lipo>  (124) 
-0.258109

>  <r_i_glide_hbond>  (124) 
-0.16

>  <r_i_glide_metal>  (124) 
-0

>  <r_i_glide_rewards>  (124) 
-1.0279

>  <r_i_glide_evdw>  (124) 
-29.462

>  <r_i_glide_ecoul>  (124) 
-3.64583

>  <r_i_glide_erotb>  (124) 
0.445211

>  <r_i_glide_esite>  (124) 
-0.0307041

>  <r_i_glide_emodel>  (124) 
-38.9225

>  <r_i_glide_energy>  (124) 
-33.1078

>  <r_i_glide_einternal>  (124) 
1.70521

>  <r_i_glide_intrahb_reward>  (124) 
-0

>  <i_i_glide_confnum>  (124) 
6

>  <i_i_glide_posenum>  (124) 
27

>  <r_i_glide_eff_state_penalty>  (124) 
0

>  <ligand_id>  (124) 
27

>  <original_smiles>  (124) 
CC12OC(=O)C(Cc3cnoc31)C2C=Cc1ccc(-c2cccnc2)cn1

>  <smiles>  (124) 
[H]C(=C([H])C1([H])C2([H])C(=O)OC1(C([H])([H])[H])c1onc([H])c1C2([H])[H])c1nc([H])c(-c2c([H])nc([H])c([H])c2[H])c([H])c1[H]

$$$$
27:1:0
     RDKit          3D

 44 48  0  0  1  0  0  0  0  0999 V2000
    4.4403   -0.5181    0.7074 C   0  0  0  0  0  0  0  0  0  0  0  0
    4.6530   -1.4179   -0.5169 C   0  0  1  0  0  0  0  0  0  0  0  0
    4.4367   -0.6967   -1.7336 O   0  0  0  0  0  0  0  0  0  0  0  0
    4.0201   -1.4801   -2.7410 C   0  0  0  0  0  0  0  0  0  0  0  0
    3.7699   -1.1408   -3.8939 O   0  0  0  0  0  0  0  0  0  0  0  0
    3.9690   -2.9191   -2.2322 C   0  0  1  0  0  0  0  0  0  0  0  0
    5.3886   -3.5604   -2.4475 C   0  0  0  0  0  0  0  0  0  0  0  0
    6.3961   -2.9303   -1.5122 C   0  0  0  0  0  0  0  0  0  0  0  0
    7.7912   -3.0613   -1.2825 C   0  0  0  0  0  0  0  0  0  0  0  0
    8.2072   -2.2467   -0.3186 N   0  0  0  0  0  0  0  0  0  0  0  0
    7.0828   -1.5070    0.0820 O   0  0  0  0  0  0  0  0  0  0  0  0
    6.0286   -1.9702   -0.6248 C   0  0  0  0  0  0  0  0  0  0  0  0
    3.6495   -2.5921   -0.7407 C   0  0  1  0  0  0  0  0  0  0  0  0
    3.7770   -3.7928    0.2153 C   0  0  0  0  0  0  0  0  0  0  0  0
    3.2153   -3.9837    1.4262 C   0  0  0  0  0  0  0  0  0  0  0  0
    2.3272   -3.1000    2.2065 C   0  0  0  0  0  0  0  0  0  0  0  0
    1.7324   -3.5644    3.3928 C   0  0  0  0  0  0  0  0  0  0  0  0
    0.9034   -2.7037    4.1388 C   0  0  0  0  0  0  0  0  0  0  0  0
    0.7104   -1.3677    3.6976 C   0  0  0  0  0  0  0  0  0  0  0  0
   -0.1431   -0.3932    4.4337 C   0  0  0  0  0  0  0  0  0  0  0  0
   -0.5708    0.8359    3.8628 C   0  0  0  0  0  0  0  0  0  0  0  0
   -1.3937    1.7048    4.6022 C   0  0  0  0  0  0  0  0  0  0  0  0
   -1.7809    1.3241    5.8989 C   0  0  0  0  0  0  0  0  0  0  0  0
   -1.4018    0.1597    6.4648 N   0  0  0  0  0  0  0  0  0  0  0  0
   -0.5964   -0.6516    5.7492 C   0  0  0  0  0  0  0  0  0  0  0  0
    1.3684   -1.0070    2.4978 C   0  0  0  0  0  0  0  0  0  0  0  0
    2.1119   -1.8540    1.7719 N   0  0  0  0  0  0  0  0  0  0  0  0
    4.5497   -1.0921    1.6335 H   0  0  0  0  0  0  0  0  0  0  0  0
    3.4361   -0.0913    0.6729 H   0  0  0  0  0  0  0  0  0  0  0  0
    5.1443    0.3109    0.7579 H   0  0  0  0  0  0  0  0  0  0  0  0
    3.1778   -3.4835   -2.7344 H   0  0  0  0  0  0  0  0  0  0  0  0
    5.3159   -4.6300   -2.2488 H   0  0  0  0  0  0  0  0  0  0  0  0
    5.7001   -3.4684   -3.4944 H   0  0  0  0  0  0  0  0  0  0  0  0
    8.5037   -3.7098   -1.7620 H   0  0  0  0  0  0  0  0  0  0  0  0
    2.6167   -2.2453   -0.6900 H   0  0  0  0  0  0  0  0  0  0  0  0
    4.4057   -4.5910   -0.1466 H   0  0  0  0  0  0  0  0  0  0  0  0
    3.4772   -4.9042    1.9239 H   0  0  0  0  0  0  0  0  0  0  0  0
    1.9023   -4.5772    3.7393 H   0  0  0  0  0  0  0  0  0  0  0  0
    0.4028   -3.0895    5.0118 H   0  0  0  0  0  0  0  0  0  0  0  0
   -0.3003    1.1322    2.8612 H   0  0  0  0  0  0  0  0  0  0  0  0
   -1.7267    2.6429    4.1766 H   0  0  0  0  0  0  0  0  0  0  0  0
   -2.4181    1.9605    6.4969 H   0  0  0  0  0  0  0  0  0  0  0  0
   -0.3202   -1.5549    6.2679 H   0  0  0  0  0  0  0  0  0  0  0  0
    1.3298   -0.0004    2.1045 H   0  0  0  0  0  0  0  0  0  0  0  0
  2  1  1  1
  1 28  1  0
  1 29  1  0
  1 30  1  0
  2 12  1  0
  2 13  1  0
  2  3  1  0
  3  4  1  0
  4  5  2  0
  4  6  1  0
  6  7  1  0
  6 13  1  0
  6 31  1  6
  7  8  1  0
  7 32  1  0
  7 33  1  0
  8 12  2  0
  8  9  1  0
  9 10  2  0
  9 34  1  0
 10 11  1  0
 11 12  1  0
 13 14  1  0
 13 35  1  6
 14 15  2  3
 14 36  1  0
 15 16  1  0
 15 37  1  0
 16 27  1  0
 16 17  2  0
 17 18  1  0
 17 38  1  0
 18 19  2  0
 18 39  1  0
 19 20  1  0
 19 26  1  0
 20 25  1  0
 20 21  2  0
 21 22  1  0
 21 40  1  0
 22 23  2  0
 22 41  1  0
 23 24  1  0
 23 42  1  0
 24 25  2  0
 25 43  1  0
 26 27  2  0
 26 44  1  0
M  END
>  <i_m_ct_stereo_status>  (125) 
1

>  <s_m_source_file>  (125) 
/var/tmp/pbs.5076255.sched01/tmpmtrcy7mx/460f9z2a7c.sdf

>  <i_m_source_file_index>  (125) 
11

>  <i_lp_mmshare_version>  (125) 
48012

>  <i_f3d_flags>  (125) 
0

>  <s_epik_input>  (125) 
W0NIM11bQ0BdMTJjM2MoW2NIXW5vMylbQ0gyXVtDQEhdKEMoTzEpPU8pW0NASF0yL1tDSF09W0NIXS9jNFtjSF1bY0hdYyhbY0hdbjQpLWM1W2NIXVtjSF1bY0hdbltjSF01

>  <s_epik_cmdline>  (125) 
J2VwaWtfcHl0aG9uJywgJy1waHQnLCAnMi4wJywgJy1waCcsICc3LjAnLCAnLXRuJywgJzgnLCAnLW1hJywgJzIwMCcsICctaW1hZScsICc8aW5maWxlLm1hZT4nLCAnLW9tYWUnLCAnPG91dGZpbGUubWFlPic=

>  <r_epik_Ionization_Penalty>  (125) 
0.0115951

>  <r_epik_Ionization_Penalty_Charging>  (125) 
0

>  <r_epik_Ionization_Penalty_Neutral>  (125) 
0.0115951

>  <r_epik_State_Penalty>  (125) 
0.00643764

>  <r_epik_Charging_Adjusted_Penalty>  (125) 
0.00643764

>  <i_epik_Tot_Q>  (125) 
0

>  <i_epik_Tot_abs_Q>  (125) 
0

>  <s_epik_Chemistry_Notes>  (125) 
This compound has an ester and may undergo hydrolysis at high or low pH.

>  <s_lp_Force_Field>  (125) 
OPLS3e

>  <r_lp_Energy>  (125) 
40.4246

>  <b_lp_Chiralities_Consistent>  (125) 
1

>  <s_lp_Variant>  (125) 
27:0-2

>  <s_i_glide_gridfile>  (125) 
pfpi4k_grid

>  <i_i_glide_lignum>  (125) 
11

>  <i_i_glide_rotatable_bonds>  (125) 
3

>  <r_i_docking_score>  (125) 
-3.61958

>  <r_i_glide_ligand_efficiency>  (125) 
-0.134058

>  <r_i_glide_ligand_efficiency_sa>  (125) 
-0.402175

>  <r_i_glide_ligand_efficiency_ln>  (125) 
-0.842578

>  <r_i_glide_gscore>  (125) 
-3.61958

>  <r_i_glide_lipo>  (125) 
-0.338485

>  <r_i_glide_hbond>  (125) 
-0.16

>  <r_i_glide_metal>  (125) 
-0

>  <r_i_glide_rewards>  (125) 
-0.958786

>  <r_i_glide_evdw>  (125) 
-34.9347

>  <r_i_glide_ecoul>  (125) 
-4.90461

>  <r_i_glide_erotb>  (125) 
0.445211

>  <r_i_glide_esite>  (125) 
-0.125094

>  <r_i_glide_emodel>  (125) 
-47.637

>  <r_i_glide_energy>  (125) 
-39.8393

>  <r_i_glide_einternal>  (125) 
2.45083

>  <r_i_glide_intrahb_reward>  (125) 
-0

>  <i_i_glide_confnum>  (125) 
2

>  <i_i_glide_posenum>  (125) 
16

>  <r_i_glide_eff_state_penalty>  (125) 
0

>  <ligand_id>  (125) 
27

>  <original_smiles>  (125) 
CC12OC(=O)C(Cc3cnoc31)C2C=Cc1ccc(-c2cccnc2)cn1

>  <smiles>  (125) 
[H]C(=C([H])C1([H])C2([H])C(=O)OC1(C([H])([H])[H])c1onc([H])c1C2([H])[H])c1nc([H])c(-c2c([H])nc([H])c([H])c2[H])c([H])c1[H]

$$$$
27:1:1
     RDKit          3D

 44 48  0  0  1  0  0  0  0  0999 V2000
    5.3010   -1.3084   -0.6768 C   0  0  0  0  0  0  0  0  0  0  0  0
    5.1295   -2.6157    0.1102 C   0  0  1  0  0  0  0  0  0  0  0  0
    4.1960   -3.5143   -0.4949 O   0  0  0  0  0  0  0  0  0  0  0  0
    3.5158   -4.2649    0.4064 C   0  0  0  0  0  0  0  0  0  0  0  0
    2.6171   -5.0764    0.2155 O   0  0  0  0  0  0  0  0  0  0  0  0
    4.0496   -3.9231    1.7851 C   0  0  1  0  0  0  0  0  0  0  0  0
    5.2916   -4.8177    2.1206 C   0  0  0  0  0  0  0  0  0  0  0  0
    6.4445   -4.4413    1.2149 C   0  0  0  0  0  0  0  0  0  0  0  0
    7.7707   -4.9357    1.0283 C   0  0  0  0  0  0  0  0  0  0  0  0
    8.4011   -4.2527    0.0751 N   0  0  0  0  0  0  0  0  0  0  0  0
    7.4822   -3.3070   -0.4181 O   0  0  0  0  0  0  0  0  0  0  0  0
    6.3587   -3.4364    0.3199 C   0  0  0  0  0  0  0  0  0  0  0  0
    4.4285   -2.4609    1.4708 C   0  0  1  0  0  0  0  0  0  0  0  0
    5.2411   -1.7385    2.5559 C   0  0  0  0  0  0  0  0  0  0  0  0
    4.9306   -0.6449    3.2923 C   0  0  0  0  0  0  0  0  0  0  0  0
    3.7182    0.1969    3.3028 C   0  0  0  0  0  0  0  0  0  0  0  0
    3.6296    1.2699    4.2153 C   0  0  0  0  0  0  0  0  0  0  0  0
    2.4715    2.0633    4.2245 C   0  0  0  0  0  0  0  0  0  0  0  0
    1.4090    1.7756    3.3365 C   0  0  0  0  0  0  0  0  0  0  0  0
    0.1632    2.5587    3.3128 C   0  0  0  0  0  0  0  0  0  0  0  0
   -1.0634    1.9956    2.8879 C   0  0  0  0  0  0  0  0  0  0  0  0
   -2.2179    2.7920    2.8831 C   0  0  0  0  0  0  0  0  0  0  0  0
   -2.1159    4.1335    3.2793 C   0  0  0  0  0  0  0  0  0  0  0  0
   -0.9747    4.6963    3.7144 N   0  0  0  0  0  0  0  0  0  0  0  0
    0.1348    3.9255    3.6953 C   0  0  0  0  0  0  0  0  0  0  0  0
    1.6031    0.6853    2.4581 C   0  0  0  0  0  0  0  0  0  0  0  0
    2.7096   -0.0713    2.4550 N   0  0  0  0  0  0  0  0  0  0  0  0
    5.9988   -0.6254   -0.1891 H   0  0  0  0  0  0  0  0  0  0  0  0
    4.3510   -0.7818   -0.7852 H   0  0  0  0  0  0  0  0  0  0  0  0
    5.6689   -1.5148   -1.6816 H   0  0  0  0  0  0  0  0  0  0  0  0
    3.2656   -4.0017    2.5438 H   0  0  0  0  0  0  0  0  0  0  0  0
    5.5657   -4.6713    3.1673 H   0  0  0  0  0  0  0  0  0  0  0  0
    5.0255   -5.8702    2.0191 H   0  0  0  0  0  0  0  0  0  0  0  0
    8.2879   -5.7385    1.5394 H   0  0  0  0  0  0  0  0  0  0  0  0
    3.4957   -1.9503    1.2620 H   0  0  0  0  0  0  0  0  0  0  0  0
    6.2084   -2.1757    2.7612 H   0  0  0  0  0  0  0  0  0  0  0  0
    5.6898   -0.3275    3.9905 H   0  0  0  0  0  0  0  0  0  0  0  0
    4.4459    1.4870    4.8874 H   0  0  0  0  0  0  0  0  0  0  0  0
    2.3992    2.8863    4.9299 H   0  0  0  0  0  0  0  0  0  0  0  0
   -1.1364    0.9636    2.5716 H   0  0  0  0  0  0  0  0  0  0  0  0
   -3.1688    2.3940    2.5517 H   0  0  0  0  0  0  0  0  0  0  0  0
   -2.9832    4.7735    3.2655 H   0  0  0  0  0  0  0  0  0  0  0  0
    1.0405    4.4252    4.0081 H   0  0  0  0  0  0  0  0  0  0  0  0
    0.8550    0.3864    1.7410 H   0  0  0  0  0  0  0  0  0  0  0  0
  2  1  1  6
  1 28  1  0
  1 29  1  0
  1 30  1  0
  2 12  1  0
  2 13  1  0
  2  3  1  0
  3  4  1  0
  4  5  2  0
  4  6  1  0
  6  7  1  0
  6 13  1  0
  6 31  1  1
  7  8  1  0
  7 32  1  0
  7 33  1  0
  8 12  2  0
  8  9  1  0
  9 10  2  0
  9 34  1  0
 10 11  1  0
 11 12  1  0
 13 14  1  0
 13 35  1  6
 14 15  2  3
 14 36  1  0
 15 16  1  0
 15 37  1  0
 16 27  1  0
 16 17  2  0
 17 18  1  0
 17 38  1  0
 18 19  2  0
 18 39  1  0
 19 20  1  0
 19 26  1  0
 20 25  1  0
 20 21  2  0
 21 22  1  0
 21 40  1  0
 22 23  2  0
 22 41  1  0
 23 24  1  0
 23 42  1  0
 24 25  2  0
 25 43  1  0
 26 27  2  0
 26 44  1  0
M  END
>  <i_m_ct_stereo_status>  (126) 
1

>  <s_m_source_file>  (126) 
/var/tmp/pbs.5076255.sched01/tmpmtrcy7mx/460f9z2a7c.sdf

>  <i_m_source_file_index>  (126) 
11

>  <i_lp_mmshare_version>  (126) 
48012

>  <i_f3d_flags>  (126) 
0

>  <s_epik_input>  (126) 
W0NIM11bQ0BdMTJjM2MoW2NIXW5vMylbQ0gyXVtDQEhdKEMoTzEpPU8pW0NASF0yL1tDSF09W0NIXS9jNFtjSF1bY0hdYyhbY0hdbjQpLWM1W2NIXVtjSF1bY0hdbltjSF01

>  <s_epik_cmdline>  (126) 
J2VwaWtfcHl0aG9uJywgJy1waHQnLCAnMi4wJywgJy1waCcsICc3LjAnLCAnLXRuJywgJzgnLCAnLW1hJywgJzIwMCcsICctaW1hZScsICc8aW5maWxlLm1hZT4nLCAnLW9tYWUnLCAnPG91dGZpbGUubWFlPic=

>  <r_epik_Ionization_Penalty>  (126) 
0.0115951

>  <r_epik_Ionization_Penalty_Charging>  (126) 
0

>  <r_epik_Ionization_Penalty_Neutral>  (126) 
0.0115951

>  <r_epik_State_Penalty>  (126) 
0.00643764

>  <r_epik_Charging_Adjusted_Penalty>  (126) 
0.00643764

>  <i_epik_Tot_Q>  (126) 
0

>  <i_epik_Tot_abs_Q>  (126) 
0

>  <s_epik_Chemistry_Notes>  (126) 
This compound has an ester and may undergo hydrolysis at high or low pH.

>  <s_lp_Force_Field>  (126) 
OPLS3e

>  <r_lp_Energy>  (126) 
40.4246

>  <b_lp_Chiralities_Consistent>  (126) 
1

>  <s_lp_Variant>  (126) 
27:0-2

>  <s_i_glide_gridfile>  (126) 
pfpi4k_grid

>  <i_i_glide_lignum>  (126) 
11

>  <i_i_glide_rotatable_bonds>  (126) 
3

>  <r_i_docking_score>  (126) 
-2.91446

>  <r_i_glide_ligand_efficiency>  (126) 
-0.107943

>  <r_i_glide_ligand_efficiency_sa>  (126) 
-0.323829

>  <r_i_glide_ligand_efficiency_ln>  (126) 
-0.678438

>  <r_i_glide_gscore>  (126) 
-2.91446

>  <r_i_glide_lipo>  (126) 
-0.575189

>  <r_i_glide_hbond>  (126) 
-0.0845999

>  <r_i_glide_metal>  (126) 
-0

>  <r_i_glide_rewards>  (126) 
-0.958786

>  <r_i_glide_evdw>  (126) 
-30.0755

>  <r_i_glide_ecoul>  (126) 
-1.55549

>  <r_i_glide_erotb>  (126) 
0.445211

>  <r_i_glide_esite>  (126) 
-0.00399536

>  <r_i_glide_emodel>  (126) 
-39.0688

>  <r_i_glide_energy>  (126) 
-31.631

>  <r_i_glide_einternal>  (126) 
0.025769

>  <r_i_glide_intrahb_reward>  (126) 
-0

>  <i_i_glide_confnum>  (126) 
3

>  <i_i_glide_posenum>  (126) 
17

>  <r_i_glide_eff_state_penalty>  (126) 
0

>  <ligand_id>  (126) 
27

>  <original_smiles>  (126) 
CC12OC(=O)C(Cc3cnoc31)C2C=Cc1ccc(-c2cccnc2)cn1

>  <smiles>  (126) 
[H]C(=C([H])C1([H])C2([H])C(=O)OC1(C([H])([H])[H])c1onc([H])c1C2([H])[H])c1nc([H])c(-c2c([H])nc([H])c([H])c2[H])c([H])c1[H]

$$$$
27:1:2
     RDKit          3D

 44 48  0  0  1  0  0  0  0  0999 V2000
    4.4851   -0.2395    0.5833 C   0  0  0  0  0  0  0  0  0  0  0  0
    4.6919   -1.3048   -0.4911 C   0  0  1  0  0  0  0  0  0  0  0  0
    4.6027   -0.7561   -1.8156 O   0  0  0  0  0  0  0  0  0  0  0  0
    4.1886   -1.6697   -2.7232 C   0  0  0  0  0  0  0  0  0  0  0  0
    4.0102   -1.4830   -3.9210 O   0  0  0  0  0  0  0  0  0  0  0  0
    4.0160   -3.0028   -2.0075 C   0  0  1  0  0  0  0  0  0  0  0  0
    5.4049   -3.7446   -2.0368 C   0  0  0  0  0  0  0  0  0  0  0  0
    6.3948   -3.0341   -1.1316 C   0  0  0  0  0  0  0  0  0  0  0  0
    7.7674   -3.1914   -0.7972 C   0  0  0  0  0  0  0  0  0  0  0  0
    8.1740   -2.2495    0.0398 N   0  0  0  0  0  0  0  0  0  0  0  0
    7.0728   -1.4231    0.2728 O   0  0  0  0  0  0  0  0  0  0  0  0
    6.0437   -1.9423   -0.4273 C   0  0  0  0  0  0  0  0  0  0  0  0
    3.6282   -2.4378   -0.6016 C   0  0  1  0  0  0  0  0  0  0  0  0
    3.6284   -3.4919    0.5224 C   0  0  0  0  0  0  0  0  0  0  0  0
    3.0148   -3.4613    1.7273 C   0  0  0  0  0  0  0  0  0  0  0  0
    2.1772   -2.4077    2.3329 C   0  0  0  0  0  0  0  0  0  0  0  0
    1.5817   -2.6118    3.5940 C   0  0  0  0  0  0  0  0  0  0  0  0
    0.8421   -1.5735    4.1897 C   0  0  0  0  0  0  0  0  0  0  0  0
    0.7014   -0.3377    3.5063 C   0  0  0  0  0  0  0  0  0  0  0  0
   -0.0690    0.8093    4.0592 C   0  0  0  0  0  0  0  0  0  0  0  0
   -1.0482    0.5937    5.0514 C   0  0  0  0  0  0  0  0  0  0  0  0
   -1.7859    1.6675    5.5818 C   0  0  0  0  0  0  0  0  0  0  0  0
   -1.5407    2.9574    5.0702 C   0  0  0  0  0  0  0  0  0  0  0  0
   -0.6279    3.1981    4.1130 N   0  0  0  0  0  0  0  0  0  0  0  0
    0.0893    2.1613    3.6328 C   0  0  0  0  0  0  0  0  0  0  0  0
    1.3338   -0.2388    2.2462 C   0  0  0  0  0  0  0  0  0  0  0  0
    2.0445   -1.2425    1.6993 N   0  0  0  0  0  0  0  0  0  0  0  0
    4.5037   -0.6625    1.5940 H   0  0  0  0  0  0  0  0  0  0  0  0
    3.5055    0.2291    0.4816 H   0  0  0  0  0  0  0  0  0  0  0  0
    5.2574    0.5278    0.5422 H   0  0  0  0  0  0  0  0  0  0  0  0
    3.2224   -3.5870   -2.4762 H   0  0  0  0  0  0  0  0  0  0  0  0
    5.2491   -4.7626   -1.6856 H   0  0  0  0  0  0  0  0  0  0  0  0
    5.7769   -3.8178   -3.0626 H   0  0  0  0  0  0  0  0  0  0  0  0
    8.4675   -3.9414   -1.1210 H   0  0  0  0  0  0  0  0  0  0  0  0
    2.6282   -2.0381   -0.6680 H   0  0  0  0  0  0  0  0  0  0  0  0
    4.2070   -4.3802    0.3120 H   0  0  0  0  0  0  0  0  0  0  0  0
    3.1851   -4.3107    2.3571 H   0  0  0  0  0  0  0  0  0  0  0  0
    1.7210   -3.5344    4.1335 H   0  0  0  0  0  0  0  0  0  0  0  0
    0.3627   -1.7439    5.1487 H   0  0  0  0  0  0  0  0  0  0  0  0
   -1.2649   -0.3974    5.4185 H   0  0  0  0  0  0  0  0  0  0  0  0
   -2.5420    1.5079    6.3337 H   0  0  0  0  0  0  0  0  0  0  0  0
   -2.0947    3.8085    5.4433 H   0  0  0  0  0  0  0  0  0  0  0  0
    0.8060    2.4411    2.8789 H   0  0  0  0  0  0  0  0  0  0  0  0
    1.3308    0.6748    1.6665 H   0  0  0  0  0  0  0  0  0  0  0  0
  2  1  1  1
  1 28  1  0
  1 29  1  0
  1 30  1  0
  2 12  1  0
  2 13  1  0
  2  3  1  0
  3  4  1  0
  4  5  2  0
  4  6  1  0
  6  7  1  0
  6 13  1  0
  6 31  1  6
  7  8  1  0
  7 32  1  0
  7 33  1  0
  8 12  2  0
  8  9  1  0
  9 10  2  0
  9 34  1  0
 10 11  1  0
 11 12  1  0
 13 14  1  0
 13 35  1  6
 14 15  2  3
 14 36  1  0
 15 16  1  0
 15 37  1  0
 16 27  1  0
 16 17  2  0
 17 18  1  0
 17 38  1  0
 18 19  2  0
 18 39  1  0
 19 20  1  0
 19 26  1  0
 20 25  1  0
 20 21  2  0
 21 22  1  0
 21 40  1  0
 22 23  2  0
 22 41  1  0
 23 24  1  0
 23 42  1  0
 24 25  2  0
 25 43  1  0
 26 27  2  0
 26 44  1  0
M  END
>  <i_m_ct_stereo_status>  (127) 
1

>  <s_m_source_file>  (127) 
/var/tmp/pbs.5076255.sched01/tmpmtrcy7mx/460f9z2a7c.sdf

>  <i_m_source_file_index>  (127) 
11

>  <i_lp_mmshare_version>  (127) 
48012

>  <i_f3d_flags>  (127) 
0

>  <s_epik_input>  (127) 
W0NIM11bQ0BdMTJjM2MoW2NIXW5vMylbQ0gyXVtDQEhdKEMoTzEpPU8pW0NASF0yL1tDSF09W0NIXS9jNFtjSF1bY0hdYyhbY0hdbjQpLWM1W2NIXVtjSF1bY0hdbltjSF01

>  <s_epik_cmdline>  (127) 
J2VwaWtfcHl0aG9uJywgJy1waHQnLCAnMi4wJywgJy1waCcsICc3LjAnLCAnLXRuJywgJzgnLCAnLW1hJywgJzIwMCcsICctaW1hZScsICc8aW5maWxlLm1hZT4nLCAnLW9tYWUnLCAnPG91dGZpbGUubWFlPic=

>  <r_epik_Ionization_Penalty>  (127) 
0.0115951

>  <r_epik_Ionization_Penalty_Charging>  (127) 
0

>  <r_epik_Ionization_Penalty_Neutral>  (127) 
0.0115951

>  <r_epik_State_Penalty>  (127) 
0.00643764

>  <r_epik_Charging_Adjusted_Penalty>  (127) 
0.00643764

>  <i_epik_Tot_Q>  (127) 
0

>  <i_epik_Tot_abs_Q>  (127) 
0

>  <s_epik_Chemistry_Notes>  (127) 
This compound has an ester and may undergo hydrolysis at high or low pH.

>  <s_lp_Force_Field>  (127) 
OPLS3e

>  <r_lp_Energy>  (127) 
40.4246

>  <b_lp_Chiralities_Consistent>  (127) 
1

>  <s_lp_Variant>  (127) 
27:0-2

>  <s_i_glide_gridfile>  (127) 
pfpi4k_grid

>  <i_i_glide_lignum>  (127) 
11

>  <i_i_glide_rotatable_bonds>  (127) 
3

>  <r_i_docking_score>  (127) 
-2.87154

>  <r_i_glide_ligand_efficiency>  (127) 
-0.106353

>  <r_i_glide_ligand_efficiency_sa>  (127) 
-0.31906

>  <r_i_glide_ligand_efficiency_ln>  (127) 
-0.668447

>  <r_i_glide_gscore>  (127) 
-2.87154

>  <r_i_glide_lipo>  (127) 
-0.369809

>  <r_i_glide_hbond>  (127) 
-0.0140776

>  <r_i_glide_metal>  (127) 
-0

>  <r_i_glide_rewards>  (127) 
-0.958786

>  <r_i_glide_evdw>  (127) 
-34.7122

>  <r_i_glide_ecoul>  (127) 
-1.19293

>  <r_i_glide_erotb>  (127) 
0.445211

>  <r_i_glide_esite>  (127) 
-0.0595296

>  <r_i_glide_emodel>  (127) 
-41.3907

>  <r_i_glide_energy>  (127) 
-35.9051

>  <r_i_glide_einternal>  (127) 
2.43556

>  <r_i_glide_intrahb_reward>  (127) 
-0

>  <i_i_glide_confnum>  (127) 
2

>  <i_i_glide_posenum>  (127) 
1

>  <r_i_glide_eff_state_penalty>  (127) 
0

>  <ligand_id>  (127) 
27

>  <original_smiles>  (127) 
CC12OC(=O)C(Cc3cnoc31)C2C=Cc1ccc(-c2cccnc2)cn1

>  <smiles>  (127) 
[H]C(=C([H])C1([H])C2([H])C(=O)OC1(C([H])([H])[H])c1onc([H])c1C2([H])[H])c1nc([H])c(-c2c([H])nc([H])c([H])c2[H])c([H])c1[H]

$$$$
27:2:0
     RDKit          3D

 45 49  0  0  1  0  0  0  0  0999 V2000
    7.5995   -1.9511    0.4720 C   0  0  0  0  0  0  0  0  0  0  0  0
    6.3338   -2.5146   -0.1866 C   0  0  1  0  0  0  0  0  0  0  0  0
    6.6059   -3.0997   -1.4667 O   0  0  0  0  0  0  0  0  0  0  0  0
    5.5495   -3.0292   -2.3097 C   0  0  0  0  0  0  0  0  0  0  0  0
    5.4691   -3.4562   -3.4532 O   0  0  0  0  0  0  0  0  0  0  0  0
    4.4099   -2.3256   -1.5803 C   0  0  1  0  0  0  0  0  0  0  0  0
    3.5616   -3.4219   -0.8446 C   0  0  0  0  0  0  0  0  0  0  0  0
    4.3445   -3.9815    0.3198 C   0  0  0  0  0  0  0  0  0  0  0  0
    4.0942   -4.9567    1.3169 C   0  0  0  0  0  0  0  0  0  0  0  0
    5.1371   -5.0887    2.1275 N   0  0  0  0  0  0  0  0  0  0  0  0
    6.1318   -4.2185    1.6544 O   0  0  0  0  0  0  0  0  0  0  0  0
    5.5999   -3.5595    0.6005 C   0  0  0  0  0  0  0  0  0  0  0  0
    5.2929   -1.4583   -0.6340 C   0  0  1  0  0  0  0  0  0  0  0  0
    4.5850   -0.7249    0.5071 C   0  0  0  0  0  0  0  0  0  0  0  0
    3.2677   -0.4603    0.5759 C   0  0  0  0  0  0  0  0  0  0  0  0
    2.5649    0.2309    1.6632 C   0  0  0  0  0  0  0  0  0  0  0  0
    3.1658    0.6171    2.8786 C   0  0  0  0  0  0  0  0  0  0  0  0
    2.4076    1.3133    3.8388 C   0  0  0  0  0  0  0  0  0  0  0  0
    1.0450    1.6185    3.5937 C   0  0  0  0  0  0  0  0  0  0  0  0
    0.2273    2.3393    4.5932 C   0  0  0  0  0  0  0  0  0  0  0  0
    0.5189    2.2782    5.9765 C   0  0  0  0  0  0  0  0  0  0  0  0
   -0.2800    2.9864    6.8922 C   0  0  0  0  0  0  0  0  0  0  0  0
   -1.3595    3.7362    6.3959 C   0  0  0  0  0  0  0  0  0  0  0  0
   -1.6626    3.8097    5.0849 N   0  0  0  0  0  0  0  0  0  0  0  0
   -0.8844    3.1316    4.2157 C   0  0  0  0  0  0  0  0  0  0  0  0
    0.5045    1.2061    2.3525 C   0  0  0  0  0  0  0  0  0  0  0  0
    1.2670    0.5428    1.4592 N   0  0  0  0  0  0  0  0  0  0  0  0
    7.3773   -1.4722    1.4269 H   0  0  0  0  0  0  0  0  0  0  0  0
    8.0863   -1.2068   -0.1508 H   0  0  0  0  0  0  0  0  0  0  0  0
    8.3316   -2.7443    0.6384 H   0  0  0  0  0  0  0  0  0  0  0  0
    3.8190   -1.7422   -2.2865 H   0  0  0  0  0  0  0  0  0  0  0  0
    2.6205   -2.9937   -0.5052 H   0  0  0  0  0  0  0  0  0  0  0  0
    3.2869   -4.2170   -1.5358 H   0  0  0  0  0  0  0  0  0  0  0  0
    3.2076   -5.5495    1.4895 H   0  0  0  0  0  0  0  0  0  0  0  0
    5.7856   -0.6806   -1.2204 H   0  0  0  0  0  0  0  0  0  0  0  0
    5.2373   -0.4011    1.3015 H   0  0  0  0  0  0  0  0  0  0  0  0
    2.6443   -0.7803   -0.2423 H   0  0  0  0  0  0  0  0  0  0  0  0
    4.2045    0.4051    3.0808 H   0  0  0  0  0  0  0  0  0  0  0  0
    2.8938    1.6186    4.7532 H   0  0  0  0  0  0  0  0  0  0  0  0
    1.3436    1.6930    6.3545 H   0  0  0  0  0  0  0  0  0  0  0  0
   -0.0691    2.9597    7.9505 H   0  0  0  0  0  0  0  0  0  0  0  0
   -1.9939    4.2908    7.0718 H   0  0  0  0  0  0  0  0  0  0  0  0
   -1.1675    3.2361    3.1799 H   0  0  0  0  0  0  0  0  0  0  0  0
   -0.5190    1.3713    2.0409 H   0  0  0  0  0  0  0  0  0  0  0  0
    0.8407    0.2355    0.5731 H   0  0  0  0  0  0  0  0  0  0  0  0
  2  1  1  1
  1 28  1  0
  1 29  1  0
  1 30  1  0
  2 12  1  0
  2 13  1  0
  2  3  1  0
  3  4  1  0
  4  5  2  0
  4  6  1  0
  6  7  1  0
  6 13  1  0
  6 31  1  6
  7  8  1  0
  7 32  1  0
  7 33  1  0
  8 12  2  0
  8  9  1  0
  9 10  2  0
  9 34  1  0
 10 11  1  0
 11 12  1  0
 13 14  1  0
 13 35  1  6
 14 15  2  3
 14 36  1  0
 15 16  1  0
 15 37  1  0
 16 27  1  0
 16 17  2  0
 17 18  1  0
 17 38  1  0
 18 19  2  0
 18 39  1  0
 19 20  1  0
 19 26  1  0
 20 25  1  0
 20 21  2  0
 21 22  1  0
 21 40  1  0
 22 23  2  0
 22 41  1  0
 23 24  1  0
 23 42  1  0
 24 25  2  0
 25 43  1  0
 26 27  2  0
 26 44  1  0
 27 45  1  0
M  CHG  1  27   1
M  END
>  <i_m_ct_stereo_status>  (128) 
1

>  <s_m_source_file>  (128) 
/var/tmp/pbs.5076255.sched01/tmpmtrcy7mx/460f9z2a7c.sdf

>  <i_m_source_file_index>  (128) 
12

>  <i_lp_mmshare_version>  (128) 
48012

>  <i_f3d_flags>  (128) 
0

>  <s_epik_input>  (128) 
W0NIM11bQ0BdMTJjM2MoW2NIXW5vMylbQ0gyXVtDQEhdKEMoTzEpPU8pW0NASF0yL1tDSF09W0NIXS9jNFtjSF1bY0hdYyhbY0hdbjQpLWM1W2NIXVtjSF1bY0hdbltjSF01

>  <s_epik_cmdline>  (128) 
J2VwaWtfcHl0aG9uJywgJy1waHQnLCAnMi4wJywgJy1waCcsICc3LjAnLCAnLXRuJywgJzgnLCAnLW1hJywgJzIwMCcsICctaW1hZScsICc8aW5maWxlLm1hZT4nLCAnLW9tYWUnLCAnPG91dGZpbGUubWFlPic=

>  <r_epik_Ionization_Penalty>  (128) 
2.51661

>  <r_epik_Ionization_Penalty_Charging>  (128) 
2.5164

>  <r_epik_Ionization_Penalty_Neutral>  (128) 
0.000204929

>  <r_epik_State_Penalty>  (128) 
2.68253

>  <r_epik_Charging_Adjusted_Penalty>  (128) 
5.19894

>  <i_epik_Tot_Q>  (128) 
1

>  <i_epik_Tot_abs_Q>  (128) 
1

>  <s_epik_Chemistry_Notes>  (128) 
This compound has an ester and may undergo hydrolysis at high or low pH.

>  <s_lp_Force_Field>  (128) 
OPLS3e

>  <r_lp_Energy>  (128) 
42.3535

>  <b_lp_Chiralities_Consistent>  (128) 
1

>  <s_lp_Variant>  (128) 
27:0-3

>  <s_i_glide_gridfile>  (128) 
pfpi4k_grid

>  <i_i_glide_lignum>  (128) 
12

>  <i_i_glide_rotatable_bonds>  (128) 
3

>  <r_i_docking_score>  (128) 
-3.84823

>  <r_i_glide_ligand_efficiency>  (128) 
-0.142527

>  <r_i_glide_ligand_efficiency_sa>  (128) 
-0.427581

>  <r_i_glide_ligand_efficiency_ln>  (128) 
-0.895804

>  <r_i_glide_gscore>  (128) 
-3.84823

>  <r_i_glide_lipo>  (128) 
-0.35921

>  <r_i_glide_hbond>  (128) 
-0.230734

>  <r_i_glide_metal>  (128) 
-0

>  <r_i_glide_rewards>  (128) 
-1.16661

>  <r_i_glide_evdw>  (128) 
-28.1847

>  <r_i_glide_ecoul>  (128) 
-6.90279

>  <r_i_glide_erotb>  (128) 
0.442994

>  <r_i_glide_esite>  (128) 
-0.090012

>  <r_i_glide_emodel>  (128) 
-44.8901

>  <r_i_glide_energy>  (128) 
-35.0875

>  <r_i_glide_einternal>  (128) 
0.70082

>  <r_i_glide_intrahb_reward>  (128) 
-0

>  <i_i_glide_confnum>  (128) 
2

>  <i_i_glide_posenum>  (128) 
15

>  <r_i_glide_eff_state_penalty>  (128) 
0

>  <ligand_id>  (128) 
27

>  <original_smiles>  (128) 
CC12OC(=O)C(Cc3cnoc31)C2C=Cc1ccc(-c2cccnc2)cn1

>  <smiles>  (128) 
[H]C(=C([H])C1([H])C2([H])C(=O)OC1(C([H])([H])[H])c1onc([H])c1C2([H])[H])c1c([H])c([H])c(-c2c([H])nc([H])c([H])c2[H])c([H])[n+]1[H]

$$$$
27:2:1
     RDKit          3D

 45 49  0  0  1  0  0  0  0  0999 V2000
    1.2344    1.3917    7.0413 C   0  0  0  0  0  0  0  0  0  0  0  0
    0.2657    2.1078    6.0856 C   0  0  1  0  0  0  0  0  0  0  0  0
   -0.7931    2.7479    6.8020 O   0  0  0  0  0  0  0  0  0  0  0  0
   -1.9291    2.8116    6.0851 C   0  0  0  0  0  0  0  0  0  0  0  0
   -2.9861    3.3174    6.4321 O   0  0  0  0  0  0  0  0  0  0  0  0
   -1.6846    2.1629    4.7236 C   0  0  1  0  0  0  0  0  0  0  0  0
   -1.1768    3.2626    3.7279 C   0  0  0  0  0  0  0  0  0  0  0  0
    0.2144    3.7030    4.1251 C   0  0  0  0  0  0  0  0  0  0  0  0
    1.1767    4.5931    3.5835 C   0  0  0  0  0  0  0  0  0  0  0  0
    2.3045    4.5612    4.2850 N   0  0  0  0  0  0  0  0  0  0  0  0
    2.0914    3.6811    5.3568 O   0  0  0  0  0  0  0  0  0  0  0  0
    0.8464    3.1783    5.2038 C   0  0  0  0  0  0  0  0  0  0  0  0
   -0.5857    1.1674    5.1885 C   0  0  1  0  0  0  0  0  0  0  0  0
    0.1359    0.3986    4.0714 C   0  0  0  0  0  0  0  0  0  0  0  0
    1.4474    0.5048    3.7756 C   0  0  0  0  0  0  0  0  0  0  0  0
    2.1948   -0.2137    2.7562 C   0  0  0  0  0  0  0  0  0  0  0  0
    1.8283   -1.4808    2.2677 C   0  0  0  0  0  0  0  0  0  0  0  0
    2.6151   -2.0806    1.2656 C   0  0  0  0  0  0  0  0  0  0  0  0
    3.7427   -1.4061    0.7422 C   0  0  0  0  0  0  0  0  0  0  0  0
    4.5599   -1.9979   -0.3360 C   0  0  0  0  0  0  0  0  0  0  0  0
    3.9903   -2.8279   -1.3271 C   0  0  0  0  0  0  0  0  0  0  0  0
    4.8112   -3.3701   -2.3333 C   0  0  0  0  0  0  0  0  0  0  0  0
    6.1813   -3.0546   -2.3207 C   0  0  0  0  0  0  0  0  0  0  0  0
    6.7428   -2.2591   -1.3935 N   0  0  0  0  0  0  0  0  0  0  0  0
    5.9469   -1.7575   -0.4265 C   0  0  0  0  0  0  0  0  0  0  0  0
    4.0492   -0.1358    1.2767 C   0  0  0  0  0  0  0  0  0  0  0  0
    3.2833    0.4011    2.2454 N   0  0  0  0  0  0  0  0  0  0  0  0
    2.0349    0.8663    6.5196 H   0  0  0  0  0  0  0  0  0  0  0  0
    0.7091    0.6524    7.6457 H   0  0  0  0  0  0  0  0  0  0  0  0
    1.7028    2.1044    7.7205 H   0  0  0  0  0  0  0  0  0  0  0  0
   -2.5831    1.6684    4.3588 H   0  0  0  0  0  0  0  0  0  0  0  0
   -1.1869    2.8636    2.7121 H   0  0  0  0  0  0  0  0  0  0  0  0
   -1.8617    4.1089    3.7240 H   0  0  0  0  0  0  0  0  0  0  0  0
    1.1191    5.2163    2.7011 H   0  0  0  0  0  0  0  0  0  0  0  0
   -1.0552    0.4017    5.8084 H   0  0  0  0  0  0  0  0  0  0  0  0
   -0.4911   -0.2738    3.4968 H   0  0  0  0  0  0  0  0  0  0  0  0
    2.0719    1.1726    4.3404 H   0  0  0  0  0  0  0  0  0  0  0  0
    0.9613   -1.9934    2.6549 H   0  0  0  0  0  0  0  0  0  0  0  0
    2.3340   -3.0497    0.8864 H   0  0  0  0  0  0  0  0  0  0  0  0
    2.9340   -3.0548   -1.3309 H   0  0  0  0  0  0  0  0  0  0  0  0
    4.4000   -4.0175   -3.0930 H   0  0  0  0  0  0  0  0  0  0  0  0
    6.8381   -3.4566   -3.0755 H   0  0  0  0  0  0  0  0  0  0  0  0
    6.4509   -1.1246    0.2897 H   0  0  0  0  0  0  0  0  0  0  0  0
    4.8645    0.4880    0.9360 H   0  0  0  0  0  0  0  0  0  0  0  0
    3.5291    1.3298    2.5957 H   0  0  0  0  0  0  0  0  0  0  0  0
  2  1  1  1
  1 28  1  0
  1 29  1  0
  1 30  1  0
  2 12  1  0
  2 13  1  0
  2  3  1  0
  3  4  1  0
  4  5  2  0
  4  6  1  0
  6  7  1  0
  6 13  1  0
  6 31  1  6
  7  8  1  0
  7 32  1  0
  7 33  1  0
  8 12  2  0
  8  9  1  0
  9 10  2  0
  9 34  1  0
 10 11  1  0
 11 12  1  0
 13 14  1  0
 13 35  1  1
 14 15  2  3
 14 36  1  0
 15 16  1  0
 15 37  1  0
 16 27  1  0
 16 17  2  0
 17 18  1  0
 17 38  1  0
 18 19  2  0
 18 39  1  0
 19 20  1  0
 19 26  1  0
 20 25  1  0
 20 21  2  0
 21 22  1  0
 21 40  1  0
 22 23  2  0
 22 41  1  0
 23 24  1  0
 23 42  1  0
 24 25  2  0
 25 43  1  0
 26 27  2  0
 26 44  1  0
 27 45  1  0
M  CHG  1  27   1
M  END
>  <i_m_ct_stereo_status>  (129) 
1

>  <s_m_source_file>  (129) 
/var/tmp/pbs.5076255.sched01/tmpmtrcy7mx/460f9z2a7c.sdf

>  <i_m_source_file_index>  (129) 
12

>  <i_lp_mmshare_version>  (129) 
48012

>  <i_f3d_flags>  (129) 
0

>  <s_epik_input>  (129) 
W0NIM11bQ0BdMTJjM2MoW2NIXW5vMylbQ0gyXVtDQEhdKEMoTzEpPU8pW0NASF0yL1tDSF09W0NIXS9jNFtjSF1bY0hdYyhbY0hdbjQpLWM1W2NIXVtjSF1bY0hdbltjSF01

>  <s_epik_cmdline>  (129) 
J2VwaWtfcHl0aG9uJywgJy1waHQnLCAnMi4wJywgJy1waCcsICc3LjAnLCAnLXRuJywgJzgnLCAnLW1hJywgJzIwMCcsICctaW1hZScsICc8aW5maWxlLm1hZT4nLCAnLW9tYWUnLCAnPG91dGZpbGUubWFlPic=

>  <r_epik_Ionization_Penalty>  (129) 
2.51661

>  <r_epik_Ionization_Penalty_Charging>  (129) 
2.5164

>  <r_epik_Ionization_Penalty_Neutral>  (129) 
0.000204929

>  <r_epik_State_Penalty>  (129) 
2.68253

>  <r_epik_Charging_Adjusted_Penalty>  (129) 
5.19894

>  <i_epik_Tot_Q>  (129) 
1

>  <i_epik_Tot_abs_Q>  (129) 
1

>  <s_epik_Chemistry_Notes>  (129) 
This compound has an ester and may undergo hydrolysis at high or low pH.

>  <s_lp_Force_Field>  (129) 
OPLS3e

>  <r_lp_Energy>  (129) 
42.3535

>  <b_lp_Chiralities_Consistent>  (129) 
1

>  <s_lp_Variant>  (129) 
27:0-3

>  <s_i_glide_gridfile>  (129) 
pfpi4k_grid

>  <i_i_glide_lignum>  (129) 
12

>  <i_i_glide_rotatable_bonds>  (129) 
3

>  <r_i_docking_score>  (129) 
-3.80985

>  <r_i_glide_ligand_efficiency>  (129) 
-0.141106

>  <r_i_glide_ligand_efficiency_sa>  (129) 
-0.423317

>  <r_i_glide_ligand_efficiency_ln>  (129) 
-0.886871

>  <r_i_glide_gscore>  (129) 
-3.80985

>  <r_i_glide_lipo>  (129) 
-0.307762

>  <r_i_glide_hbond>  (129) 
-0.16

>  <r_i_glide_metal>  (129) 
-0

>  <r_i_glide_rewards>  (129) 
-1.03918

>  <r_i_glide_evdw>  (129) 
-27.7701

>  <r_i_glide_ecoul>  (129) 
-8.94522

>  <r_i_glide_erotb>  (129) 
0.442994

>  <r_i_glide_esite>  (129) 
-0.0156161

>  <r_i_glide_emodel>  (129) 
-44.8325

>  <r_i_glide_energy>  (129) 
-36.7154

>  <r_i_glide_einternal>  (129) 
3.28733

>  <r_i_glide_intrahb_reward>  (129) 
-0

>  <i_i_glide_confnum>  (129) 
3

>  <i_i_glide_posenum>  (129) 
39

>  <r_i_glide_eff_state_penalty>  (129) 
0

>  <ligand_id>  (129) 
27

>  <original_smiles>  (129) 
CC12OC(=O)C(Cc3cnoc31)C2C=Cc1ccc(-c2cccnc2)cn1

>  <smiles>  (129) 
[H]C(=C([H])C1([H])C2([H])C(=O)OC1(C([H])([H])[H])c1onc([H])c1C2([H])[H])c1c([H])c([H])c(-c2c([H])nc([H])c([H])c2[H])c([H])[n+]1[H]

$$$$
27:2:2
     RDKit          3D

 45 49  0  0  1  0  0  0  0  0999 V2000
    6.3356   -1.4793    0.9030 C   0  0  0  0  0  0  0  0  0  0  0  0
    5.2685   -2.0655   -0.0259 C   0  0  1  0  0  0  0  0  0  0  0  0
    5.7638   -2.2542   -1.3595 O   0  0  0  0  0  0  0  0  0  0  0  0
    4.7890   -2.1385   -2.2922 C   0  0  0  0  0  0  0  0  0  0  0  0
    4.8967   -2.2588   -3.5070 O   0  0  0  0  0  0  0  0  0  0  0  0
    3.4776   -1.8466   -1.5748 C   0  0  1  0  0  0  0  0  0  0  0  0
    2.7957   -3.2187   -1.2448 C   0  0  0  0  0  0  0  0  0  0  0  0
    3.5645   -3.9224   -0.1513 C   0  0  0  0  0  0  0  0  0  0  0  0
    3.4154   -5.1468    0.5450 C   0  0  0  0  0  0  0  0  0  0  0  0
    4.3821   -5.3064    1.4383 N   0  0  0  0  0  0  0  0  0  0  0  0
    5.2303   -4.1934    1.3234 O   0  0  0  0  0  0  0  0  0  0  0  0
    4.6836   -3.3854    0.3877 C   0  0  0  0  0  0  0  0  0  0  0  0
    4.0899   -1.1176   -0.3436 C   0  0  1  0  0  0  0  0  0  0  0  0
    3.1233   -0.8548    0.8182 C   0  0  0  0  0  0  0  0  0  0  0  0
    2.8409    0.3658    1.3080 C   0  0  0  0  0  0  0  0  0  0  0  0
    1.9477    0.6808    2.4255 C   0  0  0  0  0  0  0  0  0  0  0  0
    1.6019   -0.2484    3.4323 C   0  0  0  0  0  0  0  0  0  0  0  0
    0.7380    0.1453    4.4743 C   0  0  0  0  0  0  0  0  0  0  0  0
    0.1989    1.4561    4.5010 C   0  0  0  0  0  0  0  0  0  0  0  0
   -0.7089    1.9042    5.5786 C   0  0  0  0  0  0  0  0  0  0  0  0
   -0.7924    3.2625    5.9686 C   0  0  0  0  0  0  0  0  0  0  0  0
   -1.6701    3.6401    7.0011 C   0  0  0  0  0  0  0  0  0  0  0  0
   -2.4449    2.6466    7.6240 C   0  0  0  0  0  0  0  0  0  0  0  0
   -2.3799    1.3451    7.2763 N   0  0  0  0  0  0  0  0  0  0  0  0
   -1.5391    1.0009    6.2790 C   0  0  0  0  0  0  0  0  0  0  0  0
    0.5666    2.3247    3.4462 C   0  0  0  0  0  0  0  0  0  0  0  0
    1.4031    1.9179    2.4732 N   0  0  0  0  0  0  0  0  0  0  0  0
    5.9550   -1.3235    1.9153 H   0  0  0  0  0  0  0  0  0  0  0  0
    6.6976   -0.5223    0.5286 H   0  0  0  0  0  0  0  0  0  0  0  0
    7.1931   -2.1523    0.9692 H   0  0  0  0  0  0  0  0  0  0  0  0
    2.8445   -1.2085   -2.1912 H   0  0  0  0  0  0  0  0  0  0  0  0
    1.7669   -3.0591   -0.9317 H   0  0  0  0  0  0  0  0  0  0  0  0
    2.7296   -3.8345   -2.1426 H   0  0  0  0  0  0  0  0  0  0  0  0
    2.6467   -5.8985    0.4512 H   0  0  0  0  0  0  0  0  0  0  0  0
    4.4816   -0.1537   -0.6728 H   0  0  0  0  0  0  0  0  0  0  0  0
    2.6468   -1.7237    1.2498 H   0  0  0  0  0  0  0  0  0  0  0  0
    3.3306    1.2180    0.8765 H   0  0  0  0  0  0  0  0  0  0  0  0
    2.0112   -1.2490    3.4287 H   0  0  0  0  0  0  0  0  0  0  0  0
    0.5105   -0.5654    5.2565 H   0  0  0  0  0  0  0  0  0  0  0  0
   -0.1834    4.0170    5.4942 H   0  0  0  0  0  0  0  0  0  0  0  0
   -1.7434    4.6693    7.3236 H   0  0  0  0  0  0  0  0  0  0  0  0
   -3.1287    2.8965    8.4239 H   0  0  0  0  0  0  0  0  0  0  0  0
   -1.5414   -0.0513    6.0448 H   0  0  0  0  0  0  0  0  0  0  0  0
    0.2109    3.3380    3.3333 H   0  0  0  0  0  0  0  0  0  0  0  0
    1.6087    2.5893    1.7324 H   0  0  0  0  0  0  0  0  0  0  0  0
  2  1  1  1
  1 28  1  0
  1 29  1  0
  1 30  1  0
  2 12  1  0
  2 13  1  0
  2  3  1  0
  3  4  1  0
  4  5  2  0
  4  6  1  0
  6  7  1  0
  6 13  1  0
  6 31  1  6
  7  8  1  0
  7 32  1  0
  7 33  1  0
  8 12  2  0
  8  9  1  0
  9 10  2  0
  9 34  1  0
 10 11  1  0
 11 12  1  0
 13 14  1  0
 13 35  1  6
 14 15  2  3
 14 36  1  0
 15 16  1  0
 15 37  1  0
 16 27  1  0
 16 17  2  0
 17 18  1  0
 17 38  1  0
 18 19  2  0
 18 39  1  0
 19 20  1  0
 19 26  1  0
 20 25  1  0
 20 21  2  0
 21 22  1  0
 21 40  1  0
 22 23  2  0
 22 41  1  0
 23 24  1  0
 23 42  1  0
 24 25  2  0
 25 43  1  0
 26 27  2  0
 26 44  1  0
 27 45  1  0
M  CHG  1  27   1
M  END
>  <i_m_ct_stereo_status>  (130) 
1

>  <s_m_source_file>  (130) 
/var/tmp/pbs.5076255.sched01/tmpmtrcy7mx/460f9z2a7c.sdf

>  <i_m_source_file_index>  (130) 
12

>  <i_lp_mmshare_version>  (130) 
48012

>  <i_f3d_flags>  (130) 
0

>  <s_epik_input>  (130) 
W0NIM11bQ0BdMTJjM2MoW2NIXW5vMylbQ0gyXVtDQEhdKEMoTzEpPU8pW0NASF0yL1tDSF09W0NIXS9jNFtjSF1bY0hdYyhbY0hdbjQpLWM1W2NIXVtjSF1bY0hdbltjSF01

>  <s_epik_cmdline>  (130) 
J2VwaWtfcHl0aG9uJywgJy1waHQnLCAnMi4wJywgJy1waCcsICc3LjAnLCAnLXRuJywgJzgnLCAnLW1hJywgJzIwMCcsICctaW1hZScsICc8aW5maWxlLm1hZT4nLCAnLW9tYWUnLCAnPG91dGZpbGUubWFlPic=

>  <r_epik_Ionization_Penalty>  (130) 
2.51661

>  <r_epik_Ionization_Penalty_Charging>  (130) 
2.5164

>  <r_epik_Ionization_Penalty_Neutral>  (130) 
0.000204929

>  <r_epik_State_Penalty>  (130) 
2.68253

>  <r_epik_Charging_Adjusted_Penalty>  (130) 
5.19894

>  <i_epik_Tot_Q>  (130) 
1

>  <i_epik_Tot_abs_Q>  (130) 
1

>  <s_epik_Chemistry_Notes>  (130) 
This compound has an ester and may undergo hydrolysis at high or low pH.

>  <s_lp_Force_Field>  (130) 
OPLS3e

>  <r_lp_Energy>  (130) 
42.3535

>  <b_lp_Chiralities_Consistent>  (130) 
1

>  <s_lp_Variant>  (130) 
27:0-3

>  <s_i_glide_gridfile>  (130) 
pfpi4k_grid

>  <i_i_glide_lignum>  (130) 
12

>  <i_i_glide_rotatable_bonds>  (130) 
3

>  <r_i_docking_score>  (130) 
-3.61575

>  <r_i_glide_ligand_efficiency>  (130) 
-0.133917

>  <r_i_glide_ligand_efficiency_sa>  (130) 
-0.40175

>  <r_i_glide_ligand_efficiency_ln>  (130) 
-0.841686

>  <r_i_glide_gscore>  (130) 
-3.61575

>  <r_i_glide_lipo>  (130) 
-0.341109

>  <r_i_glide_hbond>  (130) 
-0.159322

>  <r_i_glide_metal>  (130) 
-0

>  <r_i_glide_rewards>  (130) 
-0.998247

>  <r_i_glide_evdw>  (130) 
-29.2873

>  <r_i_glide_ecoul>  (130) 
-7.01135

>  <r_i_glide_erotb>  (130) 
0.442994

>  <r_i_glide_esite>  (130) 
-0.043997

>  <r_i_glide_emodel>  (130) 
-45.1816

>  <r_i_glide_energy>  (130) 
-36.2986

>  <r_i_glide_einternal>  (130) 
0.981332

>  <r_i_glide_intrahb_reward>  (130) 
-0

>  <i_i_glide_confnum>  (130) 
6

>  <i_i_glide_posenum>  (130) 
17

>  <r_i_glide_eff_state_penalty>  (130) 
0

>  <ligand_id>  (130) 
27

>  <original_smiles>  (130) 
CC12OC(=O)C(Cc3cnoc31)C2C=Cc1ccc(-c2cccnc2)cn1

>  <smiles>  (130) 
[H]C(=C([H])C1([H])C2([H])C(=O)OC1(C([H])([H])[H])c1onc([H])c1C2([H])[H])c1c([H])c([H])c(-c2c([H])nc([H])c([H])c2[H])c([H])[n+]1[H]

$$$$
27:3:0
     RDKit          3D

 45 49  0  0  1  0  0  0  0  0999 V2000
    2.2496    4.7805    3.2736 C   0  0  0  0  0  0  0  0  0  0  0  0
    1.8040    3.6159    4.1646 C   0  0  1  0  0  0  0  0  0  0  0  0
    2.5269    3.5782    5.4015 O   0  0  0  0  0  0  0  0  0  0  0  0
    2.7243    2.3237    5.8660 C   0  0  0  0  0  0  0  0  0  0  0  0
    3.3131    1.9719    6.8813 O   0  0  0  0  0  0  0  0  0  0  0  0
    2.0468    1.3647    4.9054 C   0  0  1  0  0  0  0  0  0  0  0  0
    0.5442    1.1724    5.3361 C   0  0  0  0  0  0  0  0  0  0  0  0
   -0.2187    2.4601    5.0884 C   0  0  0  0  0  0  0  0  0  0  0  0
   -1.5642    2.8815    5.2854 C   0  0  0  0  0  0  0  0  0  0  0  0
   -1.7319    4.1398    4.8862 N   0  0  0  0  0  0  0  0  0  0  0  0
   -0.4797    4.5983    4.4533 O   0  0  0  0  0  0  0  0  0  0  0  0
    0.3655    3.5515    4.5551 C   0  0  0  0  0  0  0  0  0  0  0  0
    2.2046    2.2346    3.6240 C   0  0  1  0  0  0  0  0  0  0  0  0
    1.4133    1.7154    2.4270 C   0  0  0  0  0  0  0  0  0  0  0  0
    1.7770    0.7757    1.5294 C   0  0  0  0  0  0  0  0  0  0  0  0
    3.0094   -0.0388    1.3999 C   0  0  0  0  0  0  0  0  0  0  0  0
    4.1745    0.0708    2.2100 C   0  0  0  0  0  0  0  0  0  0  0  0
    5.2972   -0.7231    1.9512 C   0  0  0  0  0  0  0  0  0  0  0  0
    5.2575   -1.6781    0.9180 C   0  0  0  0  0  0  0  0  0  0  0  0
    6.4216   -2.5228    0.6637 C   0  0  0  0  0  0  0  0  0  0  0  0
    7.6965   -1.9629    0.4446 C   0  0  0  0  0  0  0  0  0  0  0  0
    8.7918   -2.8121    0.2337 C   0  0  0  0  0  0  0  0  0  0  0  0
    8.5701   -4.2059    0.2605 C   0  0  0  0  0  0  0  0  0  0  0  0
    7.3607   -4.7552    0.4799 N   0  0  0  0  0  0  0  0  0  0  0  0
    6.3177   -3.9344    0.6743 C   0  0  0  0  0  0  0  0  0  0  0  0
    4.0639   -1.7931    0.1579 C   0  0  0  0  0  0  0  0  0  0  0  0
    3.0284   -0.9777    0.4265 N   0  0  0  0  0  0  0  0  0  0  0  0
    1.7296    4.7848    2.3177 H   0  0  0  0  0  0  0  0  0  0  0  0
    3.3170    4.7284    3.0500 H   0  0  0  0  0  0  0  0  0  0  0  0
    2.0671    5.7323    3.7681 H   0  0  0  0  0  0  0  0  0  0  0  0
    2.5786    0.4094    4.8663 H   0  0  0  0  0  0  0  0  0  0  0  0
    0.1081    0.3541    4.7583 H   0  0  0  0  0  0  0  0  0  0  0  0
    0.4807    0.8630    6.3800 H   0  0  0  0  0  0  0  0  0  0  0  0
   -2.4059    2.3352    5.6871 H   0  0  0  0  0  0  0  0  0  0  0  0
    3.2367    2.4045    3.3279 H   0  0  0  0  0  0  0  0  0  0  0  0
    0.4362    2.1518    2.2806 H   0  0  0  0  0  0  0  0  0  0  0  0
    1.0303    0.5953    0.7742 H   0  0  0  0  0  0  0  0  0  0  0  0
    4.2851    0.7551    3.0271 H   0  0  0  0  0  0  0  0  0  0  0  0
    6.1787   -0.5868    2.5637 H   0  0  0  0  0  0  0  0  0  0  0  0
    7.8414   -0.8857    0.4712 H   0  0  0  0  0  0  0  0  0  0  0  0
    9.7833   -2.4060    0.0617 H   0  0  0  0  0  0  0  0  0  0  0  0
    9.3790   -4.8949    0.0976 H   0  0  0  0  0  0  0  0  0  0  0  0
    5.3640   -4.4036    0.8619 H   0  0  0  0  0  0  0  0  0  0  0  0
    3.9351   -2.5033   -0.6516 H   0  0  0  0  0  0  0  0  0  0  0  0
    2.1396   -1.0588   -0.1478 H   0  0  0  0  0  0  0  0  0  0  0  0
  2  1  1  6
  1 28  1  0
  1 29  1  0
  1 30  1  0
  2 12  1  0
  2 13  1  0
  2  3  1  0
  3  4  1  0
  4  5  2  0
  4  6  1  0
  6  7  1  0
  6 13  1  0
  6 31  1  6
  7  8  1  0
  7 32  1  0
  7 33  1  0
  8 12  2  0
  8  9  1  0
  9 10  2  0
  9 34  1  0
 10 11  1  0
 11 12  1  0
 13 14  1  0
 13 35  1  6
 14 15  2  3
 14 36  1  0
 15 16  1  0
 15 37  1  0
 16 27  1  0
 16 17  2  0
 17 18  1  0
 17 38  1  0
 18 19  2  0
 18 39  1  0
 19 20  1  0
 19 26  1  0
 20 25  1  0
 20 21  2  0
 21 22  1  0
 21 40  1  0
 22 23  2  0
 22 41  1  0
 23 24  1  0
 23 42  1  0
 24 25  2  0
 25 43  1  0
 26 27  2  0
 26 44  1  0
 27 45  1  0
M  CHG  1  27   1
M  END
>  <i_m_ct_stereo_status>  (131) 
1

>  <s_m_source_file>  (131) 
/var/tmp/pbs.5076255.sched01/tmpmtrcy7mx/460f9z2a7c.sdf

>  <i_m_source_file_index>  (131) 
13

>  <i_lp_mmshare_version>  (131) 
48012

>  <i_f3d_flags>  (131) 
0

>  <s_epik_input>  (131) 
W0NIM11bQ0BdMTJjM2MoW2NIXW5vMylbQ0gyXVtDQEhdKEMoTzEpPU8pW0NASF0yL1tDSF09W0NIXS9jNFtjSF1bY0hdYyhbY0hdbjQpLWM1W2NIXVtjSF1bY0hdbltjSF01

>  <s_epik_cmdline>  (131) 
J2VwaWtfcHl0aG9uJywgJy1waHQnLCAnMi4wJywgJy1waCcsICc3LjAnLCAnLXRuJywgJzgnLCAnLW1hJywgJzIwMCcsICctaW1hZScsICc8aW5maWxlLm1hZT4nLCAnLW9tYWUnLCAnPG91dGZpbGUubWFlPic=

>  <r_epik_Ionization_Penalty>  (131) 
2.51661

>  <r_epik_Ionization_Penalty_Charging>  (131) 
2.5164

>  <r_epik_Ionization_Penalty_Neutral>  (131) 
0.000204929

>  <r_epik_State_Penalty>  (131) 
2.68253

>  <r_epik_Charging_Adjusted_Penalty>  (131) 
5.19894

>  <i_epik_Tot_Q>  (131) 
1

>  <i_epik_Tot_abs_Q>  (131) 
1

>  <s_epik_Chemistry_Notes>  (131) 
This compound has an ester and may undergo hydrolysis at high or low pH.

>  <s_lp_Force_Field>  (131) 
OPLS3e

>  <r_lp_Energy>  (131) 
45.6376

>  <b_lp_Chiralities_Consistent>  (131) 
1

>  <s_lp_Variant>  (131) 
27:0-4

>  <s_i_glide_gridfile>  (131) 
pfpi4k_grid

>  <i_i_glide_lignum>  (131) 
13

>  <i_i_glide_rotatable_bonds>  (131) 
3

>  <r_i_docking_score>  (131) 
-4.1684

>  <r_i_glide_ligand_efficiency>  (131) 
-0.154385

>  <r_i_glide_ligand_efficiency_sa>  (131) 
-0.463155

>  <r_i_glide_ligand_efficiency_ln>  (131) 
-0.970334

>  <r_i_glide_gscore>  (131) 
-4.1684

>  <r_i_glide_lipo>  (131) 
-0.482642

>  <r_i_glide_hbond>  (131) 
-0.2

>  <r_i_glide_metal>  (131) 
-0

>  <r_i_glide_rewards>  (131) 
-0.951914

>  <r_i_glide_evdw>  (131) 
-24.9488

>  <r_i_glide_ecoul>  (131) 
-10.2218

>  <r_i_glide_erotb>  (131) 
0.442994

>  <r_i_glide_esite>  (131) 
-0.196116

>  <r_i_glide_emodel>  (131) 
-44.0551

>  <r_i_glide_energy>  (131) 
-35.1707

>  <r_i_glide_einternal>  (131) 
2.70403

>  <r_i_glide_intrahb_reward>  (131) 
-0

>  <i_i_glide_confnum>  (131) 
5

>  <i_i_glide_posenum>  (131) 
32

>  <r_i_glide_eff_state_penalty>  (131) 
0

>  <ligand_id>  (131) 
27

>  <original_smiles>  (131) 
CC12OC(=O)C(Cc3cnoc31)C2C=Cc1ccc(-c2cccnc2)cn1

>  <smiles>  (131) 
[H]C(=C([H])C1([H])C2([H])C(=O)OC1(C([H])([H])[H])c1onc([H])c1C2([H])[H])c1c([H])c([H])c(-c2c([H])nc([H])c([H])c2[H])c([H])[n+]1[H]

$$$$
27:3:1
     RDKit          3D

 45 49  0  0  1  0  0  0  0  0999 V2000
    2.2973   -0.0665    7.3933 C   0  0  0  0  0  0  0  0  0  0  0  0
    0.8976   -0.2673    6.7992 C   0  0  1  0  0  0  0  0  0  0  0  0
    0.4070   -1.5788    7.0649 O   0  0  0  0  0  0  0  0  0  0  0  0
   -0.4209   -2.0216    6.1017 C   0  0  0  0  0  0  0  0  0  0  0  0
   -1.0031   -3.0959    6.0815 O   0  0  0  0  0  0  0  0  0  0  0  0
   -0.5734   -0.9255    5.0491 C   0  0  1  0  0  0  0  0  0  0  0  0
   -1.7531    0.0232    5.4593 C   0  0  0  0  0  0  0  0  0  0  0  0
   -1.3865    0.7969    6.7079 C   0  0  0  0  0  0  0  0  0  0  0  0
   -2.0395    1.7499    7.5327 C   0  0  0  0  0  0  0  0  0  0  0  0
   -1.2758    2.0966    8.5573 N   0  0  0  0  0  0  0  0  0  0  0  0
   -0.0795    1.3705    8.4385 O   0  0  0  0  0  0  0  0  0  0  0  0
   -0.1749    0.6575    7.2982 C   0  0  0  0  0  0  0  0  0  0  0  0
    0.8244   -0.2876    5.2479 C   0  0  1  0  0  0  0  0  0  0  0  0
    0.9920    1.0759    4.5750 C   0  0  0  0  0  0  0  0  0  0  0  0
    1.6229    1.3667    3.4225 C   0  0  0  0  0  0  0  0  0  0  0  0
    2.2735    0.4533    2.4687 C   0  0  0  0  0  0  0  0  0  0  0  0
    1.8809   -0.8783    2.2148 C   0  0  0  0  0  0  0  0  0  0  0  0
    2.6119   -1.6710    1.3054 C   0  0  0  0  0  0  0  0  0  0  0  0
    3.7347   -1.1308    0.6472 C   0  0  0  0  0  0  0  0  0  0  0  0
    4.5093   -1.8986   -0.3371 C   0  0  0  0  0  0  0  0  0  0  0  0
    3.8886   -2.8080   -1.2161 C   0  0  0  0  0  0  0  0  0  0  0  0
    4.6765   -3.5161   -2.1393 C   0  0  0  0  0  0  0  0  0  0  0  0
    6.0616   -3.2778   -2.1659 C   0  0  0  0  0  0  0  0  0  0  0  0
    6.6706   -2.3908   -1.3525 N   0  0  0  0  0  0  0  0  0  0  0  0
    5.9088   -1.7392   -0.4548 C   0  0  0  0  0  0  0  0  0  0  0  0
    4.0807    0.1948    0.9497 C   0  0  0  0  0  0  0  0  0  0  0  0
    3.3608    0.9246    1.8261 N   0  0  0  0  0  0  0  0  0  0  0  0
    2.6802    0.9345    7.1949 H   0  0  0  0  0  0  0  0  0  0  0  0
    3.0035   -0.7902    6.9851 H   0  0  0  0  0  0  0  0  0  0  0  0
    2.2776   -0.2146    8.4738 H   0  0  0  0  0  0  0  0  0  0  0  0
   -0.7235   -1.3484    4.0553 H   0  0  0  0  0  0  0  0  0  0  0  0
   -1.9640    0.7144    4.6435 H   0  0  0  0  0  0  0  0  0  0  0  0
   -2.6635   -0.5600    5.6015 H   0  0  0  0  0  0  0  0  0  0  0  0
   -3.0241    2.1835    7.4378 H   0  0  0  0  0  0  0  0  0  0  0  0
    1.5979   -0.9622    4.8750 H   0  0  0  0  0  0  0  0  0  0  0  0
    0.5528    1.9124    5.1014 H   0  0  0  0  0  0  0  0  0  0  0  0
    1.6461    2.4108    3.1528 H   0  0  0  0  0  0  0  0  0  0  0  0
    1.0086   -1.3032    2.6881 H   0  0  0  0  0  0  0  0  0  0  0  0
    2.2962   -2.6792    1.0918 H   0  0  0  0  0  0  0  0  0  0  0  0
    2.8182   -2.9667   -1.1914 H   0  0  0  0  0  0  0  0  0  0  0  0
    4.2305   -4.2530   -2.7929 H   0  0  0  0  0  0  0  0  0  0  0  0
    6.6972   -3.8277   -2.8430 H   0  0  0  0  0  0  0  0  0  0  0  0
    6.4484   -1.0525    0.1800 H   0  0  0  0  0  0  0  0  0  0  0  0
    4.9038    0.7185    0.4880 H   0  0  0  0  0  0  0  0  0  0  0  0
    3.6693    1.8821    2.0156 H   0  0  0  0  0  0  0  0  0  0  0  0
  2  1  1  6
  1 28  1  0
  1 29  1  0
  1 30  1  0
  2 12  1  0
  2 13  1  0
  2  3  1  0
  3  4  1  0
  4  5  2  0
  4  6  1  0
  6  7  1  0
  6 13  1  0
  6 31  1  6
  7  8  1  0
  7 32  1  0
  7 33  1  0
  8 12  2  0
  8  9  1  0
  9 10  2  0
  9 34  1  0
 10 11  1  0
 11 12  1  0
 13 14  1  0
 13 35  1  6
 14 15  2  3
 14 36  1  0
 15 16  1  0
 15 37  1  0
 16 27  1  0
 16 17  2  0
 17 18  1  0
 17 38  1  0
 18 19  2  0
 18 39  1  0
 19 20  1  0
 19 26  1  0
 20 25  1  0
 20 21  2  0
 21 22  1  0
 21 40  1  0
 22 23  2  0
 22 41  1  0
 23 24  1  0
 23 42  1  0
 24 25  2  0
 25 43  1  0
 26 27  2  0
 26 44  1  0
 27 45  1  0
M  CHG  1  27   1
M  END
>  <i_m_ct_stereo_status>  (132) 
1

>  <s_m_source_file>  (132) 
/var/tmp/pbs.5076255.sched01/tmpmtrcy7mx/460f9z2a7c.sdf

>  <i_m_source_file_index>  (132) 
13

>  <i_lp_mmshare_version>  (132) 
48012

>  <i_f3d_flags>  (132) 
0

>  <s_epik_input>  (132) 
W0NIM11bQ0BdMTJjM2MoW2NIXW5vMylbQ0gyXVtDQEhdKEMoTzEpPU8pW0NASF0yL1tDSF09W0NIXS9jNFtjSF1bY0hdYyhbY0hdbjQpLWM1W2NIXVtjSF1bY0hdbltjSF01

>  <s_epik_cmdline>  (132) 
J2VwaWtfcHl0aG9uJywgJy1waHQnLCAnMi4wJywgJy1waCcsICc3LjAnLCAnLXRuJywgJzgnLCAnLW1hJywgJzIwMCcsICctaW1hZScsICc8aW5maWxlLm1hZT4nLCAnLW9tYWUnLCAnPG91dGZpbGUubWFlPic=

>  <r_epik_Ionization_Penalty>  (132) 
2.51661

>  <r_epik_Ionization_Penalty_Charging>  (132) 
2.5164

>  <r_epik_Ionization_Penalty_Neutral>  (132) 
0.000204929

>  <r_epik_State_Penalty>  (132) 
2.68253

>  <r_epik_Charging_Adjusted_Penalty>  (132) 
5.19894

>  <i_epik_Tot_Q>  (132) 
1

>  <i_epik_Tot_abs_Q>  (132) 
1

>  <s_epik_Chemistry_Notes>  (132) 
This compound has an ester and may undergo hydrolysis at high or low pH.

>  <s_lp_Force_Field>  (132) 
OPLS3e

>  <r_lp_Energy>  (132) 
45.6376

>  <b_lp_Chiralities_Consistent>  (132) 
1

>  <s_lp_Variant>  (132) 
27:0-4

>  <s_i_glide_gridfile>  (132) 
pfpi4k_grid

>  <i_i_glide_lignum>  (132) 
13

>  <i_i_glide_rotatable_bonds>  (132) 
3

>  <r_i_docking_score>  (132) 
-3.73864

>  <r_i_glide_ligand_efficiency>  (132) 
-0.138468

>  <r_i_glide_ligand_efficiency_sa>  (132) 
-0.415404

>  <r_i_glide_ligand_efficiency_ln>  (132) 
-0.870294

>  <r_i_glide_gscore>  (132) 
-3.73864

>  <r_i_glide_lipo>  (132) 
-0.282851

>  <r_i_glide_hbond>  (132) 
-0.128565

>  <r_i_glide_metal>  (132) 
-0

>  <r_i_glide_rewards>  (132) 
-0.951914

>  <r_i_glide_evdw>  (132) 
-23.899

>  <r_i_glide_ecoul>  (132) 
-10.2884

>  <r_i_glide_erotb>  (132) 
0.442994

>  <r_i_glide_esite>  (132) 
-0.0800862

>  <r_i_glide_emodel>  (132) 
-42.4403

>  <r_i_glide_energy>  (132) 
-34.1875

>  <r_i_glide_einternal>  (132) 
2.56469

>  <r_i_glide_intrahb_reward>  (132) 
-0

>  <i_i_glide_confnum>  (132) 
5

>  <i_i_glide_posenum>  (132) 
1

>  <r_i_glide_eff_state_penalty>  (132) 
0

>  <ligand_id>  (132) 
27

>  <original_smiles>  (132) 
CC12OC(=O)C(Cc3cnoc31)C2C=Cc1ccc(-c2cccnc2)cn1

>  <smiles>  (132) 
[H]C(=C([H])C1([H])C2([H])C(=O)OC1(C([H])([H])[H])c1onc([H])c1C2([H])[H])c1c([H])c([H])c(-c2c([H])nc([H])c([H])c2[H])c([H])[n+]1[H]

$$$$
27:3:2
     RDKit          3D

 45 49  0  0  1  0  0  0  0  0999 V2000
    1.7022    0.3064    8.1088 C   0  0  0  0  0  0  0  0  0  0  0  0
    0.5257    0.0792    7.1476 C   0  0  1  0  0  0  0  0  0  0  0  0
   -0.0444   -1.2160    7.3360 O   0  0  0  0  0  0  0  0  0  0  0  0
   -0.5955   -1.7108    6.2185 C   0  0  0  0  0  0  0  0  0  0  0  0
   -1.1523   -2.7908    6.0804 O   0  0  0  0  0  0  0  0  0  0  0  0
   -0.4643   -0.6777    5.1169 C   0  0  1  0  0  0  0  0  0  0  0  0
   -1.6648    0.3121    5.1213 C   0  0  0  0  0  0  0  0  0  0  0  0
   -1.6256    1.1425    6.3751 C   0  0  0  0  0  0  0  0  0  0  0  0
   -2.4646    2.1503    6.9176 C   0  0  0  0  0  0  0  0  0  0  0  0
   -2.0100    2.5577    8.0958 N   0  0  0  0  0  0  0  0  0  0  0  0
   -0.8430    1.8194    8.3577 O   0  0  0  0  0  0  0  0  0  0  0  0
   -0.6273    1.0309    7.2815 C   0  0  0  0  0  0  0  0  0  0  0  0
    0.8707   -0.0376    5.6354 C   0  0  1  0  0  0  0  0  0  0  0  0
    1.2736    1.2896    4.9828 C   0  0  0  0  0  0  0  0  0  0  0  0
    1.9067    1.5013    3.8121 C   0  0  0  0  0  0  0  0  0  0  0  0
    2.3677    0.5269    2.7991 C   0  0  0  0  0  0  0  0  0  0  0  0
    1.9350   -0.8124    2.6899 C   0  0  0  0  0  0  0  0  0  0  0  0
    2.4339   -1.6512    1.6913 C   0  0  0  0  0  0  0  0  0  0  0  0
    3.4425   -1.1815    0.8258 C   0  0  0  0  0  0  0  0  0  0  0  0
    4.0145   -2.0609   -0.2086 C   0  0  0  0  0  0  0  0  0  0  0  0
    4.0959   -3.4558   -0.0194 C   0  0  0  0  0  0  0  0  0  0  0  0
    4.6481   -4.2545   -1.0335 C   0  0  0  0  0  0  0  0  0  0  0  0
    5.0896   -3.6264   -2.2135 C   0  0  0  0  0  0  0  0  0  0  0  0
    5.0253   -2.2954   -2.4140 N   0  0  0  0  0  0  0  0  0  0  0  0
    4.4878   -1.5423   -1.4352 C   0  0  0  0  0  0  0  0  0  0  0  0
    3.8822    0.1445    1.0035 C   0  0  0  0  0  0  0  0  0  0  0  0
    3.3349    0.9320    1.9528 N   0  0  0  0  0  0  0  0  0  0  0  0
    2.1434    1.2941    7.9768 H   0  0  0  0  0  0  0  0  0  0  0  0
    2.4832   -0.4419    7.9651 H   0  0  0  0  0  0  0  0  0  0  0  0
    1.3692    0.2223    9.1448 H   0  0  0  0  0  0  0  0  0  0  0  0
   -0.4843   -1.1886    4.1577 H   0  0  0  0  0  0  0  0  0  0  0  0
   -1.5878    0.9496    4.2397 H   0  0  0  0  0  0  0  0  0  0  0  0
   -2.5899   -0.2467    5.0169 H   0  0  0  0  0  0  0  0  0  0  0  0
   -3.3753    2.5804    6.5077 H   0  0  0  0  0  0  0  0  0  0  0  0
    1.7151   -0.7254    5.5120 H   0  0  0  0  0  0  0  0  0  0  0  0
    1.0251    2.1713    5.5547 H   0  0  0  0  0  0  0  0  0  0  0  0
    2.0917    2.5361    3.5726 H   0  0  0  0  0  0  0  0  0  0  0  0
    1.2224   -1.2680    3.3402 H   0  0  0  0  0  0  0  0  0  0  0  0
    2.0436   -2.6503    1.6050 H   0  0  0  0  0  0  0  0  0  0  0  0
    3.7481   -3.9281    0.8933 H   0  0  0  0  0  0  0  0  0  0  0  0
    4.7169   -5.3291   -0.9198 H   0  0  0  0  0  0  0  0  0  0  0  0
    5.5105   -4.2098   -3.0124 H   0  0  0  0  0  0  0  0  0  0  0  0
    4.4409   -0.4824   -1.6374 H   0  0  0  0  0  0  0  0  0  0  0  0
    4.6716    0.6042    0.4266 H   0  0  0  0  0  0  0  0  0  0  0  0
    3.7130    1.8906    2.0564 H   0  0  0  0  0  0  0  0  0  0  0  0
  2  1  1  1
  1 28  1  0
  1 29  1  0
  1 30  1  0
  2 12  1  0
  2 13  1  0
  2  3  1  0
  3  4  1  0
  4  5  2  0
  4  6  1  0
  6  7  1  0
  6 13  1  0
  6 31  1  6
  7  8  1  0
  7 32  1  0
  7 33  1  0
  8 12  2  0
  8  9  1  0
  9 10  2  0
  9 34  1  0
 10 11  1  0
 11 12  1  0
 13 14  1  0
 13 35  1  1
 14 15  2  3
 14 36  1  0
 15 16  1  0
 15 37  1  0
 16 27  1  0
 16 17  2  0
 17 18  1  0
 17 38  1  0
 18 19  2  0
 18 39  1  0
 19 20  1  0
 19 26  1  0
 20 25  1  0
 20 21  2  0
 21 22  1  0
 21 40  1  0
 22 23  2  0
 22 41  1  0
 23 24  1  0
 23 42  1  0
 24 25  2  0
 25 43  1  0
 26 27  2  0
 26 44  1  0
 27 45  1  0
M  CHG  1  27   1
M  END
>  <i_m_ct_stereo_status>  (133) 
1

>  <s_m_source_file>  (133) 
/var/tmp/pbs.5076255.sched01/tmpmtrcy7mx/460f9z2a7c.sdf

>  <i_m_source_file_index>  (133) 
13

>  <i_lp_mmshare_version>  (133) 
48012

>  <i_f3d_flags>  (133) 
0

>  <s_epik_input>  (133) 
W0NIM11bQ0BdMTJjM2MoW2NIXW5vMylbQ0gyXVtDQEhdKEMoTzEpPU8pW0NASF0yL1tDSF09W0NIXS9jNFtjSF1bY0hdYyhbY0hdbjQpLWM1W2NIXVtjSF1bY0hdbltjSF01

>  <s_epik_cmdline>  (133) 
J2VwaWtfcHl0aG9uJywgJy1waHQnLCAnMi4wJywgJy1waCcsICc3LjAnLCAnLXRuJywgJzgnLCAnLW1hJywgJzIwMCcsICctaW1hZScsICc8aW5maWxlLm1hZT4nLCAnLW9tYWUnLCAnPG91dGZpbGUubWFlPic=

>  <r_epik_Ionization_Penalty>  (133) 
2.51661

>  <r_epik_Ionization_Penalty_Charging>  (133) 
2.5164

>  <r_epik_Ionization_Penalty_Neutral>  (133) 
0.000204929

>  <r_epik_State_Penalty>  (133) 
2.68253

>  <r_epik_Charging_Adjusted_Penalty>  (133) 
5.19894

>  <i_epik_Tot_Q>  (133) 
1

>  <i_epik_Tot_abs_Q>  (133) 
1

>  <s_epik_Chemistry_Notes>  (133) 
This compound has an ester and may undergo hydrolysis at high or low pH.

>  <s_lp_Force_Field>  (133) 
OPLS3e

>  <r_lp_Energy>  (133) 
45.6376

>  <b_lp_Chiralities_Consistent>  (133) 
1

>  <s_lp_Variant>  (133) 
27:0-4

>  <s_i_glide_gridfile>  (133) 
pfpi4k_grid

>  <i_i_glide_lignum>  (133) 
13

>  <i_i_glide_rotatable_bonds>  (133) 
3

>  <r_i_docking_score>  (133) 
-3.35228

>  <r_i_glide_ligand_efficiency>  (133) 
-0.124158

>  <r_i_glide_ligand_efficiency_sa>  (133) 
-0.372475

>  <r_i_glide_ligand_efficiency_ln>  (133) 
-0.780355

>  <r_i_glide_gscore>  (133) 
-3.35228

>  <r_i_glide_lipo>  (133) 
-0.146198

>  <r_i_glide_hbond>  (133) 
0

>  <r_i_glide_metal>  (133) 
-0

>  <r_i_glide_rewards>  (133) 
-0.951914

>  <r_i_glide_evdw>  (133) 
-25.3046

>  <r_i_glide_ecoul>  (133) 
-9.01425

>  <r_i_glide_erotb>  (133) 
0.442994

>  <r_i_glide_esite>  (133) 
-0.0797918

>  <r_i_glide_emodel>  (133) 
-40.8306

>  <r_i_glide_energy>  (133) 
-34.3188

>  <r_i_glide_einternal>  (133) 
2.78168

>  <r_i_glide_intrahb_reward>  (133) 
-0

>  <i_i_glide_confnum>  (133) 
5

>  <i_i_glide_posenum>  (133) 
33

>  <r_i_glide_eff_state_penalty>  (133) 
0

>  <ligand_id>  (133) 
27

>  <original_smiles>  (133) 
CC12OC(=O)C(Cc3cnoc31)C2C=Cc1ccc(-c2cccnc2)cn1

>  <smiles>  (133) 
[H]C(=C([H])C1([H])C2([H])C(=O)OC1(C([H])([H])[H])c1onc([H])c1C2([H])[H])c1c([H])c([H])c(-c2c([H])nc([H])c([H])c2[H])c([H])[n+]1[H]

$$$$
28:0:0
     RDKit          3D

 48 52  0  0  1  0  0  0  0  0999 V2000
   -0.5554   -7.8688    2.0217 C   0  0  0  0  0  0  0  0  0  0  0  0
    0.6557   -7.3189    2.1953 C   0  0  0  0  0  0  0  0  0  0  0  0
    1.5430   -6.8418    1.0563 C   0  0  0  0  0  0  0  0  0  0  0  0
    2.2514   -5.5970    1.3443 N   0  0  0  0  0  0  0  0  0  0  0  0
    2.7752   -4.9210    0.1482 C   0  0  0  0  0  0  0  0  0  0  0  0
    4.2188   -5.3130   -0.2337 C   0  0  0  0  0  0  0  0  0  0  0  0
    5.1735   -5.2082    0.9844 C   0  0  2  0  0  0  0  0  0  0  0  0
    5.1857   -3.7909    1.4829 C   0  0  0  0  0  0  0  0  0  0  0  0
    4.2974   -3.2264    2.4160 C   0  0  0  0  0  0  0  0  0  0  0  0
    4.4550   -1.8507    2.6642 C   0  0  0  0  0  0  0  0  0  0  0  0
    5.4611   -1.1224    1.9793 C   0  0  0  0  0  0  0  0  0  0  0  0
    6.3569   -1.7678    1.0881 C   0  0  0  0  0  0  0  0  0  0  0  0
    7.3504   -1.0553    0.4863 O   0  0  0  0  0  0  0  0  0  0  0  0
    6.2393   -3.1562    0.8518 C   0  0  0  0  0  0  0  0  0  0  0  0
    7.0351   -4.0050    0.1271 O   0  0  0  0  0  0  0  0  0  0  0  0
    6.6586   -5.3440    0.5239 C   0  0  1  0  0  0  0  0  0  0  0  0
    7.6053   -5.8096    1.6470 C   0  0  0  0  0  0  0  0  0  0  0  0
    8.7746   -5.4315    1.6921 O   0  0  0  0  0  0  0  0  0  0  0  0
    7.0507   -6.7738    2.6935 C   0  0  0  0  0  0  0  0  0  0  0  0
    5.6798   -6.2968    3.2132 C   0  0  0  0  0  0  0  0  0  0  0  0
    4.6484   -6.1955    2.0567 C   0  0  2  0  0  0  0  0  0  0  0  0
    4.5555   -7.4897    1.4429 O   0  0  0  0  0  0  0  0  0  0  0  0
    4.1154   -8.5955    2.2283 C   0  0  0  0  0  0  0  0  0  0  0  0
    3.2364   -5.6250    2.4610 C   0  0  1  0  0  0  0  0  0  0  0  0
    3.3521   -4.2127    3.0944 C   0  0  0  0  0  0  0  0  0  0  0  0
   -0.9752   -8.0000    1.0349 H   0  0  0  0  0  0  0  0  0  0  0  0
   -1.1395   -8.2088    2.8709 H   0  0  0  0  0  0  0  0  0  0  0  0
    1.0120   -7.2282    3.2076 H   0  0  0  0  0  0  0  0  0  0  0  0
    2.2531   -7.6354    0.8611 H   0  0  0  0  0  0  0  0  0  0  0  0
    0.9254   -6.7450    0.1595 H   0  0  0  0  0  0  0  0  0  0  0  0
    2.1163   -5.0814   -0.7042 H   0  0  0  0  0  0  0  0  0  0  0  0
    2.7564   -3.8393    0.3119 H   0  0  0  0  0  0  0  0  0  0  0  0
    4.2323   -6.3249   -0.6393 H   0  0  0  0  0  0  0  0  0  0  0  0
    4.5596   -4.6744   -1.0515 H   0  0  0  0  0  0  0  0  0  0  0  0
    3.8079   -1.3534    3.3737 H   0  0  0  0  0  0  0  0  0  0  0  0
    5.5509   -0.0671    2.1612 H   0  0  0  0  0  0  0  0  0  0  0  0
    7.4794   -0.1980    0.8976 H   0  0  0  0  0  0  0  0  0  0  0  0
    6.7595   -6.0427   -0.3014 H   0  0  0  0  0  0  0  0  0  0  0  0
    6.9663   -7.7582    2.2343 H   0  0  0  0  0  0  0  0  0  0  0  0
    7.7618   -6.8704    3.5155 H   0  0  0  0  0  0  0  0  0  0  0  0
    5.3254   -6.9597    4.0022 H   0  0  0  0  0  0  0  0  0  0  0  0
    5.8215   -5.3283    3.6906 H   0  0  0  0  0  0  0  0  0  0  0  0
    3.9116   -9.4286    1.5572 H   0  0  0  0  0  0  0  0  0  0  0  0
    3.1932   -8.3937    2.7673 H   0  0  0  0  0  0  0  0  0  0  0  0
    4.8623   -8.9274    2.9486 H   0  0  0  0  0  0  0  0  0  0  0  0
    2.8498   -6.2399    3.2661 H   0  0  0  0  0  0  0  0  0  0  0  0
    3.6931   -4.3248    4.1184 H   0  0  0  0  0  0  0  0  0  0  0  0
    2.3654   -3.7593    3.1583 H   0  0  0  0  0  0  0  0  0  0  0  0
  1  2  2  0
  1 26  1  0
  1 27  1  0
  2  3  1  0
  2 28  1  0
  3  4  1  0
  3 29  1  0
  3 30  1  0
  4 24  1  0
  4  5  1  0
  5  6  1  0
  5 31  1  0
  5 32  1  0
  7  6  1  6
  6 33  1  0
  6 34  1  0
  7 16  1  0
  7 21  1  0
  7  8  1  0
  8 14  2  0
  8  9  1  0
  9 25  1  0
  9 10  2  0
 10 11  1  0
 10 35  1  0
 11 12  2  0
 11 36  1  0
 12 13  1  0
 12 14  1  0
 13 37  1  0
 14 15  1  0
 15 16  1  0
 16 17  1  0
 16 38  1  6
 17 18  2  0
 17 19  1  0
 19 20  1  0
 19 39  1  0
 19 40  1  0
 20 21  1  0
 20 41  1  0
 20 42  1  0
 21 22  1  6
 21 24  1  0
 22 23  1  0
 23 43  1  0
 23 44  1  0
 23 45  1  0
 24 25  1  0
 24 46  1  1
 25 47  1  0
 25 48  1  0
M  END
>  <i_m_ct_stereo_status>  (134) 
1

>  <s_m_source_file>  (134) 
/var/tmp/pbs.5076255.sched01/tmpmtrcy7mx/460f9z2a7c.sdf

>  <i_m_source_file_index>  (134) 
14

>  <i_lp_mmshare_version>  (134) 
48012

>  <i_f3d_flags>  (134) 
0

>  <s_epik_input>  (134) 
W0NIMl09W0NIXVtDSDJdTihbQ0gyXVtDSDJdMSlbQ0BIXShbQ0gyXTIpW0NAXTMoT1tDSDNdKVtDSDJdW0NIMl1DKD1PKVtDQEBIXTRPYzVjKFtPSF0pW2NIXVtjSF1jMmM1W0NAXTEzNA==

>  <s_epik_cmdline>  (134) 
J2VwaWtfcHl0aG9uJywgJy1waHQnLCAnMi4wJywgJy1waCcsICc3LjAnLCAnLXRuJywgJzgnLCAnLW1hJywgJzIwMCcsICctaW1hZScsICc8aW5maWxlLm1hZT4nLCAnLW9tYWUnLCAnPG91dGZpbGUubWFlPic=

>  <r_lp_tautomer_probability>  (134) 
1

>  <r_epik_Ionization_Penalty>  (134) 
0.12908

>  <r_epik_Ionization_Penalty_Charging>  (134) 
0

>  <r_epik_Ionization_Penalty_Neutral>  (134) 
0.12908

>  <r_epik_State_Penalty>  (134) 
0.0747092

>  <r_epik_Charging_Adjusted_Penalty>  (134) 
0.0747092

>  <i_epik_Tot_Q>  (134) 
0

>  <i_epik_Tot_abs_Q>  (134) 
0

>  <s_lp_Force_Field>  (134) 
OPLS3e

>  <r_lp_Energy>  (134) 
52.2596

>  <b_lp_Chiralities_Consistent>  (134) 
1

>  <s_lp_Variant>  (134) 
28:0-1

>  <s_i_glide_gridfile>  (134) 
pfpi4k_grid

>  <i_i_glide_lignum>  (134) 
14

>  <i_i_glide_rotatable_bonds>  (134) 
4

>  <r_i_docking_score>  (134) 
-3.2876

>  <r_i_glide_ligand_efficiency>  (134) 
-0.131504

>  <r_i_glide_ligand_efficiency_sa>  (134) 
-0.38452

>  <r_i_glide_ligand_efficiency_ln>  (134) 
-0.77926

>  <r_i_glide_gscore>  (134) 
-3.2876

>  <r_i_glide_lipo>  (134) 
-0.606184

>  <r_i_glide_hbond>  (134) 
0

>  <r_i_glide_metal>  (134) 
-0

>  <r_i_glide_rewards>  (134) 
-1.13533

>  <r_i_glide_evdw>  (134) 
-21.0029

>  <r_i_glide_ecoul>  (134) 
-5.47403

>  <r_i_glide_erotb>  (134) 
0.325161

>  <r_i_glide_esite>  (134) 
0

>  <r_i_glide_emodel>  (134) 
-32.2637

>  <r_i_glide_energy>  (134) 
-26.4769

>  <r_i_glide_einternal>  (134) 
0.829947

>  <r_i_glide_intrahb_reward>  (134) 
-0

>  <i_i_glide_confnum>  (134) 
4

>  <i_i_glide_posenum>  (134) 
10

>  <r_i_glide_eff_state_penalty>  (134) 
0

>  <ligand_id>  (134) 
28

>  <original_smiles>  (134) 
C=CCN1CCC23c4c5ccc(O)c4OC2C(=O)CCC3(OC)C1C5

>  <smiles>  (134) 
[H]Oc1c([H])c([H])c2c3c1OC1([H])C(=O)C([H])([H])C([H])([H])C4(OC([H])([H])[H])C([H])(N(C([H])([H])C([H])=C([H])[H])C([H])([H])C([H])([H])C314)C2([H])[H]

$$$$
28:0:1
     RDKit          3D

 48 52  0  0  1  0  0  0  0  0999 V2000
   -0.3774   -1.5183   10.9559 C   0  0  0  0  0  0  0  0  0  0  0  0
    0.1425   -0.5204   10.2218 C   0  0  0  0  0  0  0  0  0  0  0  0
   -0.4733    0.8694   10.1611 C   0  0  0  0  0  0  0  0  0  0  0  0
   -0.7767    1.3072    8.7954 N   0  0  0  0  0  0  0  0  0  0  0  0
    0.3985    1.5988    7.9504 C   0  0  0  0  0  0  0  0  0  0  0  0
    0.8888    3.0630    8.0212 C   0  0  0  0  0  0  0  0  0  0  0  0
   -0.2716    4.0722    7.8090 C   0  0  2  0  0  0  0  0  0  0  0  0
   -0.8783    3.8460    6.4484 C   0  0  0  0  0  0  0  0  0  0  0  0
   -1.8919    2.9297    6.1303 C   0  0  0  0  0  0  0  0  0  0  0  0
   -2.2161    2.8212    4.7570 C   0  0  0  0  0  0  0  0  0  0  0  0
   -1.5393    3.6140    3.8035 C   0  0  0  0  0  0  0  0  0  0  0  0
   -0.5637    4.5619    4.2090 C   0  0  0  0  0  0  0  0  0  0  0  0
    0.0480    5.3378    3.2771 O   0  0  0  0  0  0  0  0  0  0  0  0
   -0.2437    4.7094    5.5786 C   0  0  0  0  0  0  0  0  0  0  0  0
    0.5847    5.6028    6.2085 O   0  0  0  0  0  0  0  0  0  0  0  0
    0.2872    5.5207    7.6252 C   0  0  1  0  0  0  0  0  0  0  0  0
   -0.7539    6.6082    7.9632 C   0  0  0  0  0  0  0  0  0  0  0  0
   -0.8070    7.6609    7.3353 O   0  0  0  0  0  0  0  0  0  0  0  0
   -1.7572    6.3270    9.0778 C   0  0  0  0  0  0  0  0  0  0  0  0
   -2.3823    4.9271    8.9253 C   0  0  0  0  0  0  0  0  0  0  0  0
   -1.2927    3.8216    8.9487 C   0  0  2  0  0  0  0  0  0  0  0  0
   -0.5900    3.9329   10.1918 O   0  0  0  0  0  0  0  0  0  0  0  0
   -1.2989    3.6991   11.4043 C   0  0  0  0  0  0  0  0  0  0  0  0
   -1.8180    2.3606    8.6928 C   0  0  1  0  0  0  0  0  0  0  0  0
   -2.5476    2.2462    7.3241 C   0  0  0  0  0  0  0  0  0  0  0  0
   -1.2853   -1.3832   11.5360 H   0  0  0  0  0  0  0  0  0  0  0  0
    0.0964   -2.4918   11.0067 H   0  0  0  0  0  0  0  0  0  0  0  0
    1.0514   -0.7121    9.6578 H   0  0  0  0  0  0  0  0  0  0  0  0
   -1.3808    0.8335   10.7769 H   0  0  0  0  0  0  0  0  0  0  0  0
    0.2345    1.5548   10.6325 H   0  0  0  0  0  0  0  0  0  0  0  0
    1.2266    0.9404    8.1996 H   0  0  0  0  0  0  0  0  0  0  0  0
    0.1597    1.3801    6.9042 H   0  0  0  0  0  0  0  0  0  0  0  0
    1.3634    3.2395    8.9845 H   0  0  0  0  0  0  0  0  0  0  0  0
    1.6749    3.2214    7.2819 H   0  0  0  0  0  0  0  0  0  0  0  0
   -2.9751    2.1310    4.4157 H   0  0  0  0  0  0  0  0  0  0  0  0
   -1.7837    3.5000    2.7609 H   0  0  0  0  0  0  0  0  0  0  0  0
    0.0090    5.0024    2.3760 H   0  0  0  0  0  0  0  0  0  0  0  0
    1.1791    5.7061    8.2259 H   0  0  0  0  0  0  0  0  0  0  0  0
   -1.2390    6.4143   10.0309 H   0  0  0  0  0  0  0  0  0  0  0  0
   -2.5308    7.1006    9.0663 H   0  0  0  0  0  0  0  0  0  0  0  0
   -3.1358    4.7708    9.6972 H   0  0  0  0  0  0  0  0  0  0  0  0
   -2.9314    4.9038    7.9881 H   0  0  0  0  0  0  0  0  0  0  0  0
   -0.5735    3.6258   12.2111 H   0  0  0  0  0  0  0  0  0  0  0  0
   -1.8379    2.7625   11.4009 H   0  0  0  0  0  0  0  0  0  0  0  0
   -2.0210    4.4763   11.6510 H   0  0  0  0  0  0  0  0  0  0  0  0
   -2.5902    2.1408    9.4221 H   0  0  0  0  0  0  0  0  0  0  0  0
   -3.5344    2.6805    7.4370 H   0  0  0  0  0  0  0  0  0  0  0  0
   -2.7079    1.1975    7.0901 H   0  0  0  0  0  0  0  0  0  0  0  0
  1  2  2  0
  1 26  1  0
  1 27  1  0
  2  3  1  0
  2 28  1  0
  3  4  1  0
  3 29  1  0
  3 30  1  0
  4 24  1  0
  4  5  1  0
  5  6  1  0
  5 31  1  0
  5 32  1  0
  7  6  1  1
  6 33  1  0
  6 34  1  0
  7 16  1  0
  7 21  1  0
  7  8  1  0
  8 14  2  0
  8  9  1  0
  9 25  1  0
  9 10  2  0
 10 11  1  0
 10 35  1  0
 11 12  2  0
 11 36  1  0
 12 13  1  0
 12 14  1  0
 13 37  1  0
 14 15  1  0
 15 16  1  0
 16 17  1  0
 16 38  1  1
 17 18  2  0
 17 19  1  0
 19 20  1  0
 19 39  1  0
 19 40  1  0
 20 21  1  0
 20 41  1  0
 20 42  1  0
 21 22  1  1
 21 24  1  0
 22 23  1  0
 23 43  1  0
 23 44  1  0
 23 45  1  0
 24 25  1  0
 24 46  1  1
 25 47  1  0
 25 48  1  0
M  END
>  <i_m_ct_stereo_status>  (135) 
1

>  <s_m_source_file>  (135) 
/var/tmp/pbs.5076255.sched01/tmpmtrcy7mx/460f9z2a7c.sdf

>  <i_m_source_file_index>  (135) 
14

>  <i_lp_mmshare_version>  (135) 
48012

>  <i_f3d_flags>  (135) 
0

>  <s_epik_input>  (135) 
W0NIMl09W0NIXVtDSDJdTihbQ0gyXVtDSDJdMSlbQ0BIXShbQ0gyXTIpW0NAXTMoT1tDSDNdKVtDSDJdW0NIMl1DKD1PKVtDQEBIXTRPYzVjKFtPSF0pW2NIXVtjSF1jMmM1W0NAXTEzNA==

>  <s_epik_cmdline>  (135) 
J2VwaWtfcHl0aG9uJywgJy1waHQnLCAnMi4wJywgJy1waCcsICc3LjAnLCAnLXRuJywgJzgnLCAnLW1hJywgJzIwMCcsICctaW1hZScsICc8aW5maWxlLm1hZT4nLCAnLW9tYWUnLCAnPG91dGZpbGUubWFlPic=

>  <r_lp_tautomer_probability>  (135) 
1

>  <r_epik_Ionization_Penalty>  (135) 
0.12908

>  <r_epik_Ionization_Penalty_Charging>  (135) 
0

>  <r_epik_Ionization_Penalty_Neutral>  (135) 
0.12908

>  <r_epik_State_Penalty>  (135) 
0.0747092

>  <r_epik_Charging_Adjusted_Penalty>  (135) 
0.0747092

>  <i_epik_Tot_Q>  (135) 
0

>  <i_epik_Tot_abs_Q>  (135) 
0

>  <s_lp_Force_Field>  (135) 
OPLS3e

>  <r_lp_Energy>  (135) 
52.2596

>  <b_lp_Chiralities_Consistent>  (135) 
1

>  <s_lp_Variant>  (135) 
28:0-1

>  <s_i_glide_gridfile>  (135) 
pfpi4k_grid

>  <i_i_glide_lignum>  (135) 
14

>  <i_i_glide_rotatable_bonds>  (135) 
4

>  <r_i_docking_score>  (135) 
-2.89179

>  <r_i_glide_ligand_efficiency>  (135) 
-0.115672

>  <r_i_glide_ligand_efficiency_sa>  (135) 
-0.338226

>  <r_i_glide_ligand_efficiency_ln>  (135) 
-0.68544

>  <r_i_glide_gscore>  (135) 
-2.89179

>  <r_i_glide_lipo>  (135) 
-0.0968621

>  <r_i_glide_hbond>  (135) 
0

>  <r_i_glide_metal>  (135) 
-0

>  <r_i_glide_rewards>  (135) 
-1.08136

>  <r_i_glide_evdw>  (135) 
-17.255

>  <r_i_glide_ecoul>  (135) 
-7.76994

>  <r_i_glide_erotb>  (135) 
0.325161

>  <r_i_glide_esite>  (135) 
-0.0104906

>  <r_i_glide_emodel>  (135) 
-29.6618

>  <r_i_glide_energy>  (135) 
-25.0249

>  <r_i_glide_einternal>  (135) 
1.09952

>  <r_i_glide_intrahb_reward>  (135) 
-0

>  <i_i_glide_confnum>  (135) 
4

>  <i_i_glide_posenum>  (135) 
39

>  <r_i_glide_eff_state_penalty>  (135) 
0

>  <ligand_id>  (135) 
28

>  <original_smiles>  (135) 
C=CCN1CCC23c4c5ccc(O)c4OC2C(=O)CCC3(OC)C1C5

>  <smiles>  (135) 
[H]Oc1c([H])c([H])c2c3c1OC1([H])C(=O)C([H])([H])C([H])([H])C4(OC([H])([H])[H])C([H])(N(C([H])([H])C([H])=C([H])[H])C([H])([H])C([H])([H])C314)C2([H])[H]

$$$$
28:0:2
     RDKit          3D

 48 52  0  0  1  0  0  0  0  0999 V2000
   -1.7439   -4.4573    8.4743 C   0  0  0  0  0  0  0  0  0  0  0  0
   -1.6263   -3.7854    7.3178 C   0  0  0  0  0  0  0  0  0  0  0  0
   -0.3745   -3.0341    6.8923 C   0  0  0  0  0  0  0  0  0  0  0  0
   -0.5641   -1.5904    6.7410 N   0  0  0  0  0  0  0  0  0  0  0  0
   -1.5502   -1.1636    5.7335 C   0  0  0  0  0  0  0  0  0  0  0  0
   -0.9575   -0.9244    4.3366 C   0  0  0  0  0  0  0  0  0  0  0  0
    0.2941   -0.0102    4.3905 C   0  0  2  0  0  0  0  0  0  0  0  0
   -0.0980    1.3215    4.9676 C   0  0  0  0  0  0  0  0  0  0  0  0
   -0.1482    1.6545    6.3321 C   0  0  0  0  0  0  0  0  0  0  0  0
   -0.6314    2.9390    6.6392 C   0  0  0  0  0  0  0  0  0  0  0  0
   -1.0294    3.8056    5.5877 C   0  0  0  0  0  0  0  0  0  0  0  0
   -0.8986    3.4298    4.2293 C   0  0  0  0  0  0  0  0  0  0  0  0
   -1.2301    4.3338    3.2596 O   0  0  0  0  0  0  0  0  0  0  0  0
   -0.3960    2.1499    3.9006 C   0  0  0  0  0  0  0  0  0  0  0  0
   -0.1035    1.5943    2.6804 O   0  0  0  0  0  0  0  0  0  0  0  0
    0.7146    0.4314    2.9484 C   0  0  1  0  0  0  0  0  0  0  0  0
    2.1980    0.8425    2.8562 C   0  0  0  0  0  0  0  0  0  0  0  0
    2.5721    1.7179    2.0789 O   0  0  0  0  0  0  0  0  0  0  0  0
    3.2049    0.1235    3.7547 C   0  0  0  0  0  0  0  0  0  0  0  0
    2.6949    0.0378    5.2057 C   0  0  0  0  0  0  0  0  0  0  0  0
    1.3462   -0.7273    5.2725 C   0  0  2  0  0  0  0  0  0  0  0  0
    1.5458   -2.0382    4.7207 O   0  0  0  0  0  0  0  0  0  0  0  0
    2.5049   -2.8966    5.3272 C   0  0  0  0  0  0  0  0  0  0  0  0
    0.6845   -0.7939    6.6975 C   0  0  1  0  0  0  0  0  0  0  0  0
    0.4396    0.6152    7.2824 C   0  0  0  0  0  0  0  0  0  0  0  0
   -0.9351   -4.4888    9.1878 H   0  0  0  0  0  0  0  0  0  0  0  0
   -2.6553   -4.9908    8.7167 H   0  0  0  0  0  0  0  0  0  0  0  0
   -2.4663   -3.7910    6.6429 H   0  0  0  0  0  0  0  0  0  0  0  0
    0.3972   -3.2187    7.6394 H   0  0  0  0  0  0  0  0  0  0  0  0
   -0.0404   -3.4832    5.9633 H   0  0  0  0  0  0  0  0  0  0  0  0
   -2.3773   -1.8683    5.6548 H   0  0  0  0  0  0  0  0  0  0  0  0
   -2.0075   -0.2277    6.0554 H   0  0  0  0  0  0  0  0  0  0  0  0
   -0.6953   -1.8843    3.8917 H   0  0  0  0  0  0  0  0  0  0  0  0
   -1.7230   -0.4822    3.6923 H   0  0  0  0  0  0  0  0  0  0  0  0
   -0.6786    3.2787    7.6641 H   0  0  0  0  0  0  0  0  0  0  0  0
   -1.3834    4.7886    5.8294 H   0  0  0  0  0  0  0  0  0  0  0  0
   -0.8339    4.1468    2.4055 H   0  0  0  0  0  0  0  0  0  0  0  0
    0.5412   -0.3499    2.2068 H   0  0  0  0  0  0  0  0  0  0  0  0
    3.3677   -0.8717    3.3413 H   0  0  0  0  0  0  0  0  0  0  0  0
    4.1617    0.6458    3.7122 H   0  0  0  0  0  0  0  0  0  0  0  0
    3.4516   -0.4211    5.8413 H   0  0  0  0  0  0  0  0  0  0  0  0
    2.5846    1.0557    5.5807 H   0  0  0  0  0  0  0  0  0  0  0  0
    2.3883   -3.8907    4.8989 H   0  0  0  0  0  0  0  0  0  0  0  0
    2.3698   -2.9936    6.4023 H   0  0  0  0  0  0  0  0  0  0  0  0
    3.5276   -2.5785    5.1323 H   0  0  0  0  0  0  0  0  0  0  0  0
    1.3930   -1.2549    7.3856 H   0  0  0  0  0  0  0  0  0  0  0  0
    1.3837    1.0135    7.6420 H   0  0  0  0  0  0  0  0  0  0  0  0
   -0.2041    0.5464    8.1584 H   0  0  0  0  0  0  0  0  0  0  0  0
  1  2  2  0
  1 26  1  0
  1 27  1  0
  2  3  1  0
  2 28  1  0
  3  4  1  0
  3 29  1  0
  3 30  1  0
  4 24  1  0
  4  5  1  0
  5  6  1  0
  5 31  1  0
  5 32  1  0
  7  6  1  6
  6 33  1  0
  6 34  1  0
  7 16  1  0
  7 21  1  0
  7  8  1  0
  8 14  2  0
  8  9  1  0
  9 25  1  0
  9 10  2  0
 10 11  1  0
 10 35  1  0
 11 12  2  0
 11 36  1  0
 12 13  1  0
 12 14  1  0
 13 37  1  0
 14 15  1  0
 15 16  1  0
 16 17  1  0
 16 38  1  6
 17 18  2  0
 17 19  1  0
 19 20  1  0
 19 39  1  0
 19 40  1  0
 20 21  1  0
 20 41  1  0
 20 42  1  0
 21 22  1  6
 21 24  1  0
 22 23  1  0
 23 43  1  0
 23 44  1  0
 23 45  1  0
 24 25  1  0
 24 46  1  1
 25 47  1  0
 25 48  1  0
M  END
>  <i_m_ct_stereo_status>  (136) 
1

>  <s_m_source_file>  (136) 
/var/tmp/pbs.5076255.sched01/tmpmtrcy7mx/460f9z2a7c.sdf

>  <i_m_source_file_index>  (136) 
14

>  <i_lp_mmshare_version>  (136) 
48012

>  <i_f3d_flags>  (136) 
0

>  <s_epik_input>  (136) 
W0NIMl09W0NIXVtDSDJdTihbQ0gyXVtDSDJdMSlbQ0BIXShbQ0gyXTIpW0NAXTMoT1tDSDNdKVtDSDJdW0NIMl1DKD1PKVtDQEBIXTRPYzVjKFtPSF0pW2NIXVtjSF1jMmM1W0NAXTEzNA==

>  <s_epik_cmdline>  (136) 
J2VwaWtfcHl0aG9uJywgJy1waHQnLCAnMi4wJywgJy1waCcsICc3LjAnLCAnLXRuJywgJzgnLCAnLW1hJywgJzIwMCcsICctaW1hZScsICc8aW5maWxlLm1hZT4nLCAnLW9tYWUnLCAnPG91dGZpbGUubWFlPic=

>  <r_lp_tautomer_probability>  (136) 
1

>  <r_epik_Ionization_Penalty>  (136) 
0.12908

>  <r_epik_Ionization_Penalty_Charging>  (136) 
0

>  <r_epik_Ionization_Penalty_Neutral>  (136) 
0.12908

>  <r_epik_State_Penalty>  (136) 
0.0747092

>  <r_epik_Charging_Adjusted_Penalty>  (136) 
0.0747092

>  <i_epik_Tot_Q>  (136) 
0

>  <i_epik_Tot_abs_Q>  (136) 
0

>  <s_lp_Force_Field>  (136) 
OPLS3e

>  <r_lp_Energy>  (136) 
52.2596

>  <b_lp_Chiralities_Consistent>  (136) 
1

>  <s_lp_Variant>  (136) 
28:0-1

>  <s_i_glide_gridfile>  (136) 
pfpi4k_grid

>  <i_i_glide_lignum>  (136) 
14

>  <i_i_glide_rotatable_bonds>  (136) 
4

>  <r_i_docking_score>  (136) 
-2.48702

>  <r_i_glide_ligand_efficiency>  (136) 
-0.0994808

>  <r_i_glide_ligand_efficiency_sa>  (136) 
-0.290884

>  <r_i_glide_ligand_efficiency_ln>  (136) 
-0.589498

>  <r_i_glide_gscore>  (136) 
-2.48702

>  <r_i_glide_lipo>  (136) 
0

>  <r_i_glide_hbond>  (136) 
0

>  <r_i_glide_metal>  (136) 
-0

>  <r_i_glide_rewards>  (136) 
-1.08136

>  <r_i_glide_evdw>  (136) 
-18.1063

>  <r_i_glide_ecoul>  (136) 
-5.46886

>  <r_i_glide_erotb>  (136) 
0.325161

>  <r_i_glide_esite>  (136) 
-0.0051788

>  <r_i_glide_emodel>  (136) 
-27.6198

>  <r_i_glide_energy>  (136) 
-23.5752

>  <r_i_glide_einternal>  (136) 
1.16555

>  <r_i_glide_intrahb_reward>  (136) 
-0

>  <i_i_glide_confnum>  (136) 
4

>  <i_i_glide_posenum>  (136) 
2

>  <r_i_glide_eff_state_penalty>  (136) 
0

>  <ligand_id>  (136) 
28

>  <original_smiles>  (136) 
C=CCN1CCC23c4c5ccc(O)c4OC2C(=O)CCC3(OC)C1C5

>  <smiles>  (136) 
[H]Oc1c([H])c([H])c2c3c1OC1([H])C(=O)C([H])([H])C([H])([H])C4(OC([H])([H])[H])C([H])(N(C([H])([H])C([H])=C([H])[H])C([H])([H])C([H])([H])C314)C2([H])[H]

$$$$
28:1:0
     RDKit          3D

 49 53  0  0  1  0  0  0  0  0999 V2000
    3.1733   -0.8406   -4.4367 C   0  0  0  0  0  0  0  0  0  0  0  0
    3.1281   -0.6193   -3.1158 C   0  0  0  0  0  0  0  0  0  0  0  0
    4.2824   -0.8468   -2.1659 C   0  0  0  0  0  0  0  0  0  0  0  0
    3.8847   -1.6044   -0.9450 N   0  0  1  0  0  0  0  0  0  0  0  0
    3.8702   -3.0707   -1.1885 C   0  0  0  0  0  0  0  0  0  0  0  0
    3.4769   -3.8573    0.0750 C   0  0  0  0  0  0  0  0  0  0  0  0
    4.3155   -3.4378    1.3155 C   0  0  2  0  0  0  0  0  0  0  0  0
    5.7633   -3.7249    1.0337 C   0  0  0  0  0  0  0  0  0  0  0  0
    6.6705   -2.8815    0.3740 C   0  0  0  0  0  0  0  0  0  0  0  0
    7.9392   -3.4262    0.0883 C   0  0  0  0  0  0  0  0  0  0  0  0
    8.2246   -4.7589    0.4870 C   0  0  0  0  0  0  0  0  0  0  0  0
    7.2837   -5.5335    1.2164 C   0  0  0  0  0  0  0  0  0  0  0  0
    7.6042   -6.8003    1.6152 O   0  0  0  0  0  0  0  0  0  0  0  0
    6.0196   -4.9925    1.5240 C   0  0  0  0  0  0  0  0  0  0  0  0
    4.9810   -5.5116    2.2547 O   0  0  0  0  0  0  0  0  0  0  0  0
    4.0647   -4.4226    2.5035 C   0  0  1  0  0  0  0  0  0  0  0  0
    4.3900   -3.8010    3.8754 C   0  0  0  0  0  0  0  0  0  0  0  0
    4.8606   -4.4673    4.7934 O   0  0  0  0  0  0  0  0  0  0  0  0
    4.0905   -2.3203    4.0738 C   0  0  0  0  0  0  0  0  0  0  0  0
    4.6751   -1.4948    2.9137 C   0  0  0  0  0  0  0  0  0  0  0  0
    4.0580   -1.9277    1.5548 C   0  0  2  0  0  0  0  0  0  0  0  0
    2.6372   -1.7547    1.6401 O   0  0  0  0  0  0  0  0  0  0  0  0
    2.0997   -0.4379    1.7154 C   0  0  0  0  0  0  0  0  0  0  0  0
    4.6431   -1.2060    0.2947 C   0  0  1  0  0  0  0  0  0  0  0  0
    6.1734   -1.4526    0.1600 C   0  0  0  0  0  0  0  0  0  0  0  0
    4.0584   -1.2187   -4.9328 H   0  0  0  0  0  0  0  0  0  0  0  0
    2.3048   -0.6429   -5.0523 H   0  0  0  0  0  0  0  0  0  0  0  0
    2.2181   -0.2299   -2.6924 H   0  0  0  0  0  0  0  0  0  0  0  0
    5.1114   -1.3310   -2.6877 H   0  0  0  0  0  0  0  0  0  0  0  0
    4.6377    0.1454   -1.9003 H   0  0  0  0  0  0  0  0  0  0  0  0
    3.1732   -3.2994   -1.9950 H   0  0  0  0  0  0  0  0  0  0  0  0
    4.8443   -3.4125   -1.5401 H   0  0  0  0  0  0  0  0  0  0  0  0
    2.4126   -3.7100    0.2646 H   0  0  0  0  0  0  0  0  0  0  0  0
    3.5888   -4.9249   -0.1229 H   0  0  0  0  0  0  0  0  0  0  0  0
    8.6899   -2.8342   -0.4241 H   0  0  0  0  0  0  0  0  0  0  0  0
    9.1801   -5.1873    0.2454 H   0  0  0  0  0  0  0  0  0  0  0  0
    8.4932   -7.0610    1.4198 H   0  0  0  0  0  0  0  0  0  0  0  0
    3.0347   -4.7797    2.5300 H   0  0  0  0  0  0  0  0  0  0  0  0
    3.0111   -2.1936    4.1342 H   0  0  0  0  0  0  0  0  0  0  0  0
    4.4977   -1.9928    5.0312 H   0  0  0  0  0  0  0  0  0  0  0  0
    4.5289   -0.4322    3.1059 H   0  0  0  0  0  0  0  0  0  0  0  0
    5.7573   -1.6375    2.9124 H   0  0  0  0  0  0  0  0  0  0  0  0
    1.0173   -0.5182    1.8049 H   0  0  0  0  0  0  0  0  0  0  0  0
    2.2961    0.1459    0.8185 H   0  0  0  0  0  0  0  0  0  0  0  0
    2.4509    0.1180    2.5831 H   0  0  0  0  0  0  0  0  0  0  0  0
    4.5117   -0.1307    0.4092 H   0  0  0  0  0  0  0  0  0  0  0  0
    6.6899   -0.8350    0.8951 H   0  0  0  0  0  0  0  0  0  0  0  0
    6.5408   -1.1089   -0.8008 H   0  0  0  0  0  0  0  0  0  0  0  0
    2.9177   -1.3507   -0.7609 H   0  0  0  0  0  0  0  0  0  0  0  0
  1  2  2  0
  1 26  1  0
  1 27  1  0
  2  3  1  0
  2 28  1  0
  3  4  1  0
  3 29  1  0
  3 30  1  0
  4 24  1  0
  4  5  1  0
  4 49  1  1
  5  6  1  0
  5 31  1  0
  5 32  1  0
  7  6  1  6
  6 33  1  0
  6 34  1  0
  7 16  1  0
  7 21  1  0
  7  8  1  0
  8 14  2  0
  8  9  1  0
  9 25  1  0
  9 10  2  0
 10 11  1  0
 10 35  1  0
 11 12  2  0
 11 36  1  0
 12 13  1  0
 12 14  1  0
 13 37  1  0
 14 15  1  0
 15 16  1  0
 16 17  1  0
 16 38  1  1
 17 18  2  0
 17 19  1  0
 19 20  1  0
 19 39  1  0
 19 40  1  0
 20 21  1  0
 20 41  1  0
 20 42  1  0
 21 22  1  1
 21 24  1  0
 22 23  1  0
 23 43  1  0
 23 44  1  0
 23 45  1  0
 24 25  1  0
 24 46  1  1
 25 47  1  0
 25 48  1  0
M  CHG  1   4   1
M  END
>  <i_m_ct_stereo_status>  (137) 
1

>  <s_m_source_file>  (137) 
/var/tmp/pbs.5076255.sched01/tmpmtrcy7mx/460f9z2a7c.sdf

>  <i_m_source_file_index>  (137) 
15

>  <i_lp_mmshare_version>  (137) 
48012

>  <i_f3d_flags>  (137) 
0

>  <s_epik_input>  (137) 
W0NIMl09W0NIXVtDSDJdTihbQ0gyXVtDSDJdMSlbQ0BIXShbQ0gyXTIpW0NAXTMoT1tDSDNdKVtDSDJdW0NIMl1DKD1PKVtDQEBIXTRPYzVjKFtPSF0pW2NIXVtjSF1jMmM1W0NAXTEzNA==

>  <s_epik_cmdline>  (137) 
J2VwaWtfcHl0aG9uJywgJy1waHQnLCAnMi4wJywgJy1waCcsICc3LjAnLCAnLXRuJywgJzgnLCAnLW1hJywgJzIwMCcsICctaW1hZScsICc8aW5maWxlLm1hZT4nLCAnLW9tYWUnLCAnPG91dGZpbGUubWFlPic=

>  <r_lp_tautomer_probability>  (137) 
1

>  <r_epik_Ionization_Penalty>  (137) 
1.02625

>  <r_epik_Ionization_Penalty_Charging>  (137) 
0.985054

>  <r_epik_Ionization_Penalty_Neutral>  (137) 
0.0411906

>  <r_epik_State_Penalty>  (137) 
1.32794

>  <r_epik_Charging_Adjusted_Penalty>  (137) 
2.31299

>  <i_epik_Tot_Q>  (137) 
1

>  <i_epik_Tot_abs_Q>  (137) 
1

>  <s_lp_Force_Field>  (137) 
OPLS3e

>  <r_lp_Energy>  (137) 
53.5888

>  <b_lp_Chiralities_Consistent>  (137) 
1

>  <s_lp_Variant>  (137) 
28:0-2

>  <s_i_glide_gridfile>  (137) 
pfpi4k_grid

>  <i_i_glide_lignum>  (137) 
15

>  <i_i_glide_rotatable_bonds>  (137) 
4

>  <r_i_docking_score>  (137) 
-3.70745

>  <r_i_glide_ligand_efficiency>  (137) 
-0.148298

>  <r_i_glide_ligand_efficiency_sa>  (137) 
-0.433626

>  <r_i_glide_ligand_efficiency_ln>  (137) 
-0.878776

>  <r_i_glide_gscore>  (137) 
-3.70745

>  <r_i_glide_lipo>  (137) 
-0.926346

>  <r_i_glide_hbond>  (137) 
-0.106515

>  <r_i_glide_metal>  (137) 
-0

>  <r_i_glide_rewards>  (137) 
-1.08473

>  <r_i_glide_evdw>  (137) 
-24.4717

>  <r_i_glide_ecoul>  (137) 
-4.18551

>  <r_i_glide_erotb>  (137) 
0.323465

>  <r_i_glide_esite>  (137) 
-0.0619084

>  <r_i_glide_emodel>  (137) 
-35.3132

>  <r_i_glide_energy>  (137) 
-28.6573

>  <r_i_glide_einternal>  (137) 
0.79383

>  <r_i_glide_intrahb_reward>  (137) 
-0

>  <i_i_glide_confnum>  (137) 
1

>  <i_i_glide_posenum>  (137) 
1

>  <r_i_glide_eff_state_penalty>  (137) 
0

>  <ligand_id>  (137) 
28

>  <original_smiles>  (137) 
C=CCN1CCC23c4c5ccc(O)c4OC2C(=O)CCC3(OC)C1C5

>  <smiles>  (137) 
[H]Oc1c([H])c([H])c2c3c1OC1([H])C(=O)C([H])([H])C([H])([H])C4(OC([H])([H])[H])C31C([H])([H])C([H])([H])[N+]([H])(C([H])([H])C([H])=C([H])[H])C4([H])C2([H])[H]

$$$$
28:1:1
     RDKit          3D

 49 53  0  0  1  0  0  0  0  0999 V2000
    2.7541   -8.4482    1.7132 C   0  0  0  0  0  0  0  0  0  0  0  0
    4.0118   -7.9889    1.8234 C   0  0  0  0  0  0  0  0  0  0  0  0
    4.6902   -7.0983    0.8037 C   0  0  0  0  0  0  0  0  0  0  0  0
    4.8722   -5.6958    1.2888 N   0  0  1  0  0  0  0  0  0  0  0  0
    5.8382   -4.9416    0.4415 C   0  0  0  0  0  0  0  0  0  0  0  0
    6.0433   -3.4981    0.9380 C   0  0  0  0  0  0  0  0  0  0  0  0
    4.6984   -2.7589    1.1606 C   0  0  2  0  0  0  0  0  0  0  0  0
    3.9724   -2.6863   -0.1538 C   0  0  0  0  0  0  0  0  0  0  0  0
    3.1200   -3.6665   -0.6862 C   0  0  0  0  0  0  0  0  0  0  0  0
    2.6630   -3.4428   -1.9991 C   0  0  0  0  0  0  0  0  0  0  0  0
    3.0807   -2.2899   -2.6986 C   0  0  0  0  0  0  0  0  0  0  0  0
    3.8864   -1.3099   -2.0649 C   0  0  0  0  0  0  0  0  0  0  0  0
    4.2329   -0.1830   -2.7417 O   0  0  0  0  0  0  0  0  0  0  0  0
    4.3208   -1.4915   -0.7365 C   0  0  0  0  0  0  0  0  0  0  0  0
    5.0405   -0.6641    0.0885 O   0  0  0  0  0  0  0  0  0  0  0  0
    4.9418   -1.2355    1.4138 C   0  0  1  0  0  0  0  0  0  0  0  0
    3.7624   -0.5721    2.1545 C   0  0  0  0  0  0  0  0  0  0  0  0
    3.4081    0.5711    1.9056 O   0  0  0  0  0  0  0  0  0  0  0  0
    3.0439   -1.3843    3.2242 C   0  0  0  0  0  0  0  0  0  0  0  0
    2.6507   -2.7595    2.6619 C   0  0  0  0  0  0  0  0  0  0  0  0
    3.9033   -3.5614    2.2200 C   0  0  2  0  0  0  0  0  0  0  0  0
    4.7680   -3.7116    3.3566 O   0  0  0  0  0  0  0  0  0  0  0  0
    4.3356   -4.4961    4.4630 C   0  0  0  0  0  0  0  0  0  0  0  0
    3.5993   -4.9452    1.5573 C   0  0  1  0  0  0  0  0  0  0  0  0
    2.7428   -4.7909    0.2674 C   0  0  0  0  0  0  0  0  0  0  0  0
    2.1163   -8.1902    0.8803 H   0  0  0  0  0  0  0  0  0  0  0  0
    2.3368   -9.1017    2.4711 H   0  0  0  0  0  0  0  0  0  0  0  0
    4.5987   -8.2797    2.6835 H   0  0  0  0  0  0  0  0  0  0  0  0
    5.6568   -7.5419    0.5972 H   0  0  0  0  0  0  0  0  0  0  0  0
    4.1731   -7.1426   -0.1533 H   0  0  0  0  0  0  0  0  0  0  0  0
    6.7931   -5.4586    0.4401 H   0  0  0  0  0  0  0  0  0  0  0  0
    5.5046   -4.9364   -0.5941 H   0  0  0  0  0  0  0  0  0  0  0  0
    6.6240   -3.5152    1.8610 H   0  0  0  0  0  0  0  0  0  0  0  0
    6.6665   -2.9613    0.2250 H   0  0  0  0  0  0  0  0  0  0  0  0
    2.0004   -4.1561   -2.4806 H   0  0  0  0  0  0  0  0  0  0  0  0
    2.7543   -2.1369   -3.7172 H   0  0  0  0  0  0  0  0  0  0  0  0
    4.5581    0.4806   -2.1467 H   0  0  0  0  0  0  0  0  0  0  0  0
    5.8542   -1.0501    1.9803 H   0  0  0  0  0  0  0  0  0  0  0  0
    3.7019   -1.4840    4.0844 H   0  0  0  0  0  0  0  0  0  0  0  0
    2.1663   -0.8308    3.5622 H   0  0  0  0  0  0  0  0  0  0  0  0
    2.0542   -3.2994    3.3961 H   0  0  0  0  0  0  0  0  0  0  0  0
    1.9779   -2.5921    1.8183 H   0  0  0  0  0  0  0  0  0  0  0  0
    5.1014   -4.4443    5.2353 H   0  0  0  0  0  0  0  0  0  0  0  0
    4.2199   -5.5465    4.1996 H   0  0  0  0  0  0  0  0  0  0  0  0
    3.4114   -4.1363    4.9140 H   0  0  0  0  0  0  0  0  0  0  0  0
    3.0192   -5.5403    2.2566 H   0  0  0  0  0  0  0  0  0  0  0  0
    1.7351   -4.6009    0.5964 H   0  0  0  0  0  0  0  0  0  0  0  0
    2.6426   -5.7104   -0.3025 H   0  0  0  0  0  0  0  0  0  0  0  0
    5.3324   -5.7755    2.1907 H   0  0  0  0  0  0  0  0  0  0  0  0
  1  2  2  0
  1 26  1  0
  1 27  1  0
  2  3  1  0
  2 28  1  0
  3  4  1  0
  3 29  1  0
  3 30  1  0
  4 24  1  0
  4  5  1  0
  4 49  1  1
  5  6  1  0
  5 31  1  0
  5 32  1  0
  7  6  1  6
  6 33  1  0
  6 34  1  0
  7 16  1  0
  7 21  1  0
  7  8  1  0
  8 14  2  0
  8  9  1  0
  9 25  1  0
  9 10  2  0
 10 11  1  0
 10 35  1  0
 11 12  2  0
 11 36  1  0
 12 13  1  0
 12 14  1  0
 13 37  1  0
 14 15  1  0
 15 16  1  0
 16 17  1  0
 16 38  1  1
 17 18  2  0
 17 19  1  0
 19 20  1  0
 19 39  1  0
 19 40  1  0
 20 21  1  0
 20 41  1  0
 20 42  1  0
 21 22  1  1
 21 24  1  0
 22 23  1  0
 23 43  1  0
 23 44  1  0
 23 45  1  0
 24 25  1  0
 24 46  1  1
 25 47  1  0
 25 48  1  0
M  CHG  1   4   1
M  END
>  <i_m_ct_stereo_status>  (138) 
1

>  <s_m_source_file>  (138) 
/var/tmp/pbs.5076255.sched01/tmpmtrcy7mx/460f9z2a7c.sdf

>  <i_m_source_file_index>  (138) 
15

>  <i_lp_mmshare_version>  (138) 
48012

>  <i_f3d_flags>  (138) 
0

>  <s_epik_input>  (138) 
W0NIMl09W0NIXVtDSDJdTihbQ0gyXVtDSDJdMSlbQ0BIXShbQ0gyXTIpW0NAXTMoT1tDSDNdKVtDSDJdW0NIMl1DKD1PKVtDQEBIXTRPYzVjKFtPSF0pW2NIXVtjSF1jMmM1W0NAXTEzNA==

>  <s_epik_cmdline>  (138) 
J2VwaWtfcHl0aG9uJywgJy1waHQnLCAnMi4wJywgJy1waCcsICc3LjAnLCAnLXRuJywgJzgnLCAnLW1hJywgJzIwMCcsICctaW1hZScsICc8aW5maWxlLm1hZT4nLCAnLW9tYWUnLCAnPG91dGZpbGUubWFlPic=

>  <r_lp_tautomer_probability>  (138) 
1

>  <r_epik_Ionization_Penalty>  (138) 
1.02625

>  <r_epik_Ionization_Penalty_Charging>  (138) 
0.985054

>  <r_epik_Ionization_Penalty_Neutral>  (138) 
0.0411906

>  <r_epik_State_Penalty>  (138) 
1.32794

>  <r_epik_Charging_Adjusted_Penalty>  (138) 
2.31299

>  <i_epik_Tot_Q>  (138) 
1

>  <i_epik_Tot_abs_Q>  (138) 
1

>  <s_lp_Force_Field>  (138) 
OPLS3e

>  <r_lp_Energy>  (138) 
53.5888

>  <b_lp_Chiralities_Consistent>  (138) 
1

>  <s_lp_Variant>  (138) 
28:0-2

>  <s_i_glide_gridfile>  (138) 
pfpi4k_grid

>  <i_i_glide_lignum>  (138) 
15

>  <i_i_glide_rotatable_bonds>  (138) 
4

>  <r_i_docking_score>  (138) 
-2.761

>  <r_i_glide_ligand_efficiency>  (138) 
-0.11044

>  <r_i_glide_ligand_efficiency_sa>  (138) 
-0.322928

>  <r_i_glide_ligand_efficiency_ln>  (138) 
-0.654439

>  <r_i_glide_gscore>  (138) 
-2.761

>  <r_i_glide_lipo>  (138) 
-0.513957

>  <r_i_glide_hbond>  (138) 
0

>  <r_i_glide_metal>  (138) 
-0

>  <r_i_glide_rewards>  (138) 
-1.10187

>  <r_i_glide_evdw>  (138) 
-21.8353

>  <r_i_glide_ecoul>  (138) 
-2.51245

>  <r_i_glide_erotb>  (138) 
0.323465

>  <r_i_glide_esite>  (138) 
0

>  <r_i_glide_emodel>  (138) 
-28.919

>  <r_i_glide_energy>  (138) 
-24.3478

>  <r_i_glide_einternal>  (138) 
1.06072

>  <r_i_glide_intrahb_reward>  (138) 
-0

>  <i_i_glide_confnum>  (138) 
6

>  <i_i_glide_posenum>  (138) 
32

>  <r_i_glide_eff_state_penalty>  (138) 
0

>  <ligand_id>  (138) 
28

>  <original_smiles>  (138) 
C=CCN1CCC23c4c5ccc(O)c4OC2C(=O)CCC3(OC)C1C5

>  <smiles>  (138) 
[H]Oc1c([H])c([H])c2c3c1OC1([H])C(=O)C([H])([H])C([H])([H])C4(OC([H])([H])[H])C31C([H])([H])C([H])([H])[N+]([H])(C([H])([H])C([H])=C([H])[H])C4([H])C2([H])[H]

$$$$
28:1:2
     RDKit          3D

 49 53  0  0  1  0  0  0  0  0999 V2000
    3.6483   -9.1900    1.7969 C   0  0  0  0  0  0  0  0  0  0  0  0
    3.4703   -7.9668    1.2739 C   0  0  0  0  0  0  0  0  0  0  0  0
    4.5090   -7.1784    0.4951 C   0  0  0  0  0  0  0  0  0  0  0  0
    4.7318   -5.7824    0.9946 N   0  0  1  0  0  0  0  0  0  0  0  0
    5.7110   -5.0487    0.1432 C   0  0  0  0  0  0  0  0  0  0  0  0
    5.9643   -3.6162    0.6453 C   0  0  0  0  0  0  0  0  0  0  0  0
    4.6429   -2.8387    0.8875 C   0  0  2  0  0  0  0  0  0  0  0  0
    3.8977   -2.7323   -0.4108 C   0  0  0  0  0  0  0  0  0  0  0  0
    3.0025   -3.6839   -0.9333 C   0  0  0  0  0  0  0  0  0  0  0  0
    2.5328   -3.4461   -2.2351 C   0  0  0  0  0  0  0  0  0  0  0  0
    2.9688   -2.2888   -2.9297 C   0  0  0  0  0  0  0  0  0  0  0  0
    3.8253   -1.3340   -2.3025 C   0  0  0  0  0  0  0  0  0  0  0  0
    4.2015   -0.2166   -2.9925 O   0  0  0  0  0  0  0  0  0  0  0  0
    4.2749   -1.5439   -0.9888 C   0  0  0  0  0  0  0  0  0  0  0  0
    5.0319   -0.7450   -0.1536 O   0  0  0  0  0  0  0  0  0  0  0  0
    4.9278   -1.3291    1.1633 C   0  0  1  0  0  0  0  0  0  0  0  0
    3.7709   -0.6467    1.9268 C   0  0  0  0  0  0  0  0  0  0  0  0
    3.4443    0.5114    1.7056 O   0  0  0  0  0  0  0  0  0  0  0  0
    3.0495   -1.4535    2.9995 C   0  0  0  0  0  0  0  0  0  0  0  0
    2.6178   -2.8101    2.4286 C   0  0  0  0  0  0  0  0  0  0  0  0
    3.8507   -3.6227    1.9570 C   0  0  2  0  0  0  0  0  0  0  0  0
    4.7219   -3.8216    3.0812 O   0  0  0  0  0  0  0  0  0  0  0  0
    4.2891   -4.6271    4.1748 C   0  0  0  0  0  0  0  0  0  0  0  0
    3.4962   -4.9794    1.2922 C   0  0  1  0  0  0  0  0  0  0  0  0
    2.6219   -4.8083    0.0263 C   0  0  0  0  0  0  0  0  0  0  0  0
    4.5677   -9.7482    1.6945 H   0  0  0  0  0  0  0  0  0  0  0  0
    2.8353   -9.6591    2.3368 H   0  0  0  0  0  0  0  0  0  0  0  0
    2.4885   -7.5401    1.3983 H   0  0  0  0  0  0  0  0  0  0  0  0
    5.4486   -7.7176    0.5227 H   0  0  0  0  0  0  0  0  0  0  0  0
    4.2159   -7.1671   -0.5541 H   0  0  0  0  0  0  0  0  0  0  0  0
    6.6482   -5.5933    0.1142 H   0  0  0  0  0  0  0  0  0  0  0  0
    5.3694   -5.0182   -0.8874 H   0  0  0  0  0  0  0  0  0  0  0  0
    6.5593   -3.6559    1.5580 H   0  0  0  0  0  0  0  0  0  0  0  0
    6.5878   -3.0887   -0.0707 H   0  0  0  0  0  0  0  0  0  0  0  0
    1.8433   -4.1385   -2.7188 H   0  0  0  0  0  0  0  0  0  0  0  0
    2.6319   -2.1255   -3.9420 H   0  0  0  0  0  0  0  0  0  0  0  0
    3.5300    0.0605   -3.5974 H   0  0  0  0  0  0  0  0  0  0  0  0
    5.8519   -1.1768    1.7217 H   0  0  0  0  0  0  0  0  0  0  0  0
    3.7160   -1.5815    3.8496 H   0  0  0  0  0  0  0  0  0  0  0  0
    2.1907   -0.8837    3.3588 H   0  0  0  0  0  0  0  0  0  0  0  0
    2.0202   -3.3469    3.1653 H   0  0  0  0  0  0  0  0  0  0  0  0
    1.9343   -2.6173    1.5997 H   0  0  0  0  0  0  0  0  0  0  0  0
    5.0647   -4.6031    4.9384 H   0  0  0  0  0  0  0  0  0  0  0  0
    4.1589   -5.6717    3.8927 H   0  0  0  0  0  0  0  0  0  0  0  0
    3.3737   -4.2675    4.6446 H   0  0  0  0  0  0  0  0  0  0  0  0
    2.9037   -5.5053    2.0305 H   0  0  0  0  0  0  0  0  0  0  0  0
    1.6121   -4.6241    0.3420 H   0  0  0  0  0  0  0  0  0  0  0  0
    2.5112   -5.7383   -0.5116 H   0  0  0  0  0  0  0  0  0  0  0  0
    5.1973   -5.8904    1.8890 H   0  0  0  0  0  0  0  0  0  0  0  0
  1  2  2  0
  1 26  1  0
  1 27  1  0
  2  3  1  0
  2 28  1  0
  3  4  1  0
  3 29  1  0
  3 30  1  0
  4 24  1  0
  4  5  1  0
  4 49  1  1
  5  6  1  0
  5 31  1  0
  5 32  1  0
  7  6  1  6
  6 33  1  0
  6 34  1  0
  7 16  1  0
  7 21  1  0
  7  8  1  0
  8 14  2  0
  8  9  1  0
  9 25  1  0
  9 10  2  0
 10 11  1  0
 10 35  1  0
 11 12  2  0
 11 36  1  0
 12 13  1  0
 12 14  1  0
 13 37  1  0
 14 15  1  0
 15 16  1  0
 16 17  1  0
 16 38  1  1
 17 18  2  0
 17 19  1  0
 19 20  1  0
 19 39  1  0
 19 40  1  0
 20 21  1  0
 20 41  1  0
 20 42  1  0
 21 22  1  1
 21 24  1  0
 22 23  1  0
 23 43  1  0
 23 44  1  0
 23 45  1  0
 24 25  1  0
 24 46  1  1
 25 47  1  0
 25 48  1  0
M  CHG  1   4   1
M  END
>  <i_m_ct_stereo_status>  (139) 
1

>  <s_m_source_file>  (139) 
/var/tmp/pbs.5076255.sched01/tmpmtrcy7mx/460f9z2a7c.sdf

>  <i_m_source_file_index>  (139) 
15

>  <i_lp_mmshare_version>  (139) 
48012

>  <i_f3d_flags>  (139) 
0

>  <s_epik_input>  (139) 
W0NIMl09W0NIXVtDSDJdTihbQ0gyXVtDSDJdMSlbQ0BIXShbQ0gyXTIpW0NAXTMoT1tDSDNdKVtDSDJdW0NIMl1DKD1PKVtDQEBIXTRPYzVjKFtPSF0pW2NIXVtjSF1jMmM1W0NAXTEzNA==

>  <s_epik_cmdline>  (139) 
J2VwaWtfcHl0aG9uJywgJy1waHQnLCAnMi4wJywgJy1waCcsICc3LjAnLCAnLXRuJywgJzgnLCAnLW1hJywgJzIwMCcsICctaW1hZScsICc8aW5maWxlLm1hZT4nLCAnLW9tYWUnLCAnPG91dGZpbGUubWFlPic=

>  <r_lp_tautomer_probability>  (139) 
1

>  <r_epik_Ionization_Penalty>  (139) 
1.02625

>  <r_epik_Ionization_Penalty_Charging>  (139) 
0.985054

>  <r_epik_Ionization_Penalty_Neutral>  (139) 
0.0411906

>  <r_epik_State_Penalty>  (139) 
1.32794

>  <r_epik_Charging_Adjusted_Penalty>  (139) 
2.31299

>  <i_epik_Tot_Q>  (139) 
1

>  <i_epik_Tot_abs_Q>  (139) 
1

>  <s_lp_Force_Field>  (139) 
OPLS3e

>  <r_lp_Energy>  (139) 
53.5888

>  <b_lp_Chiralities_Consistent>  (139) 
1

>  <s_lp_Variant>  (139) 
28:0-2

>  <s_i_glide_gridfile>  (139) 
pfpi4k_grid

>  <i_i_glide_lignum>  (139) 
15

>  <i_i_glide_rotatable_bonds>  (139) 
4

>  <r_i_docking_score>  (139) 
-2.67772

>  <r_i_glide_ligand_efficiency>  (139) 
-0.107109

>  <r_i_glide_ligand_efficiency_sa>  (139) 
-0.313188

>  <r_i_glide_ligand_efficiency_ln>  (139) 
-0.6347

>  <r_i_glide_gscore>  (139) 
-2.67772

>  <r_i_glide_lipo>  (139) 
-0.492318

>  <r_i_glide_hbond>  (139) 
0

>  <r_i_glide_metal>  (139) 
-0

>  <r_i_glide_rewards>  (139) 
-1.09294

>  <r_i_glide_evdw>  (139) 
-22.1791

>  <r_i_glide_ecoul>  (139) 
-2.04649

>  <r_i_glide_erotb>  (139) 
0.323465

>  <r_i_glide_esite>  (139) 
0

>  <r_i_glide_emodel>  (139) 
-27.754

>  <r_i_glide_energy>  (139) 
-24.2256

>  <r_i_glide_einternal>  (139) 
1.57651

>  <r_i_glide_intrahb_reward>  (139) 
-0

>  <i_i_glide_confnum>  (139) 
4

>  <i_i_glide_posenum>  (139) 
19

>  <r_i_glide_eff_state_penalty>  (139) 
0

>  <ligand_id>  (139) 
28

>  <original_smiles>  (139) 
C=CCN1CCC23c4c5ccc(O)c4OC2C(=O)CCC3(OC)C1C5

>  <smiles>  (139) 
[H]Oc1c([H])c([H])c2c3c1OC1([H])C(=O)C([H])([H])C([H])([H])C4(OC([H])([H])[H])C31C([H])([H])C([H])([H])[N+]([H])(C([H])([H])C([H])=C([H])[H])C4([H])C2([H])[H]

$$$$
29:0:0
     RDKit          3D

 81 89  0  0  1  0  0  0  0  0999 V2000
    1.9125   -4.7334    8.4984 C   0  0  0  0  0  0  0  0  0  0  0  0
    2.1468   -6.1272    8.3021 O   0  0  0  0  0  0  0  0  0  0  0  0
    2.4019   -6.6803    6.9933 C   0  0  2  0  0  0  0  0  0  0  0  0
    1.1589   -6.2996    6.0974 C   0  0  0  0  0  0  0  0  0  0  0  0
    0.8221   -7.2081    4.8965 C   0  0  0  0  0  0  0  0  0  0  0  0
    0.7985   -8.6491    5.2457 N   0  0  1  0  0  0  0  0  0  0  0  0
    0.3042   -9.5531    4.1682 C   0  0  0  0  0  0  0  0  0  0  0  0
   -1.0472   -9.1276    3.6138 C   0  0  0  0  0  0  0  0  0  0  0  0
   -1.5245   -9.6566    2.2751 C   0  0  0  0  0  0  0  0  0  0  0  0
   -1.1274   -8.2140    2.4080 C   0  0  0  0  0  0  0  0  0  0  0  0
    2.0383   -9.0992    5.9546 C   0  0  1  0  0  0  0  0  0  0  0  0
    3.2502   -9.4665    5.0387 C   0  0  0  0  0  0  0  0  0  0  0  0
    3.7089   -8.4195    4.0209 C   0  0  0  0  0  0  0  0  0  0  0  0
    3.3537   -8.5007    2.6590 C   0  0  0  0  0  0  0  0  0  0  0  0
    3.2804   -7.3360    1.8753 C   0  0  0  0  0  0  0  0  0  0  0  0
    3.4711   -6.0763    2.4642 C   0  0  0  0  0  0  0  0  0  0  0  0
    3.2471   -4.9529    1.7212 O   0  0  0  0  0  0  0  0  0  0  0  0
    3.8559   -5.9514    3.8150 C   0  0  0  0  0  0  0  0  0  0  0  0
    4.1287   -7.1562    4.5198 C   0  0  0  0  0  0  0  0  0  0  0  0
    4.8688   -6.8888    5.8497 C   0  0  1  0  0  0  0  0  0  0  0  0
    5.4218   -8.0887    6.7012 C   0  0  0  0  0  0  0  0  0  0  0  0
    4.8146   -8.3368    8.0832 C   0  0  0  0  0  0  0  0  0  0  0  0
    3.4060   -8.9071    8.1238 C   0  0  0  0  0  0  0  0  0  0  0  0
    2.2699   -8.2635    7.2744 C   0  0  1  0  0  0  0  0  0  0  0  0
    0.9667   -8.5263    8.1473 C   0  0  0  0  0  0  0  0  0  0  0  0
    0.7844   -9.8540    8.6259 O   0  0  0  0  0  0  0  0  0  0  0  0
    6.2269   -6.1226    5.4970 C   0  0  0  0  0  0  0  0  0  0  0  0
    6.8204   -5.1838    6.5762 C   0  0  0  0  0  0  0  0  0  0  0  0
    6.0979   -3.8730    6.6691 C   0  0  0  0  0  0  0  0  0  0  0  0
    4.7892   -3.6571    6.3221 C   0  0  0  0  0  0  0  0  0  0  0  0
    4.5009   -2.3120    6.4917 N   0  0  0  0  0  0  0  0  0  0  0  0
    5.5899   -1.6356    7.0030 C   0  0  0  0  0  0  0  0  0  0  0  0
    5.7849   -0.2893    7.3656 C   0  0  0  0  0  0  0  0  0  0  0  0
    7.0306    0.1189    7.8765 C   0  0  0  0  0  0  0  0  0  0  0  0
    8.0645   -0.8244    8.0236 C   0  0  0  0  0  0  0  0  0  0  0  0
    7.8542   -2.1704    7.6633 C   0  0  0  0  0  0  0  0  0  0  0  0
    6.6157   -2.6118    7.1366 C   0  0  0  0  0  0  0  0  0  0  0  0
    3.7622   -4.6379    5.8388 C   0  0  1  0  0  0  0  0  0  0  0  0
    3.9174   -4.7069    4.4088 O   0  0  0  0  0  0  0  0  0  0  0  0
    3.8273   -6.0166    6.5997 C   0  0  1  0  0  0  0  0  0  0  0  0
    3.6021   -1.9107    6.2745 H   0  0  0  0  0  0  0  0  0  0  0  0
    1.6458   -4.5821    9.5431 H   0  0  0  0  0  0  0  0  0  0  0  0
    1.0877   -4.3489    7.9004 H   0  0  0  0  0  0  0  0  0  0  0  0
    2.7976   -4.1252    8.3242 H   0  0  0  0  0  0  0  0  0  0  0  0
    0.2738   -6.2973    6.7373 H   0  0  0  0  0  0  0  0  0  0  0  0
    1.1754   -5.2840    5.7223 H   0  0  0  0  0  0  0  0  0  0  0  0
   -0.1743   -6.9090    4.5781 H   0  0  0  0  0  0  0  0  0  0  0  0
    1.4477   -7.0265    4.0331 H   0  0  0  0  0  0  0  0  0  0  0  0
    1.0022   -9.5993    3.3392 H   0  0  0  0  0  0  0  0  0  0  0  0
    0.2091  -10.5649    4.5620 H   0  0  0  0  0  0  0  0  0  0  0  0
   -1.8339   -9.0254    4.3628 H   0  0  0  0  0  0  0  0  0  0  0  0
   -0.8647  -10.3260    1.7269 H   0  0  0  0  0  0  0  0  0  0  0  0
   -2.5866   -9.8456    2.1393 H   0  0  0  0  0  0  0  0  0  0  0  0
   -1.9273   -7.4755    2.4076 H   0  0  0  0  0  0  0  0  0  0  0  0
   -0.1874   -7.8993    1.9560 H   0  0  0  0  0  0  0  0  0  0  0  0
    1.7565  -10.0881    6.3092 H   0  0  0  0  0  0  0  0  0  0  0  0
    4.0349   -9.9873    5.5672 H   0  0  0  0  0  0  0  0  0  0  0  0
    2.8978  -10.2844    4.4124 H   0  0  0  0  0  0  0  0  0  0  0  0
    3.0326   -9.4388    2.2271 H   0  0  0  0  0  0  0  0  0  0  0  0
    2.9601   -7.4012    0.8530 H   0  0  0  0  0  0  0  0  0  0  0  0
    3.5623   -4.1701    2.1482 H   0  0  0  0  0  0  0  0  0  0  0  0
    5.6330   -8.9806    6.1245 H   0  0  0  0  0  0  0  0  0  0  0  0
    6.4437   -7.8614    7.0050 H   0  0  0  0  0  0  0  0  0  0  0  0
    5.4551   -9.0505    8.6036 H   0  0  0  0  0  0  0  0  0  0  0  0
    4.8722   -7.4463    8.7073 H   0  0  0  0  0  0  0  0  0  0  0  0
    3.4607   -9.9737    7.9005 H   0  0  0  0  0  0  0  0  0  0  0  0
    3.1313   -8.8791    9.1799 H   0  0  0  0  0  0  0  0  0  0  0  0
    0.9539   -7.9218    9.0547 H   0  0  0  0  0  0  0  0  0  0  0  0
    0.0462   -8.2509    7.6351 H   0  0  0  0  0  0  0  0  0  0  0  0
    1.0255  -10.5215    7.9871 H   0  0  0  0  0  0  0  0  0  0  0  0
    6.9884   -6.8527    5.2117 H   0  0  0  0  0  0  0  0  0  0  0  0
    6.1730   -5.5191    4.5932 H   0  0  0  0  0  0  0  0  0  0  0  0
    6.8615   -5.6662    7.5514 H   0  0  0  0  0  0  0  0  0  0  0  0
    7.8574   -4.9803    6.3096 H   0  0  0  0  0  0  0  0  0  0  0  0
    4.9833    0.4212    7.2536 H   0  0  0  0  0  0  0  0  0  0  0  0
    7.1916    1.1508    8.1532 H   0  0  0  0  0  0  0  0  0  0  0  0
    9.0275   -0.5165    8.4046 H   0  0  0  0  0  0  0  0  0  0  0  0
    8.6570   -2.8819    7.7677 H   0  0  0  0  0  0  0  0  0  0  0  0
    2.8149   -4.1450    6.0206 H   0  0  0  0  0  0  0  0  0  0  0  0
    4.2881   -5.7760    7.5556 H   0  0  0  0  0  0  0  0  0  0  0  0
    0.0732   -8.7293    5.9458 H   0  0  0  0  0  0  0  0  0  0  0  0
  1  2  1  0
  1 42  1  0
  1 43  1  0
  1 44  1  0
  3  2  1  1
  3 24  1  0
  3 40  1  0
  3  4  1  0
  4  5  1  0
  4 45  1  0
  4 46  1  0
  5  6  1  0
  5 47  1  0
  5 48  1  0
  6  7  1  0
  6 11  1  0
  6 81  1  1
  7  8  1  0
  7 49  1  0
  7 50  1  0
  8 10  1  0
  8  9  1  0
  8 51  1  0
  9 10  1  0
  9 52  1  0
  9 53  1  0
 10 54  1  0
 10 55  1  0
 11 24  1  0
 11 12  1  0
 11 56  1  1
 12 13  1  0
 12 57  1  0
 12 58  1  0
 13 19  2  0
 13 14  1  0
 14 15  2  0
 14 59  1  0
 15 16  1  0
 15 60  1  0
 16 17  1  0
 16 18  2  0
 17 61  1  0
 18 39  1  0
 18 19  1  0
 19 20  1  0
 20 40  1  0
 20 21  1  1
 20 27  1  0
 21 22  1  0
 21 62  1  0
 21 63  1  0
 22 23  1  0
 22 64  1  0
 22 65  1  0
 23 24  1  0
 23 66  1  0
 23 67  1  0
 24 25  1  1
 25 26  1  0
 25 68  1  0
 25 69  1  0
 26 70  1  0
 27 28  1  0
 27 71  1  0
 27 72  1  0
 28 29  1  0
 28 73  1  0
 28 74  1  0
 29 37  1  0
 29 30  2  0
 30 31  1  0
 30 38  1  0
 31 41  1  0
 31 32  1  0
 32 37  2  0
 32 33  1  0
 33 34  2  0
 33 75  1  0
 34 35  1  0
 34 76  1  0
 35 36  2  0
 35 77  1  0
 36 37  1  0
 36 78  1  0
 38 39  1  0
 38 40  1  0
 38 79  1  6
 40 80  1  1
M  CHG  1   6   1
M  END
>  <i_m_ct_stereo_status>  (140) 
1

>  <s_m_source_file>  (140) 
/var/tmp/pbs.5076255.sched01/tmpmtrcy7mx/460f9z2a7c.sdf

>  <i_m_source_file_index>  (140) 
16

>  <i_lp_mmshare_version>  (140) 
48012

>  <i_f3d_flags>  (140) 
0

>  <s_epik_input>  (140) 
W0NIMl0xW0NIMl1bQ0hdMVtDSDJdTihbQ0gyXVtDSDJdMilbQ0BASF0oW0NIMl0zKVtDQEBdKFtDSDJdW09IXSkoW0NIMl1bQ0gyXVtDSDJdNClbQ0BAXTIoT1tDSDNdKVtDQEBIXTVbQ0BIXShPYzZjKFtPSF0pW2NIXVtjSF1jM2M2W0NAXTQ1NyljOGMoW0NIMl1bQ0gyXTcpYzljKFtuSF04KVtjSF1bY0hdW2NIXVtjSF05

>  <s_epik_cmdline>  (140) 
J2VwaWtfcHl0aG9uJywgJy1waHQnLCAnMi4wJywgJy1waCcsICc3LjAnLCAnLXRuJywgJzgnLCAnLW1hJywgJzIwMCcsICctaW1hZScsICc8aW5maWxlLm1hZT4nLCAnLW9tYWUnLCAnPG91dGZpbGUubWFlPic=

>  <r_lp_tautomer_probability>  (140) 
1

>  <r_epik_Ionization_Penalty>  (140) 
0.0117229

>  <r_epik_Ionization_Penalty_Charging>  (140) 
0.0111363

>  <r_epik_Ionization_Penalty_Neutral>  (140) 
0.000586576

>  <r_epik_State_Penalty>  (140) 
0.00855439

>  <r_epik_Charging_Adjusted_Penalty>  (140) 
0.0196907

>  <i_epik_Tot_Q>  (140) 
1

>  <i_epik_Tot_abs_Q>  (140) 
1

>  <s_lp_Force_Field>  (140) 
OPLS3e

>  <r_lp_Energy>  (140) 
145.624

>  <b_lp_Chiralities_Consistent>  (140) 
1

>  <s_lp_Variant>  (140) 
29:0-1

>  <s_i_glide_gridfile>  (140) 
pfpi4k_grid

>  <i_i_glide_lignum>  (140) 
16

>  <i_i_glide_rotatable_bonds>  (140) 
6

>  <r_i_docking_score>  (140) 
-2.42695

>  <r_i_glide_ligand_efficiency>  (140) 
-0.0606737

>  <r_i_glide_ligand_efficiency_sa>  (140) 
-0.207501

>  <r_i_glide_ligand_efficiency_ln>  (140) 
-0.517597

>  <r_i_glide_gscore>  (140) 
-2.42695

>  <r_i_glide_lipo>  (140) 
-0.459832

>  <r_i_glide_hbond>  (140) 
-0.145971

>  <r_i_glide_metal>  (140) 
-0

>  <r_i_glide_rewards>  (140) 
0

>  <r_i_glide_evdw>  (140) 
-19.9162

>  <r_i_glide_ecoul>  (140) 
-6.70748

>  <r_i_glide_erotb>  (140) 
0.211444

>  <r_i_glide_esite>  (140) 
-0.0306575

>  <r_i_glide_emodel>  (140) 
-31.9389

>  <r_i_glide_energy>  (140) 
-26.6237

>  <r_i_glide_einternal>  (140) 
1.22211

>  <r_i_glide_intrahb_reward>  (140) 
-0

>  <i_i_glide_confnum>  (140) 
1

>  <i_i_glide_posenum>  (140) 
14

>  <r_i_glide_eff_state_penalty>  (140) 
0

>  <ligand_id>  (140) 
29

>  <original_smiles>  (140) 
COC12CCN(CC3CC3)C3Cc4ccc(O)c5c4C4(CCCC31CO)CCc1c([nH]c3ccccc13)C(O5)C42

>  <smiles>  (140) 
[H]Oc1c([H])c([H])c2c3c1OC1([H])c4c(c5c([H])c([H])c([H])c([H])c5n4[H])C([H])([H])C([H])([H])C34C([H])([H])C([H])([H])C([H])([H])C3(C([H])([H])O[H])C(OC([H])([H])[H])(C([H])([H])C([H])([H])[N+]([H])(C([H])([H])C5([H])C([H])([H])C5([H])[H])C3([H])C2([H])[H])C14[H]

$$$$
29:0:1
     RDKit          3D

 81 89  0  0  1  0  0  0  0  0999 V2000
   -1.1564   -4.9663    6.8227 C   0  0  0  0  0  0  0  0  0  0  0  0
   -0.0992   -5.8048    7.2820 O   0  0  0  0  0  0  0  0  0  0  0  0
    0.8479   -6.3956    6.3661 C   0  0  2  0  0  0  0  0  0  0  0  0
    0.0159   -7.1577    5.2567 C   0  0  0  0  0  0  0  0  0  0  0  0
    0.6659   -8.3637    4.5647 C   0  0  0  0  0  0  0  0  0  0  0  0
    1.2993   -9.3183    5.5071 N   0  0  1  0  0  0  0  0  0  0  0  0
    1.7864  -10.5867    4.8923 C   0  0  0  0  0  0  0  0  0  0  0  0
    0.7444  -11.2538    4.0116 C   0  0  0  0  0  0  0  0  0  0  0  0
    1.1680  -12.1600    2.8783 C   0  0  0  0  0  0  0  0  0  0  0  0
    0.5942  -10.8136    2.5635 C   0  0  0  0  0  0  0  0  0  0  0  0
    2.2533   -8.6462    6.4459 C   0  0  1  0  0  0  0  0  0  0  0  0
    3.6957   -8.3860    5.8998 C   0  0  0  0  0  0  0  0  0  0  0  0
    3.8255   -7.6350    4.5724 C   0  0  0  0  0  0  0  0  0  0  0  0
    4.0678   -8.3032    3.3540 C   0  0  0  0  0  0  0  0  0  0  0  0
    3.6478   -7.7375    2.1357 C   0  0  0  0  0  0  0  0  0  0  0  0
    2.8910   -6.5501    2.1386 C   0  0  0  0  0  0  0  0  0  0  0  0
    2.3469   -6.0972    0.9696 O   0  0  0  0  0  0  0  0  0  0  0  0
    2.6484   -5.8388    3.3336 C   0  0  0  0  0  0  0  0  0  0  0  0
    3.2797   -6.3246    4.5127 C   0  0  0  0  0  0  0  0  0  0  0  0
    3.2407   -5.2880    5.6593 C   0  0  1  0  0  0  0  0  0  0  0  0
    4.0283   -5.5518    6.9937 C   0  0  0  0  0  0  0  0  0  0  0  0
    3.2247   -5.7307    8.2835 C   0  0  0  0  0  0  0  0  0  0  0  0
    2.4472   -7.0302    8.4389 C   0  0  0  0  0  0  0  0  0  0  0  0
    1.5180   -7.5340    7.2914 C   0  0  1  0  0  0  0  0  0  0  0  0
    0.3648   -8.3026    8.0686 C   0  0  0  0  0  0  0  0  0  0  0  0
    0.7969   -9.3528    8.9230 O   0  0  0  0  0  0  0  0  0  0  0  0
    3.9823   -3.9722    5.1353 C   0  0  0  0  0  0  0  0  0  0  0  0
    3.5525   -2.6169    5.7488 C   0  0  0  0  0  0  0  0  0  0  0  0
    2.2537   -2.1130    5.1954 C   0  0  0  0  0  0  0  0  0  0  0  0
    1.2515   -2.8928    4.6789 C   0  0  0  0  0  0  0  0  0  0  0  0
    0.2375   -2.0669    4.2202 N   0  0  0  0  0  0  0  0  0  0  0  0
    0.5270   -0.7421    4.4761 C   0  0  0  0  0  0  0  0  0  0  0  0
   -0.1873    0.4480    4.2344 C   0  0  0  0  0  0  0  0  0  0  0  0
    0.3676    1.6804    4.6249 C   0  0  0  0  0  0  0  0  0  0  0  0
    1.6270    1.7078    5.2528 C   0  0  0  0  0  0  0  0  0  0  0  0
    2.3353    0.5100    5.4822 C   0  0  0  0  0  0  0  0  0  0  0  0
    1.8048   -0.7461    5.1012 C   0  0  0  0  0  0  0  0  0  0  0  0
    1.1696   -4.3863    4.5775 C   0  0  1  0  0  0  0  0  0  0  0  0
    1.8107   -4.7421    3.3393 O   0  0  0  0  0  0  0  0  0  0  0  0
    1.7097   -5.1176    5.8640 C   0  0  1  0  0  0  0  0  0  0  0  0
   -0.5779   -2.4177    3.7439 H   0  0  0  0  0  0  0  0  0  0  0  0
   -1.7874   -4.7183    7.6747 H   0  0  0  0  0  0  0  0  0  0  0  0
   -1.7971   -5.4575    6.0950 H   0  0  0  0  0  0  0  0  0  0  0  0
   -0.8066   -4.0205    6.4135 H   0  0  0  0  0  0  0  0  0  0  0  0
   -0.9026   -7.5609    5.6820 H   0  0  0  0  0  0  0  0  0  0  0  0
   -0.3828   -6.5186    4.4804 H   0  0  0  0  0  0  0  0  0  0  0  0
   -0.1694   -8.8615    4.0778 H   0  0  0  0  0  0  0  0  0  0  0  0
    1.3400   -8.0837    3.7676 H   0  0  0  0  0  0  0  0  0  0  0  0
    2.6647  -10.4143    4.2796 H   0  0  0  0  0  0  0  0  0  0  0  0
    2.0746  -11.2893    5.6762 H   0  0  0  0  0  0  0  0  0  0  0  0
   -0.1567  -11.5687    4.5354 H   0  0  0  0  0  0  0  0  0  0  0  0
    2.2377  -12.2982    2.7222 H   0  0  0  0  0  0  0  0  0  0  0  0
    0.5357  -13.0052    2.6140 H   0  0  0  0  0  0  0  0  0  0  0  0
   -0.4119  -10.7748    2.1447 H   0  0  0  0  0  0  0  0  0  0  0  0
    1.2803  -10.0537    2.1916 H   0  0  0  0  0  0  0  0  0  0  0  0
    2.4741   -9.4361    7.1591 H   0  0  0  0  0  0  0  0  0  0  0  0
    4.3928   -8.1099    6.6781 H   0  0  0  0  0  0  0  0  0  0  0  0
    4.0925   -9.3731    5.6704 H   0  0  0  0  0  0  0  0  0  0  0  0
    4.4783   -9.3053    3.3501 H   0  0  0  0  0  0  0  0  0  0  0  0
    3.7981   -8.2915    1.2231 H   0  0  0  0  0  0  0  0  0  0  0  0
    2.6891   -6.5486    0.2131 H   0  0  0  0  0  0  0  0  0  0  0  0
    4.8778   -6.2141    6.8839 H   0  0  0  0  0  0  0  0  0  0  0  0
    4.5790   -4.6494    7.2596 H   0  0  0  0  0  0  0  0  0  0  0  0
    3.9256   -5.6828    9.1177 H   0  0  0  0  0  0  0  0  0  0  0  0
    2.5691   -4.8796    8.4613 H   0  0  0  0  0  0  0  0  0  0  0  0
    3.1491   -7.8209    8.7069 H   0  0  0  0  0  0  0  0  0  0  0  0
    1.8610   -6.8936    9.3490 H   0  0  0  0  0  0  0  0  0  0  0  0
   -0.1886   -7.6228    8.7172 H   0  0  0  0  0  0  0  0  0  0  0  0
   -0.3870   -8.7341    7.4091 H   0  0  0  0  0  0  0  0  0  0  0  0
    1.0608  -10.1138    8.4187 H   0  0  0  0  0  0  0  0  0  0  0  0
    5.0611   -4.0880    5.2670 H   0  0  0  0  0  0  0  0  0  0  0  0
    3.9208   -3.8287    4.0584 H   0  0  0  0  0  0  0  0  0  0  0  0
    3.5133   -2.6584    6.8366 H   0  0  0  0  0  0  0  0  0  0  0  0
    4.3239   -1.8828    5.5157 H   0  0  0  0  0  0  0  0  0  0  0  0
   -1.1472    0.4188    3.7469 H   0  0  0  0  0  0  0  0  0  0  0  0
   -0.1677    2.6008    4.4360 H   0  0  0  0  0  0  0  0  0  0  0  0
    2.0608    2.6504    5.5521 H   0  0  0  0  0  0  0  0  0  0  0  0
    3.2987    0.5423    5.9621 H   0  0  0  0  0  0  0  0  0  0  0  0
    0.1141   -4.5824    4.4383 H   0  0  0  0  0  0  0  0  0  0  0  0
    1.5959   -4.3802    6.6567 H   0  0  0  0  0  0  0  0  0  0  0  0
    0.5343   -9.6394    6.0884 H   0  0  0  0  0  0  0  0  0  0  0  0
  1  2  1  0
  1 42  1  0
  1 43  1  0
  1 44  1  0
  3  2  1  1
  3 24  1  0
  3 40  1  0
  3  4  1  0
  4  5  1  0
  4 45  1  0
  4 46  1  0
  5  6  1  0
  5 47  1  0
  5 48  1  0
  6  7  1  0
  6 11  1  0
  6 81  1  1
  7  8  1  0
  7 49  1  0
  7 50  1  0
  8 10  1  0
  8  9  1  0
  8 51  1  0
  9 10  1  0
  9 52  1  0
  9 53  1  0
 10 54  1  0
 10 55  1  0
 11 24  1  0
 11 12  1  0
 11 56  1  1
 12 13  1  0
 12 57  1  0
 12 58  1  0
 13 19  2  0
 13 14  1  0
 14 15  2  0
 14 59  1  0
 15 16  1  0
 15 60  1  0
 16 17  1  0
 16 18  2  0
 17 61  1  0
 18 39  1  0
 18 19  1  0
 19 20  1  0
 20 40  1  0
 20 21  1  1
 20 27  1  0
 21 22  1  0
 21 62  1  0
 21 63  1  0
 22 23  1  0
 22 64  1  0
 22 65  1  0
 23 24  1  0
 23 66  1  0
 23 67  1  0
 24 25  1  1
 25 26  1  0
 25 68  1  0
 25 69  1  0
 26 70  1  0
 27 28  1  0
 27 71  1  0
 27 72  1  0
 28 29  1  0
 28 73  1  0
 28 74  1  0
 29 37  1  0
 29 30  2  0
 30 31  1  0
 30 38  1  0
 31 41  1  0
 31 32  1  0
 32 37  2  0
 32 33  1  0
 33 34  2  0
 33 75  1  0
 34 35  1  0
 34 76  1  0
 35 36  2  0
 35 77  1  0
 36 37  1  0
 36 78  1  0
 38 39  1  0
 38 40  1  0
 38 79  1  6
 40 80  1  1
M  CHG  1   6   1
M  END
>  <i_m_ct_stereo_status>  (141) 
1

>  <s_m_source_file>  (141) 
/var/tmp/pbs.5076255.sched01/tmpmtrcy7mx/460f9z2a7c.sdf

>  <i_m_source_file_index>  (141) 
16

>  <i_lp_mmshare_version>  (141) 
48012

>  <i_f3d_flags>  (141) 
0

>  <s_epik_input>  (141) 
W0NIMl0xW0NIMl1bQ0hdMVtDSDJdTihbQ0gyXVtDSDJdMilbQ0BASF0oW0NIMl0zKVtDQEBdKFtDSDJdW09IXSkoW0NIMl1bQ0gyXVtDSDJdNClbQ0BAXTIoT1tDSDNdKVtDQEBIXTVbQ0BIXShPYzZjKFtPSF0pW2NIXVtjSF1jM2M2W0NAXTQ1NyljOGMoW0NIMl1bQ0gyXTcpYzljKFtuSF04KVtjSF1bY0hdW2NIXVtjSF05

>  <s_epik_cmdline>  (141) 
J2VwaWtfcHl0aG9uJywgJy1waHQnLCAnMi4wJywgJy1waCcsICc3LjAnLCAnLXRuJywgJzgnLCAnLW1hJywgJzIwMCcsICctaW1hZScsICc8aW5maWxlLm1hZT4nLCAnLW9tYWUnLCAnPG91dGZpbGUubWFlPic=

>  <r_lp_tautomer_probability>  (141) 
1

>  <r_epik_Ionization_Penalty>  (141) 
0.0117229

>  <r_epik_Ionization_Penalty_Charging>  (141) 
0.0111363

>  <r_epik_Ionization_Penalty_Neutral>  (141) 
0.000586576

>  <r_epik_State_Penalty>  (141) 
0.00855439

>  <r_epik_Charging_Adjusted_Penalty>  (141) 
0.0196907

>  <i_epik_Tot_Q>  (141) 
1

>  <i_epik_Tot_abs_Q>  (141) 
1

>  <s_lp_Force_Field>  (141) 
OPLS3e

>  <r_lp_Energy>  (141) 
145.624

>  <b_lp_Chiralities_Consistent>  (141) 
1

>  <s_lp_Variant>  (141) 
29:0-1

>  <s_i_glide_gridfile>  (141) 
pfpi4k_grid

>  <i_i_glide_lignum>  (141) 
16

>  <i_i_glide_rotatable_bonds>  (141) 
6

>  <r_i_docking_score>  (141) 
-2.31606

>  <r_i_glide_ligand_efficiency>  (141) 
-0.0579016

>  <r_i_glide_ligand_efficiency_sa>  (141) 
-0.198021

>  <r_i_glide_ligand_efficiency_ln>  (141) 
-0.493948

>  <r_i_glide_gscore>  (141) 
-2.31606

>  <r_i_glide_lipo>  (141) 
-0.213682

>  <r_i_glide_hbond>  (141) 
-0.037067

>  <r_i_glide_metal>  (141) 
-0

>  <r_i_glide_rewards>  (141) 
0

>  <r_i_glide_evdw>  (141) 
-21.7622

>  <r_i_glide_ecoul>  (141) 
-7.67525

>  <r_i_glide_erotb>  (141) 
0.211444

>  <r_i_glide_esite>  (141) 
-0.0373595

>  <r_i_glide_emodel>  (141) 
-34.3627

>  <r_i_glide_energy>  (141) 
-29.4375

>  <r_i_glide_einternal>  (141) 
1.36762

>  <r_i_glide_intrahb_reward>  (141) 
-0

>  <i_i_glide_confnum>  (141) 
1

>  <i_i_glide_posenum>  (141) 
13

>  <r_i_glide_eff_state_penalty>  (141) 
0

>  <ligand_id>  (141) 
29

>  <original_smiles>  (141) 
COC12CCN(CC3CC3)C3Cc4ccc(O)c5c4C4(CCCC31CO)CCc1c([nH]c3ccccc13)C(O5)C42

>  <smiles>  (141) 
[H]Oc1c([H])c([H])c2c3c1OC1([H])c4c(c5c([H])c([H])c([H])c([H])c5n4[H])C([H])([H])C([H])([H])C34C([H])([H])C([H])([H])C([H])([H])C3(C([H])([H])O[H])C(OC([H])([H])[H])(C([H])([H])C([H])([H])[N+]([H])(C([H])([H])C5([H])C([H])([H])C5([H])[H])C3([H])C2([H])[H])C14[H]

$$$$
29:0:2
     RDKit          3D

 81 89  0  0  1  0  0  0  0  0999 V2000
    2.5135   -5.6231    8.6448 C   0  0  0  0  0  0  0  0  0  0  0  0
    2.4832   -7.0179    8.3608 O   0  0  0  0  0  0  0  0  0  0  0  0
    2.6493   -7.5287    7.0267 C   0  0  2  0  0  0  0  0  0  0  0  0
    1.5430   -6.8477    6.1203 C   0  0  0  0  0  0  0  0  0  0  0  0
    1.0706   -7.6014    4.8543 C   0  0  0  0  0  0  0  0  0  0  0  0
    0.7454   -9.0230    5.1116 N   0  0  1  0  0  0  0  0  0  0  0  0
    0.1272   -9.7430    3.9602 C   0  0  0  0  0  0  0  0  0  0  0  0
   -1.1227   -9.0510    3.4298 C   0  0  0  0  0  0  0  0  0  0  0  0
   -1.7829   -9.5470    2.1609 C   0  0  0  0  0  0  0  0  0  0  0  0
   -1.0506   -8.2357    2.1514 C   0  0  0  0  0  0  0  0  0  0  0  0
    1.8454   -9.7460    5.8229 C   0  0  1  0  0  0  0  0  0  0  0  0
    2.9912  -10.3045    4.9109 C   0  0  0  0  0  0  0  0  0  0  0  0
    3.6903   -9.3160    3.9721 C   0  0  0  0  0  0  0  0  0  0  0  0
    3.3819   -9.2411    2.5960 C   0  0  0  0  0  0  0  0  0  0  0  0
    3.5765   -8.0385    1.8934 C   0  0  0  0  0  0  0  0  0  0  0  0
    3.9836   -6.8783    2.5748 C   0  0  0  0  0  0  0  0  0  0  0  0
    4.0077   -5.6855    1.9115 O   0  0  0  0  0  0  0  0  0  0  0  0
    4.3309   -6.9197    3.9407 C   0  0  0  0  0  0  0  0  0  0  0  0
    4.3335   -8.1983    4.5647 C   0  0  0  0  0  0  0  0  0  0  0  0
    5.0621   -8.1698    5.9279 C   0  0  1  0  0  0  0  0  0  0  0  0
    5.3328   -9.5083    6.7053 C   0  0  0  0  0  0  0  0  0  0  0  0
    4.6402   -9.7136    8.0522 C   0  0  0  0  0  0  0  0  0  0  0  0
    3.1499   -9.9983    8.0148 C   0  0  0  0  0  0  0  0  0  0  0  0
    2.1874   -9.0600    7.2143 C   0  0  1  0  0  0  0  0  0  0  0  0
    0.8070   -9.1336    8.0177 C   0  0  0  0  0  0  0  0  0  0  0  0
    0.7984   -8.8013    9.4002 O   0  0  0  0  0  0  0  0  0  0  0  0
    6.5587   -7.6720    5.6655 C   0  0  0  0  0  0  0  0  0  0  0  0
    7.2802   -6.9438    6.8263 C   0  0  0  0  0  0  0  0  0  0  0  0
    6.8348   -5.5225    6.9899 C   0  0  0  0  0  0  0  0  0  0  0  0
    5.6100   -5.0241    6.6269 C   0  0  0  0  0  0  0  0  0  0  0  0
    5.5892   -3.6623    6.8855 N   0  0  0  0  0  0  0  0  0  0  0  0
    6.7717   -3.2542    7.4660 C   0  0  0  0  0  0  0  0  0  0  0  0
    7.2175   -1.9998    7.9292 C   0  0  0  0  0  0  0  0  0  0  0  0
    8.4978   -1.8856    8.4984 C   0  0  0  0  0  0  0  0  0  0  0  0
    9.3181   -3.0245    8.5966 C   0  0  0  0  0  0  0  0  0  0  0  0
    8.8632   -4.2739    8.1245 C   0  0  0  0  0  0  0  0  0  0  0  0
    7.5797   -4.4216    7.5486 C   0  0  0  0  0  0  0  0  0  0  0  0
    4.4297   -5.7471    6.0499 C   0  0  1  0  0  0  0  0  0  0  0  0
    4.6213   -5.7556    4.6249 O   0  0  0  0  0  0  0  0  0  0  0  0
    4.1910   -7.1547    6.7119 C   0  0  1  0  0  0  0  0  0  0  0  0
    4.7940   -3.0789    6.6731 H   0  0  0  0  0  0  0  0  0  0  0  0
    2.2306   -5.5038    9.6873 H   0  0  0  0  0  0  0  0  0  0  0  0
    1.8033   -5.0443    8.0561 H   0  0  0  0  0  0  0  0  0  0  0  0
    3.5065   -5.1880    8.5492 H   0  0  0  0  0  0  0  0  0  0  0  0
    0.6562   -6.6835    6.7343 H   0  0  0  0  0  0  0  0  0  0  0  0
    1.7831   -5.8388    5.8032 H   0  0  0  0  0  0  0  0  0  0  0  0
    0.1652   -7.0977    4.5194 H   0  0  0  0  0  0  0  0  0  0  0  0
    1.7548   -7.5033    4.0219 H   0  0  0  0  0  0  0  0  0  0  0  0
    0.8239   -9.8566    3.1342 H   0  0  0  0  0  0  0  0  0  0  0  0
   -0.1600  -10.7485    4.2656 H   0  0  0  0  0  0  0  0  0  0  0  0
   -1.8228   -8.7129    4.1964 H   0  0  0  0  0  0  0  0  0  0  0  0
   -1.3237  -10.4053    1.6798 H   0  0  0  0  0  0  0  0  0  0  0  0
   -2.8672   -9.5002    2.0910 H   0  0  0  0  0  0  0  0  0  0  0  0
   -1.6524   -7.3308    2.0996 H   0  0  0  0  0  0  0  0  0  0  0  0
   -0.0963   -8.1962    1.6271 H   0  0  0  0  0  0  0  0  0  0  0  0
    1.3464  -10.6719    6.0912 H   0  0  0  0  0  0  0  0  0  0  0  0
    3.6328  -11.0121    5.4172 H   0  0  0  0  0  0  0  0  0  0  0  0
    2.5040  -10.9932    4.2220 H   0  0  0  0  0  0  0  0  0  0  0  0
    2.8974  -10.0667    2.0918 H   0  0  0  0  0  0  0  0  0  0  0  0
    3.2843   -7.9832    0.8621 H   0  0  0  0  0  0  0  0  0  0  0  0
    3.8180   -5.7673    0.9898 H   0  0  0  0  0  0  0  0  0  0  0  0
    5.3815  -10.3875    6.0738 H   0  0  0  0  0  0  0  0  0  0  0  0
    6.3672   -9.5115    7.0499 H   0  0  0  0  0  0  0  0  0  0  0  0
    5.1030  -10.5741    8.5349 H   0  0  0  0  0  0  0  0  0  0  0  0
    4.8451   -8.8955    8.7396 H   0  0  0  0  0  0  0  0  0  0  0  0
    3.0154  -11.0307    7.6943 H   0  0  0  0  0  0  0  0  0  0  0  0
    2.8727  -10.0367    9.0661 H   0  0  0  0  0  0  0  0  0  0  0  0
    0.0269   -8.5075    7.5866 H   0  0  0  0  0  0  0  0  0  0  0  0
    0.4055  -10.1457    7.9790 H   0  0  0  0  0  0  0  0  0  0  0  0
    1.4911   -9.2837    9.8297 H   0  0  0  0  0  0  0  0  0  0  0  0
    7.1690   -8.5222    5.3476 H   0  0  0  0  0  0  0  0  0  0  0  0
    6.6592   -7.0124    4.8057 H   0  0  0  0  0  0  0  0  0  0  0  0
    7.1873   -7.4862    7.7657 H   0  0  0  0  0  0  0  0  0  0  0  0
    8.3465   -6.9367    6.6017 H   0  0  0  0  0  0  0  0  0  0  0  0
    6.5750   -1.1400    7.8513 H   0  0  0  0  0  0  0  0  0  0  0  0
    8.8501   -0.9293    8.8579 H   0  0  0  0  0  0  0  0  0  0  0  0
   10.3061   -2.9454    9.0260 H   0  0  0  0  0  0  0  0  0  0  0  0
    9.5005   -5.1390    8.2032 H   0  0  0  0  0  0  0  0  0  0  0  0
    3.5936   -5.0862    6.2453 H   0  0  0  0  0  0  0  0  0  0  0  0
    4.6600   -7.0759    7.6898 H   0  0  0  0  0  0  0  0  0  0  0  0
   -0.0084   -9.0054    5.7828 H   0  0  0  0  0  0  0  0  0  0  0  0
  1  2  1  0
  1 42  1  0
  1 43  1  0
  1 44  1  0
  3  2  1  1
  3 24  1  0
  3 40  1  0
  3  4  1  0
  4  5  1  0
  4 45  1  0
  4 46  1  0
  5  6  1  0
  5 47  1  0
  5 48  1  0
  6  7  1  0
  6 11  1  0
  6 81  1  1
  7  8  1  0
  7 49  1  0
  7 50  1  0
  8 10  1  0
  8  9  1  0
  8 51  1  0
  9 10  1  0
  9 52  1  0
  9 53  1  0
 10 54  1  0
 10 55  1  0
 11 24  1  0
 11 12  1  0
 11 56  1  1
 12 13  1  0
 12 57  1  0
 12 58  1  0
 13 19  2  0
 13 14  1  0
 14 15  2  0
 14 59  1  0
 15 16  1  0
 15 60  1  0
 16 17  1  0
 16 18  2  0
 17 61  1  0
 18 39  1  0
 18 19  1  0
 19 20  1  0
 20 40  1  0
 20 21  1  1
 20 27  1  0
 21 22  1  0
 21 62  1  0
 21 63  1  0
 22 23  1  0
 22 64  1  0
 22 65  1  0
 23 24  1  0
 23 66  1  0
 23 67  1  0
 24 25  1  1
 25 26  1  0
 25 68  1  0
 25 69  1  0
 26 70  1  0
 27 28  1  0
 27 71  1  0
 27 72  1  0
 28 29  1  0
 28 73  1  0
 28 74  1  0
 29 37  1  0
 29 30  2  0
 30 31  1  0
 30 38  1  0
 31 41  1  0
 31 32  1  0
 32 37  2  0
 32 33  1  0
 33 34  2  0
 33 75  1  0
 34 35  1  0
 34 76  1  0
 35 36  2  0
 35 77  1  0
 36 37  1  0
 36 78  1  0
 38 39  1  0
 38 40  1  0
 38 79  1  6
 40 80  1  1
M  CHG  1   6   1
M  END
>  <i_m_ct_stereo_status>  (142) 
1

>  <s_m_source_file>  (142) 
/var/tmp/pbs.5076255.sched01/tmpmtrcy7mx/460f9z2a7c.sdf

>  <i_m_source_file_index>  (142) 
16

>  <i_lp_mmshare_version>  (142) 
48012

>  <i_f3d_flags>  (142) 
0

>  <s_epik_input>  (142) 
W0NIMl0xW0NIMl1bQ0hdMVtDSDJdTihbQ0gyXVtDSDJdMilbQ0BASF0oW0NIMl0zKVtDQEBdKFtDSDJdW09IXSkoW0NIMl1bQ0gyXVtDSDJdNClbQ0BAXTIoT1tDSDNdKVtDQEBIXTVbQ0BIXShPYzZjKFtPSF0pW2NIXVtjSF1jM2M2W0NAXTQ1NyljOGMoW0NIMl1bQ0gyXTcpYzljKFtuSF04KVtjSF1bY0hdW2NIXVtjSF05

>  <s_epik_cmdline>  (142) 
J2VwaWtfcHl0aG9uJywgJy1waHQnLCAnMi4wJywgJy1waCcsICc3LjAnLCAnLXRuJywgJzgnLCAnLW1hJywgJzIwMCcsICctaW1hZScsICc8aW5maWxlLm1hZT4nLCAnLW9tYWUnLCAnPG91dGZpbGUubWFlPic=

>  <r_lp_tautomer_probability>  (142) 
1

>  <r_epik_Ionization_Penalty>  (142) 
0.0117229

>  <r_epik_Ionization_Penalty_Charging>  (142) 
0.0111363

>  <r_epik_Ionization_Penalty_Neutral>  (142) 
0.000586576

>  <r_epik_State_Penalty>  (142) 
0.00855439

>  <r_epik_Charging_Adjusted_Penalty>  (142) 
0.0196907

>  <i_epik_Tot_Q>  (142) 
1

>  <i_epik_Tot_abs_Q>  (142) 
1

>  <s_lp_Force_Field>  (142) 
OPLS3e

>  <r_lp_Energy>  (142) 
145.624

>  <b_lp_Chiralities_Consistent>  (142) 
1

>  <s_lp_Variant>  (142) 
29:0-1

>  <s_i_glide_gridfile>  (142) 
pfpi4k_grid

>  <i_i_glide_lignum>  (142) 
16

>  <i_i_glide_rotatable_bonds>  (142) 
6

>  <r_i_docking_score>  (142) 
-2.22563

>  <r_i_glide_ligand_efficiency>  (142) 
-0.0556407

>  <r_i_glide_ligand_efficiency_sa>  (142) 
-0.190288

>  <r_i_glide_ligand_efficiency_ln>  (142) 
-0.474661

>  <r_i_glide_gscore>  (142) 
-2.22563

>  <r_i_glide_lipo>  (142) 
-0.425708

>  <r_i_glide_hbond>  (142) 
0

>  <r_i_glide_metal>  (142) 
-0

>  <r_i_glide_rewards>  (142) 
0

>  <r_i_glide_evdw>  (142) 
-22.877

>  <r_i_glide_ecoul>  (142) 
-5.52094

>  <r_i_glide_erotb>  (142) 
0.211444

>  <r_i_glide_esite>  (142) 
-0.0393689

>  <r_i_glide_emodel>  (142) 
-32.937

>  <r_i_glide_energy>  (142) 
-28.398

>  <r_i_glide_einternal>  (142) 
2.2277

>  <r_i_glide_intrahb_reward>  (142) 
-0

>  <i_i_glide_confnum>  (142) 
2

>  <i_i_glide_posenum>  (142) 
2

>  <r_i_glide_eff_state_penalty>  (142) 
0

>  <ligand_id>  (142) 
29

>  <original_smiles>  (142) 
COC12CCN(CC3CC3)C3Cc4ccc(O)c5c4C4(CCCC31CO)CCc1c([nH]c3ccccc13)C(O5)C42

>  <smiles>  (142) 
[H]Oc1c([H])c([H])c2c3c1OC1([H])c4c(c5c([H])c([H])c([H])c([H])c5n4[H])C([H])([H])C([H])([H])C34C([H])([H])C([H])([H])C([H])([H])C3(C([H])([H])O[H])C(OC([H])([H])[H])(C([H])([H])C([H])([H])[N+]([H])(C([H])([H])C5([H])C([H])([H])C5([H])[H])C3([H])C2([H])[H])C14[H]

$$$$
29:1:0
     RDKit          3D

 80 88  0  0  1  0  0  0  0  0999 V2000
    2.7893   -0.1834    3.2549 C   0  0  0  0  0  0  0  0  0  0  0  0
    3.2314   -0.8085    4.4715 O   0  0  0  0  0  0  0  0  0  0  0  0
    2.7574   -2.1230    4.8218 C   0  0  2  0  0  0  0  0  0  0  0  0
    1.1870   -2.0274    4.8957 C   0  0  0  0  0  0  0  0  0  0  0  0
    0.4786   -3.1467    5.6813 C   0  0  0  0  0  0  0  0  0  0  0  0
    1.0349   -3.4339    7.0014 N   0  0  0  0  0  0  0  0  0  0  0  0
    0.2850   -2.9394    8.1469 C   0  0  0  0  0  0  0  0  0  0  0  0
   -1.0219   -3.6861    8.2892 C   0  0  0  0  0  0  0  0  0  0  0  0
   -1.6676   -3.8879    9.6449 C   0  0  0  0  0  0  0  0  0  0  0  0
   -1.0515   -5.0567    8.9103 C   0  0  0  0  0  0  0  0  0  0  0  0
    2.5107   -3.4228    7.1154 C   0  0  1  0  0  0  0  0  0  0  0  0
    3.1006   -4.8532    7.0246 C   0  0  0  0  0  0  0  0  0  0  0  0
    2.5671   -5.7298    5.9116 C   0  0  0  0  0  0  0  0  0  0  0  0
    1.5251   -6.6470    6.1003 C   0  0  0  0  0  0  0  0  0  0  0  0
    0.6591   -7.0066    5.0435 C   0  0  0  0  0  0  0  0  0  0  0  0
    0.7713   -6.3493    3.8096 C   0  0  0  0  0  0  0  0  0  0  0  0
   -0.1550   -6.6137    2.8356 O   0  0  0  0  0  0  0  0  0  0  0  0
    1.8120   -5.4036    3.5405 C   0  0  0  0  0  0  0  0  0  0  0  0
    2.7775   -5.2480    4.5777 C   0  0  0  0  0  0  0  0  0  0  0  0
    4.0033   -4.4478    4.0765 C   0  0  1  0  0  0  0  0  0  0  0  0
    5.2824   -4.3094    4.9896 C   0  0  0  0  0  0  0  0  0  0  0  0
    5.6478   -2.9115    5.5170 C   0  0  0  0  0  0  0  0  0  0  0  0
    4.7558   -2.3153    6.5931 C   0  0  0  0  0  0  0  0  0  0  0  0
    3.2202   -2.2540    6.3633 C   0  0  1  0  0  0  0  0  0  0  0  0
    2.7983   -0.9440    7.1540 C   0  0  0  0  0  0  0  0  0  0  0  0
    3.2050   -0.9420    8.5292 O   0  0  0  0  0  0  0  0  0  0  0  0
    4.6348   -5.2575    2.8435 C   0  0  0  0  0  0  0  0  0  0  0  0
    5.3862   -4.4480    1.7606 C   0  0  0  0  0  0  0  0  0  0  0  0
    4.4746   -3.7217    0.8293 C   0  0  0  0  0  0  0  0  0  0  0  0
    3.2069   -3.2932    1.1319 C   0  0  0  0  0  0  0  0  0  0  0  0
    2.6648   -2.6938   -0.0073 N   0  0  0  0  0  0  0  0  0  0  0  0
    3.5658   -2.7057   -1.0480 C   0  0  0  0  0  0  0  0  0  0  0  0
    3.4888   -2.2036   -2.3550 C   0  0  0  0  0  0  0  0  0  0  0  0
    4.5984   -2.3296   -3.2156 C   0  0  0  0  0  0  0  0  0  0  0  0
    5.7711   -2.9685   -2.7376 C   0  0  0  0  0  0  0  0  0  0  0  0
    5.8320   -3.4454   -1.4129 C   0  0  0  0  0  0  0  0  0  0  0  0
    4.7235   -3.3445   -0.5336 C   0  0  0  0  0  0  0  0  0  0  0  0
    2.4629   -3.3767    2.4215 C   0  0  1  0  0  0  0  0  0  0  0  0
    1.8105   -4.6597    2.4075 O   0  0  0  0  0  0  0  0  0  0  0  0
    3.3765   -3.0823    3.6777 C   0  0  1  0  0  0  0  0  0  0  0  0
    1.7765   -2.2026   -0.0725 H   0  0  0  0  0  0  0  0  0  0  0  0
    3.2778    0.7868    3.1773 H   0  0  0  0  0  0  0  0  0  0  0  0
    1.7105   -0.0039    3.2446 H   0  0  0  0  0  0  0  0  0  0  0  0
    3.0610   -0.7364    2.3634 H   0  0  0  0  0  0  0  0  0  0  0  0
    0.9007   -1.0691    5.3084 H   0  0  0  0  0  0  0  0  0  0  0  0
    0.7083   -1.9788    3.9261 H   0  0  0  0  0  0  0  0  0  0  0  0
   -0.5627   -2.8380    5.7774 H   0  0  0  0  0  0  0  0  0  0  0  0
    0.4271   -4.0607    5.1131 H   0  0  0  0  0  0  0  0  0  0  0  0
    0.8494   -3.1060    9.0713 H   0  0  0  0  0  0  0  0  0  0  0  0
    0.0781   -1.8718    8.0910 H   0  0  0  0  0  0  0  0  0  0  0  0
   -1.7265   -3.5379    7.4648 H   0  0  0  0  0  0  0  0  0  0  0  0
   -1.1483   -3.5072   10.5215 H   0  0  0  0  0  0  0  0  0  0  0  0
   -2.7561   -3.8655    9.6970 H   0  0  0  0  0  0  0  0  0  0  0  0
   -1.7040   -5.7581    8.4116 H   0  0  0  0  0  0  0  0  0  0  0  0
   -0.1057   -5.4597    9.2729 H   0  0  0  0  0  0  0  0  0  0  0  0
    2.7044   -3.2431    8.1679 H   0  0  0  0  0  0  0  0  0  0  0  0
    4.1597   -4.9084    7.2253 H   0  0  0  0  0  0  0  0  0  0  0  0
    2.7171   -5.3503    7.9189 H   0  0  0  0  0  0  0  0  0  0  0  0
    1.3076   -7.0084    7.0950 H   0  0  0  0  0  0  0  0  0  0  0  0
   -0.1569   -7.6749    5.2386 H   0  0  0  0  0  0  0  0  0  0  0  0
   -0.6299   -7.3992    3.0232 H   0  0  0  0  0  0  0  0  0  0  0  0
    5.4040   -5.1205    5.6975 H   0  0  0  0  0  0  0  0  0  0  0  0
    6.1673   -4.5012    4.3804 H   0  0  0  0  0  0  0  0  0  0  0  0
    6.6475   -2.9918    5.9461 H   0  0  0  0  0  0  0  0  0  0  0  0
    5.7636   -2.2072    4.6982 H   0  0  0  0  0  0  0  0  0  0  0  0
    4.9653   -2.8317    7.5293 H   0  0  0  0  0  0  0  0  0  0  0  0
    5.1465   -1.3167    6.7548 H   0  0  0  0  0  0  0  0  0  0  0  0
    3.1989   -0.0386    6.6927 H   0  0  0  0  0  0  0  0  0  0  0  0
    1.7306   -0.7981    7.2007 H   0  0  0  0  0  0  0  0  0  0  0  0
    4.1271   -0.9027    8.5731 H   0  0  0  0  0  0  0  0  0  0  0  0
    5.2823   -6.0477    3.2285 H   0  0  0  0  0  0  0  0  0  0  0  0
    3.8943   -5.8503    2.2987 H   0  0  0  0  0  0  0  0  0  0  0  0
    6.1157   -3.7697    2.2004 H   0  0  0  0  0  0  0  0  0  0  0  0
    5.9748   -5.1595    1.1762 H   0  0  0  0  0  0  0  0  0  0  0  0
    2.5848   -1.7179   -2.6885 H   0  0  0  0  0  0  0  0  0  0  0  0
    4.5508   -1.9462   -4.2126 H   0  0  0  0  0  0  0  0  0  0  0  0
    6.6169   -3.0771   -3.3825 H   0  0  0  0  0  0  0  0  0  0  0  0
    6.7390   -3.8951   -1.0524 H   0  0  0  0  0  0  0  0  0  0  0  0
    1.6842   -2.6312    2.3284 H   0  0  0  0  0  0  0  0  0  0  0  0
    4.2107   -2.5057    3.2834 H   0  0  0  0  0  0  0  0  0  0  0  0
  1  2  1  0
  1 42  1  0
  1 43  1  0
  1 44  1  0
  3  2  1  6
  3 24  1  0
  3 40  1  0
  3  4  1  0
  4  5  1  0
  4 45  1  0
  4 46  1  0
  5  6  1  0
  5 47  1  0
  5 48  1  0
  6  7  1  0
  6 11  1  0
  7  8  1  0
  7 49  1  0
  7 50  1  0
  8 10  1  0
  8  9  1  0
  8 51  1  0
  9 10  1  0
  9 52  1  0
  9 53  1  0
 10 54  1  0
 10 55  1  0
 11 24  1  0
 11 12  1  0
 11 56  1  1
 12 13  1  0
 12 57  1  0
 12 58  1  0
 13 19  2  0
 13 14  1  0
 14 15  2  0
 14 59  1  0
 15 16  1  0
 15 60  1  0
 16 17  1  0
 16 18  2  0
 17 61  1  0
 18 39  1  0
 18 19  1  0
 19 20  1  0
 20 40  1  0
 20 21  1  1
 20 27  1  0
 21 22  1  0
 21 62  1  0
 21 63  1  0
 22 23  1  0
 22 64  1  0
 22 65  1  0
 23 24  1  0
 23 66  1  0
 23 67  1  0
 24 25  1  1
 25 26  1  0
 25 68  1  0
 25 69  1  0
 26 70  1  0
 27 28  1  0
 27 71  1  0
 27 72  1  0
 28 29  1  0
 28 73  1  0
 28 74  1  0
 29 37  1  0
 29 30  2  0
 30 31  1  0
 30 38  1  0
 31 41  1  0
 31 32  1  0
 32 37  2  0
 32 33  1  0
 33 34  2  0
 33 75  1  0
 34 35  1  0
 34 76  1  0
 35 36  2  0
 35 77  1  0
 36 37  1  0
 36 78  1  0
 38 39  1  0
 38 40  1  0
 38 79  1  6
 40 80  1  6
M  END
>  <i_m_ct_stereo_status>  (143) 
1

>  <s_m_source_file>  (143) 
/var/tmp/pbs.5076255.sched01/tmpmtrcy7mx/460f9z2a7c.sdf

>  <i_m_source_file_index>  (143) 
17

>  <i_lp_mmshare_version>  (143) 
48012

>  <i_f3d_flags>  (143) 
0

>  <s_epik_input>  (143) 
W0NIMl0xW0NIMl1bQ0hdMVtDSDJdTihbQ0gyXVtDSDJdMilbQ0BASF0oW0NIMl0zKVtDQEBdKFtDSDJdW09IXSkoW0NIMl1bQ0gyXVtDSDJdNClbQ0BAXTIoT1tDSDNdKVtDQEBIXTVbQ0BIXShPYzZjKFtPSF0pW2NIXVtjSF1jM2M2W0NAXTQ1NyljOGMoW0NIMl1bQ0gyXTcpYzljKFtuSF04KVtjSF1bY0hdW2NIXVtjSF05

>  <s_epik_cmdline>  (143) 
J2VwaWtfcHl0aG9uJywgJy1waHQnLCAnMi4wJywgJy1waCcsICc3LjAnLCAnLXRuJywgJzgnLCAnLW1hJywgJzIwMCcsICctaW1hZScsICc8aW5maWxlLm1hZT4nLCAnLW9tYWUnLCAnPG91dGZpbGUubWFlPic=

>  <r_lp_tautomer_probability>  (143) 
1

>  <r_epik_Ionization_Penalty>  (143) 
2.36027

>  <r_epik_Ionization_Penalty_Charging>  (143) 
0

>  <r_epik_Ionization_Penalty_Neutral>  (143) 
2.36027

>  <r_epik_State_Penalty>  (143) 
2.51516

>  <r_epik_Charging_Adjusted_Penalty>  (143) 
2.51516

>  <i_epik_Tot_Q>  (143) 
0

>  <i_epik_Tot_abs_Q>  (143) 
0

>  <s_lp_Force_Field>  (143) 
OPLS3e

>  <r_lp_Energy>  (143) 
141.78

>  <b_lp_Chiralities_Consistent>  (143) 
1

>  <s_lp_Variant>  (143) 
29:0-2

>  <s_i_glide_gridfile>  (143) 
pfpi4k_grid

>  <i_i_glide_lignum>  (143) 
17

>  <i_i_glide_rotatable_bonds>  (143) 
6

>  <r_i_docking_score>  (143) 
-2.43478

>  <r_i_glide_ligand_efficiency>  (143) 
-0.0608695

>  <r_i_glide_ligand_efficiency_sa>  (143) 
-0.208171

>  <r_i_glide_ligand_efficiency_ln>  (143) 
-0.519267

>  <r_i_glide_gscore>  (143) 
-2.43478

>  <r_i_glide_lipo>  (143) 
-0.509796

>  <r_i_glide_hbond>  (143) 
-0.16

>  <r_i_glide_metal>  (143) 
-0

>  <r_i_glide_rewards>  (143) 
0

>  <r_i_glide_evdw>  (143) 
-24.5064

>  <r_i_glide_ecoul>  (143) 
-4.59958

>  <r_i_glide_erotb>  (143) 
0.212172

>  <r_i_glide_esite>  (143) 
-0.0619017

>  <r_i_glide_emodel>  (143) 
-33.5166

>  <r_i_glide_energy>  (143) 
-29.106

>  <r_i_glide_einternal>  (143) 
1.19086

>  <r_i_glide_intrahb_reward>  (143) 
-0

>  <i_i_glide_confnum>  (143) 
2

>  <i_i_glide_posenum>  (143) 
28

>  <r_i_glide_eff_state_penalty>  (143) 
0

>  <ligand_id>  (143) 
29

>  <original_smiles>  (143) 
COC12CCN(CC3CC3)C3Cc4ccc(O)c5c4C4(CCCC31CO)CCc1c([nH]c3ccccc13)C(O5)C42

>  <smiles>  (143) 
[H]Oc1c([H])c([H])c2c3c1OC1([H])c4c(c5c([H])c([H])c([H])c([H])c5n4[H])C([H])([H])C([H])([H])C34C([H])([H])C([H])([H])C([H])([H])C3(C([H])([H])O[H])C([H])(N(C([H])([H])C5([H])C([H])([H])C5([H])[H])C([H])([H])C([H])([H])C3(OC([H])([H])[H])C14[H])C2([H])[H]

$$$$
29:1:1
     RDKit          3D

 80 88  0  0  1  0  0  0  0  0999 V2000
    2.9196   -2.1796    6.0599 C   0  0  0  0  0  0  0  0  0  0  0  0
    3.5556   -3.3858    5.6173 O   0  0  0  0  0  0  0  0  0  0  0  0
    2.8388   -4.6370    5.4497 C   0  0  2  0  0  0  0  0  0  0  0  0
    1.2754   -4.4210    5.5682 C   0  0  0  0  0  0  0  0  0  0  0  0
    0.4053   -5.6654    5.7689 C   0  0  0  0  0  0  0  0  0  0  0  0
    0.8997   -6.5736    6.8013 N   0  0  0  0  0  0  0  0  0  0  0  0
    0.1871   -6.5629    8.0842 C   0  0  0  0  0  0  0  0  0  0  0  0
    0.0185   -7.9784    8.5942 C   0  0  0  0  0  0  0  0  0  0  0  0
   -0.1862   -8.2424   10.0747 C   0  0  0  0  0  0  0  0  0  0  0  0
    1.0974   -8.6581    9.4156 C   0  0  0  0  0  0  0  0  0  0  0  0
    2.3508   -6.8120    6.8480 C   0  0  1  0  0  0  0  0  0  0  0  0
    2.7507   -8.1120    6.1126 C   0  0  0  0  0  0  0  0  0  0  0  0
    2.1497   -8.2952    4.7267 C   0  0  0  0  0  0  0  0  0  0  0  0
    0.9763   -9.0447    4.5190 C   0  0  0  0  0  0  0  0  0  0  0  0
    0.1111   -8.7470    3.4460 C   0  0  0  0  0  0  0  0  0  0  0  0
    0.3631   -7.6042    2.6523 C   0  0  0  0  0  0  0  0  0  0  0  0
   -0.5576   -7.2334    1.7214 O   0  0  0  0  0  0  0  0  0  0  0  0
    1.5191   -6.8281    2.8252 C   0  0  0  0  0  0  0  0  0  0  0  0
    2.4687   -7.2863    3.7756 C   0  0  0  0  0  0  0  0  0  0  0  0
    3.8053   -6.5224    3.6580 C   0  0  1  0  0  0  0  0  0  0  0  0
    5.0564   -6.9939    4.4866 C   0  0  0  0  0  0  0  0  0  0  0  0
    5.5982   -6.0625    5.5782 C   0  0  0  0  0  0  0  0  0  0  0  0
    4.7560   -5.9087    6.8357 C   0  0  0  0  0  0  0  0  0  0  0  0
    3.2466   -5.5286    6.7202 C   0  0  1  0  0  0  0  0  0  0  0  0
    3.0014   -4.7209    8.0586 C   0  0  0  0  0  0  0  0  0  0  0  0
    3.3352   -5.4097    9.2519 O   0  0  0  0  0  0  0  0  0  0  0  0
    4.3519   -6.7609    2.1684 C   0  0  0  0  0  0  0  0  0  0  0  0
    5.2576   -5.6708    1.5451 C   0  0  0  0  0  0  0  0  0  0  0  0
    4.4926   -4.4727    1.0803 C   0  0  0  0  0  0  0  0  0  0  0  0
    3.2952   -4.0448    1.5892 C   0  0  0  0  0  0  0  0  0  0  0  0
    2.8750   -2.9441    0.8589 N   0  0  0  0  0  0  0  0  0  0  0  0
    3.8032   -2.6011   -0.0985 C   0  0  0  0  0  0  0  0  0  0  0  0
    3.8478   -1.5551   -1.0453 C   0  0  0  0  0  0  0  0  0  0  0  0
    4.9650   -1.4333   -1.8947 C   0  0  0  0  0  0  0  0  0  0  0  0
    6.0156   -2.3611   -1.7904 C   0  0  0  0  0  0  0  0  0  0  0  0
    5.9553   -3.4055   -0.8416 C   0  0  0  0  0  0  0  0  0  0  0  0
    4.8471   -3.5508    0.0276 C   0  0  0  0  0  0  0  0  0  0  0  0
    2.4936   -4.5990    2.7343 C   0  0  1  0  0  0  0  0  0  0  0  0
    1.6626   -5.6133    2.1463 O   0  0  0  0  0  0  0  0  0  0  0  0
    3.3767   -5.0460    3.9603 C   0  0  1  0  0  0  0  0  0  0  0  0
    2.0097   -2.4537    1.0225 H   0  0  0  0  0  0  0  0  0  0  0  0
    3.6680   -1.3929    6.1665 H   0  0  0  0  0  0  0  0  0  0  0  0
    2.4466   -2.2678    7.0391 H   0  0  0  0  0  0  0  0  0  0  0  0
    2.1651   -1.8370    5.3496 H   0  0  0  0  0  0  0  0  0  0  0  0
    1.0022   -3.8086    6.4225 H   0  0  0  0  0  0  0  0  0  0  0  0
    0.8708   -3.8404    4.7459 H   0  0  0  0  0  0  0  0  0  0  0  0
   -0.5855   -5.3062    6.0402 H   0  0  0  0  0  0  0  0  0  0  0  0
    0.2542   -6.2031    4.8458 H   0  0  0  0  0  0  0  0  0  0  0  0
    0.6889   -5.9675    8.8458 H   0  0  0  0  0  0  0  0  0  0  0  0
   -0.8154   -6.1433    7.9812 H   0  0  0  0  0  0  0  0  0  0  0  0
   -0.5483   -8.6230    7.9192 H   0  0  0  0  0  0  0  0  0  0  0  0
   -0.1499   -7.3834   10.7447 H   0  0  0  0  0  0  0  0  0  0  0  0
   -0.8612   -9.0382   10.3719 H   0  0  0  0  0  0  0  0  0  0  0  0
    1.2595   -9.7145    9.2137 H   0  0  0  0  0  0  0  0  0  0  0  0
    1.9832   -8.0877    9.6889 H   0  0  0  0  0  0  0  0  0  0  0  0
    2.5544   -7.1460    7.8529 H   0  0  0  0  0  0  0  0  0  0  0  0
    3.7853   -8.3945    6.2280 H   0  0  0  0  0  0  0  0  0  0  0  0
    2.2732   -8.8961    6.6869 H   0  0  0  0  0  0  0  0  0  0  0  0
    0.6681   -9.7787    5.2443 H   0  0  0  0  0  0  0  0  0  0  0  0
   -0.8050   -9.3088    3.3506 H   0  0  0  0  0  0  0  0  0  0  0  0
   -1.1387   -7.9517    1.5200 H   0  0  0  0  0  0  0  0  0  0  0  0
    5.0420   -8.0505    4.7373 H   0  0  0  0  0  0  0  0  0  0  0  0
    5.9272   -7.0079    3.8274 H   0  0  0  0  0  0  0  0  0  0  0  0
    6.5685   -6.4589    5.8861 H   0  0  0  0  0  0  0  0  0  0  0  0
    5.8393   -5.0831    5.1665 H   0  0  0  0  0  0  0  0  0  0  0  0
    4.8608   -6.8176    7.4264 H   0  0  0  0  0  0  0  0  0  0  0  0
    5.2802   -5.1585    7.4262 H   0  0  0  0  0  0  0  0  0  0  0  0
    3.6064   -3.8163    8.0852 H   0  0  0  0  0  0  0  0  0  0  0  0
    1.9676   -4.4069    8.1753 H   0  0  0  0  0  0  0  0  0  0  0  0
    4.2757   -5.5214    9.2768 H   0  0  0  0  0  0  0  0  0  0  0  0
    4.8721   -7.7226    2.1332 H   0  0  0  0  0  0  0  0  0  0  0  0
    3.5627   -6.9350    1.4398 H   0  0  0  0  0  0  0  0  0  0  0  0
    6.0549   -5.3765    2.2226 H   0  0  0  0  0  0  0  0  0  0  0  0
    5.7547   -6.1161    0.6850 H   0  0  0  0  0  0  0  0  0  0  0  0
    3.0206   -0.8722   -1.1015 H   0  0  0  0  0  0  0  0  0  0  0  0
    4.9932   -0.6287   -2.6190 H   0  0  0  0  0  0  0  0  0  0  0  0
    6.8763   -2.2978   -2.4392 H   0  0  0  0  0  0  0  0  0  0  0  0
    6.7672   -4.1039   -0.7550 H   0  0  0  0  0  0  0  0  0  0  0  0
    1.8410   -3.7804    3.0118 H   0  0  0  0  0  0  0  0  0  0  0  0
    4.2905   -4.4666    3.8414 H   0  0  0  0  0  0  0  0  0  0  0  0
  1  2  1  0
  1 42  1  0
  1 43  1  0
  1 44  1  0
  3  2  1  1
  3 24  1  0
  3 40  1  0
  3  4  1  0
  4  5  1  0
  4 45  1  0
  4 46  1  0
  5  6  1  0
  5 47  1  0
  5 48  1  0
  6  7  1  0
  6 11  1  0
  7  8  1  0
  7 49  1  0
  7 50  1  0
  8 10  1  0
  8  9  1  0
  8 51  1  0
  9 10  1  0
  9 52  1  0
  9 53  1  0
 10 54  1  0
 10 55  1  0
 11 24  1  0
 11 12  1  0
 11 56  1  1
 12 13  1  0
 12 57  1  0
 12 58  1  0
 13 19  2  0
 13 14  1  0
 14 15  2  0
 14 59  1  0
 15 16  1  0
 15 60  1  0
 16 17  1  0
 16 18  2  0
 17 61  1  0
 18 39  1  0
 18 19  1  0
 19 20  1  0
 20 40  1  0
 20 21  1  1
 20 27  1  0
 21 22  1  0
 21 62  1  0
 21 63  1  0
 22 23  1  0
 22 64  1  0
 22 65  1  0
 23 24  1  0
 23 66  1  0
 23 67  1  0
 24 25  1  1
 25 26  1  0
 25 68  1  0
 25 69  1  0
 26 70  1  0
 27 28  1  0
 27 71  1  0
 27 72  1  0
 28 29  1  0
 28 73  1  0
 28 74  1  0
 29 37  1  0
 29 30  2  0
 30 31  1  0
 30 38  1  0
 31 41  1  0
 31 32  1  0
 32 37  2  0
 32 33  1  0
 33 34  2  0
 33 75  1  0
 34 35  1  0
 34 76  1  0
 35 36  2  0
 35 77  1  0
 36 37  1  0
 36 78  1  0
 38 39  1  0
 38 40  1  0
 38 79  1  1
 40 80  1  6
M  END
>  <i_m_ct_stereo_status>  (144) 
1

>  <s_m_source_file>  (144) 
/var/tmp/pbs.5076255.sched01/tmpmtrcy7mx/460f9z2a7c.sdf

>  <i_m_source_file_index>  (144) 
17

>  <i_lp_mmshare_version>  (144) 
48012

>  <i_f3d_flags>  (144) 
0

>  <s_epik_input>  (144) 
W0NIMl0xW0NIMl1bQ0hdMVtDSDJdTihbQ0gyXVtDSDJdMilbQ0BASF0oW0NIMl0zKVtDQEBdKFtDSDJdW09IXSkoW0NIMl1bQ0gyXVtDSDJdNClbQ0BAXTIoT1tDSDNdKVtDQEBIXTVbQ0BIXShPYzZjKFtPSF0pW2NIXVtjSF1jM2M2W0NAXTQ1NyljOGMoW0NIMl1bQ0gyXTcpYzljKFtuSF04KVtjSF1bY0hdW2NIXVtjSF05

>  <s_epik_cmdline>  (144) 
J2VwaWtfcHl0aG9uJywgJy1waHQnLCAnMi4wJywgJy1waCcsICc3LjAnLCAnLXRuJywgJzgnLCAnLW1hJywgJzIwMCcsICctaW1hZScsICc8aW5maWxlLm1hZT4nLCAnLW9tYWUnLCAnPG91dGZpbGUubWFlPic=

>  <r_lp_tautomer_probability>  (144) 
1

>  <r_epik_Ionization_Penalty>  (144) 
2.36027

>  <r_epik_Ionization_Penalty_Charging>  (144) 
0

>  <r_epik_Ionization_Penalty_Neutral>  (144) 
2.36027

>  <r_epik_State_Penalty>  (144) 
2.51516

>  <r_epik_Charging_Adjusted_Penalty>  (144) 
2.51516

>  <i_epik_Tot_Q>  (144) 
0

>  <i_epik_Tot_abs_Q>  (144) 
0

>  <s_lp_Force_Field>  (144) 
OPLS3e

>  <r_lp_Energy>  (144) 
141.78

>  <b_lp_Chiralities_Consistent>  (144) 
1

>  <s_lp_Variant>  (144) 
29:0-2

>  <s_i_glide_gridfile>  (144) 
pfpi4k_grid

>  <i_i_glide_lignum>  (144) 
17

>  <i_i_glide_rotatable_bonds>  (144) 
6

>  <r_i_docking_score>  (144) 
-2.09067

>  <r_i_glide_ligand_efficiency>  (144) 
-0.0522669

>  <r_i_glide_ligand_efficiency_sa>  (144) 
-0.17875

>  <r_i_glide_ligand_efficiency_ln>  (144) 
-0.445879

>  <r_i_glide_gscore>  (144) 
-2.09067

>  <r_i_glide_lipo>  (144) 
-0.235456

>  <r_i_glide_hbond>  (144) 
-0.000272402

>  <r_i_glide_metal>  (144) 
-0

>  <r_i_glide_rewards>  (144) 
0

>  <r_i_glide_evdw>  (144) 
-27.8124

>  <r_i_glide_ecoul>  (144) 
-4.33531

>  <r_i_glide_erotb>  (144) 
0.212172

>  <r_i_glide_esite>  (144) 
-0.0262021

>  <r_i_glide_emodel>  (144) 
-32.0993

>  <r_i_glide_energy>  (144) 
-32.1477

>  <r_i_glide_einternal>  (144) 
7.00838

>  <r_i_glide_intrahb_reward>  (144) 
-0

>  <i_i_glide_confnum>  (144) 
6

>  <i_i_glide_posenum>  (144) 
20

>  <r_i_glide_eff_state_penalty>  (144) 
0

>  <ligand_id>  (144) 
29

>  <original_smiles>  (144) 
COC12CCN(CC3CC3)C3Cc4ccc(O)c5c4C4(CCCC31CO)CCc1c([nH]c3ccccc13)C(O5)C42

>  <smiles>  (144) 
[H]Oc1c([H])c([H])c2c3c1OC1([H])c4c(c5c([H])c([H])c([H])c([H])c5n4[H])C([H])([H])C([H])([H])C34C([H])([H])C([H])([H])C([H])([H])C3(C([H])([H])O[H])C([H])(N(C([H])([H])C5([H])C([H])([H])C5([H])[H])C([H])([H])C([H])([H])C3(OC([H])([H])[H])C14[H])C2([H])[H]

$$$$
29:1:2
     RDKit          3D

 80 88  0  0  1  0  0  0  0  0999 V2000
   -0.1875   -3.4094    6.3628 C   0  0  0  0  0  0  0  0  0  0  0  0
    0.6426   -4.5152    6.7317 O   0  0  0  0  0  0  0  0  0  0  0  0
    1.3599   -5.2626    5.7244 C   0  0  2  0  0  0  0  0  0  0  0  0
    0.2740   -5.9626    4.8255 C   0  0  0  0  0  0  0  0  0  0  0  0
    0.7550   -7.1645    3.9779 C   0  0  0  0  0  0  0  0  0  0  0  0
    1.5504   -8.1434    4.7146 N   0  0  0  0  0  0  0  0  0  0  0  0
    0.8758   -9.4079    5.0200 C   0  0  0  0  0  0  0  0  0  0  0  0
    1.0503  -10.3826    3.8778 C   0  0  0  0  0  0  0  0  0  0  0  0
    0.6675  -11.8371    4.0604 C   0  0  0  0  0  0  0  0  0  0  0  0
    2.1195  -11.4538    3.9375 C   0  0  0  0  0  0  0  0  0  0  0  0
    2.5357   -7.6359    5.6838 C   0  0  1  0  0  0  0  0  0  0  0  0
    3.9611   -7.5526    5.0837 C   0  0  0  0  0  0  0  0  0  0  0  0
    4.0815   -6.9170    3.7175 C   0  0  0  0  0  0  0  0  0  0  0  0
    4.1089   -7.6812    2.5400 C   0  0  0  0  0  0  0  0  0  0  0  0
    3.6343   -7.1564    1.3233 C   0  0  0  0  0  0  0  0  0  0  0  0
    3.0081   -5.8967    1.3006 C   0  0  0  0  0  0  0  0  0  0  0  0
    2.4023   -5.4536    0.1576 O   0  0  0  0  0  0  0  0  0  0  0  0
    2.9543   -5.0715    2.4586 C   0  0  0  0  0  0  0  0  0  0  0  0
    3.6428   -5.5654    3.6076 C   0  0  0  0  0  0  0  0  0  0  0  0
    3.7791   -4.4700    4.6912 C   0  0  1  0  0  0  0  0  0  0  0  0
    4.6542   -4.7290    5.9744 C   0  0  0  0  0  0  0  0  0  0  0  0
    3.9465   -4.8099    7.3360 C   0  0  0  0  0  0  0  0  0  0  0  0
    3.0965   -6.0442    7.6066 C   0  0  0  0  0  0  0  0  0  0  0  0
    2.0055   -6.4680    6.5783 C   0  0  1  0  0  0  0  0  0  0  0  0
    0.8919   -7.1482    7.4834 C   0  0  0  0  0  0  0  0  0  0  0  0
    1.3802   -8.1643    8.3566 O   0  0  0  0  0  0  0  0  0  0  0  0
    4.5817   -3.2464    4.0374 C   0  0  0  0  0  0  0  0  0  0  0  0
    4.3073   -1.8249    4.5903 C   0  0  0  0  0  0  0  0  0  0  0  0
    3.0166   -1.2434    4.0995 C   0  0  0  0  0  0  0  0  0  0  0  0
    1.9241   -1.9648    3.7111 C   0  0  0  0  0  0  0  0  0  0  0  0
    0.9432   -1.0822    3.2726 N   0  0  0  0  0  0  0  0  0  0  0  0
    1.3568    0.2270    3.4098 C   0  0  0  0  0  0  0  0  0  0  0  0
    0.7320    1.4560    3.1383 C   0  0  0  0  0  0  0  0  0  0  0  0
    1.4071    2.6640    3.3978 C   0  0  0  0  0  0  0  0  0  0  0  0
    2.7141    2.6188    3.9404 C   0  0  0  0  0  0  0  0  0  0  0  0
    3.3344    1.3771    4.2009 C   0  0  0  0  0  0  0  0  0  0  0  0
    2.6756    0.1469    3.9449 C   0  0  0  0  0  0  0  0  0  0  0  0
    1.7077   -3.4461    3.7233 C   0  0  1  0  0  0  0  0  0  0  0  0
    2.2187   -3.9208    2.4653 O   0  0  0  0  0  0  0  0  0  0  0  0
    2.2988   -4.1463    5.0080 C   0  0  1  0  0  0  0  0  0  0  0  0
    0.0637   -1.3839    2.8871 H   0  0  0  0  0  0  0  0  0  0  0  0
   -0.6399   -2.9960    7.2652 H   0  0  0  0  0  0  0  0  0  0  0  0
   -0.9853   -3.7065    5.6868 H   0  0  0  0  0  0  0  0  0  0  0  0
    0.3466   -2.5778    5.9048 H   0  0  0  0  0  0  0  0  0  0  0  0
   -0.5561   -6.2833    5.4476 H   0  0  0  0  0  0  0  0  0  0  0  0
   -0.2318   -5.2818    4.1527 H   0  0  0  0  0  0  0  0  0  0  0  0
   -0.1201   -7.6626    3.5555 H   0  0  0  0  0  0  0  0  0  0  0  0
    1.3124   -6.8371    3.1145 H   0  0  0  0  0  0  0  0  0  0  0  0
    1.2819   -9.8800    5.9169 H   0  0  0  0  0  0  0  0  0  0  0  0
   -0.1904   -9.2650    5.2083 H   0  0  0  0  0  0  0  0  0  0  0  0
    0.8308   -9.9710    2.8884 H   0  0  0  0  0  0  0  0  0  0  0  0
    0.3004  -12.1368    5.0425 H   0  0  0  0  0  0  0  0  0  0  0  0
    0.2318  -12.3649    3.2188 H   0  0  0  0  0  0  0  0  0  0  0  0
    2.6281  -11.7147    3.0137 H   0  0  0  0  0  0  0  0  0  0  0  0
    2.7326  -11.4966    4.8384 H   0  0  0  0  0  0  0  0  0  0  0  0
    2.7084   -8.4595    6.3658 H   0  0  0  0  0  0  0  0  0  0  0  0
    4.7299   -7.3018    5.8024 H   0  0  0  0  0  0  0  0  0  0  0  0
    4.2191   -8.5949    4.8925 H   0  0  0  0  0  0  0  0  0  0  0  0
    4.3809   -8.7268    2.5836 H   0  0  0  0  0  0  0  0  0  0  0  0
    3.6290   -7.8010    0.4720 H   0  0  0  0  0  0  0  0  0  0  0  0
    2.7159   -5.8671   -0.6284 H   0  0  0  0  0  0  0  0  0  0  0  0
    5.4474   -5.4516    5.8201 H   0  0  0  0  0  0  0  0  0  0  0  0
    5.2725   -3.8496    6.1559 H   0  0  0  0  0  0  0  0  0  0  0  0
    4.7232   -4.7837    8.1039 H   0  0  0  0  0  0  0  0  0  0  0  0
    3.3660   -3.9104    7.5306 H   0  0  0  0  0  0  0  0  0  0  0  0
    3.7654   -6.8843    7.7933 H   0  0  0  0  0  0  0  0  0  0  0  0
    2.6365   -5.8660    8.5784 H   0  0  0  0  0  0  0  0  0  0  0  0
    0.3885   -6.4185    8.1153 H   0  0  0  0  0  0  0  0  0  0  0  0
    0.1075   -7.6332    6.9101 H   0  0  0  0  0  0  0  0  0  0  0  0
    1.6496   -8.9031    7.8413 H   0  0  0  0  0  0  0  0  0  0  0  0
    5.6525   -3.4489    4.0992 H   0  0  0  0  0  0  0  0  0  0  0  0
    4.4479   -3.1653    2.9594 H   0  0  0  0  0  0  0  0  0  0  0  0
    4.3489   -1.8002    5.6773 H   0  0  0  0  0  0  0  0  0  0  0  0
    5.1197   -1.1780    4.2556 H   0  0  0  0  0  0  0  0  0  0  0  0
   -0.2613    1.4806    2.7172 H   0  0  0  0  0  0  0  0  0  0  0  0
    0.9421    3.6059    3.1717 H   0  0  0  0  0  0  0  0  0  0  0  0
    3.2446    3.5332    4.1326 H   0  0  0  0  0  0  0  0  0  0  0  0
    4.3328    1.3568    4.6016 H   0  0  0  0  0  0  0  0  0  0  0  0
    0.6324   -3.5587    3.6713 H   0  0  0  0  0  0  0  0  0  0  0  0
    2.3785   -3.3517    5.7449 H   0  0  0  0  0  0  0  0  0  0  0  0
  1  2  1  0
  1 42  1  0
  1 43  1  0
  1 44  1  0
  3  2  1  1
  3 24  1  0
  3 40  1  0
  3  4  1  0
  4  5  1  0
  4 45  1  0
  4 46  1  0
  5  6  1  0
  5 47  1  0
  5 48  1  0
  6  7  1  0
  6 11  1  0
  7  8  1  0
  7 49  1  0
  7 50  1  0
  8 10  1  0
  8  9  1  0
  8 51  1  0
  9 10  1  0
  9 52  1  0
  9 53  1  0
 10 54  1  0
 10 55  1  0
 11 24  1  0
 11 12  1  0
 11 56  1  1
 12 13  1  0
 12 57  1  0
 12 58  1  0
 13 19  2  0
 13 14  1  0
 14 15  2  0
 14 59  1  0
 15 16  1  0
 15 60  1  0
 16 17  1  0
 16 18  2  0
 17 61  1  0
 18 39  1  0
 18 19  1  0
 19 20  1  0
 20 40  1  0
 20 21  1  1
 20 27  1  0
 21 22  1  0
 21 62  1  0
 21 63  1  0
 22 23  1  0
 22 64  1  0
 22 65  1  0
 23 24  1  0
 23 66  1  0
 23 67  1  0
 24 25  1  1
 25 26  1  0
 25 68  1  0
 25 69  1  0
 26 70  1  0
 27 28  1  0
 27 71  1  0
 27 72  1  0
 28 29  1  0
 28 73  1  0
 28 74  1  0
 29 37  1  0
 29 30  2  0
 30 31  1  0
 30 38  1  0
 31 41  1  0
 31 32  1  0
 32 37  2  0
 32 33  1  0
 33 34  2  0
 33 75  1  0
 34 35  1  0
 34 76  1  0
 35 36  2  0
 35 77  1  0
 36 37  1  0
 36 78  1  0
 38 39  1  0
 38 40  1  0
 38 79  1  6
 40 80  1  1
M  END
>  <i_m_ct_stereo_status>  (145) 
1

>  <s_m_source_file>  (145) 
/var/tmp/pbs.5076255.sched01/tmpmtrcy7mx/460f9z2a7c.sdf

>  <i_m_source_file_index>  (145) 
17

>  <i_lp_mmshare_version>  (145) 
48012

>  <i_f3d_flags>  (145) 
0

>  <s_epik_input>  (145) 
W0NIMl0xW0NIMl1bQ0hdMVtDSDJdTihbQ0gyXVtDSDJdMilbQ0BASF0oW0NIMl0zKVtDQEBdKFtDSDJdW09IXSkoW0NIMl1bQ0gyXVtDSDJdNClbQ0BAXTIoT1tDSDNdKVtDQEBIXTVbQ0BIXShPYzZjKFtPSF0pW2NIXVtjSF1jM2M2W0NAXTQ1NyljOGMoW0NIMl1bQ0gyXTcpYzljKFtuSF04KVtjSF1bY0hdW2NIXVtjSF05

>  <s_epik_cmdline>  (145) 
J2VwaWtfcHl0aG9uJywgJy1waHQnLCAnMi4wJywgJy1waCcsICc3LjAnLCAnLXRuJywgJzgnLCAnLW1hJywgJzIwMCcsICctaW1hZScsICc8aW5maWxlLm1hZT4nLCAnLW9tYWUnLCAnPG91dGZpbGUubWFlPic=

>  <r_lp_tautomer_probability>  (145) 
1

>  <r_epik_Ionization_Penalty>  (145) 
2.36027

>  <r_epik_Ionization_Penalty_Charging>  (145) 
0

>  <r_epik_Ionization_Penalty_Neutral>  (145) 
2.36027

>  <r_epik_State_Penalty>  (145) 
2.51516

>  <r_epik_Charging_Adjusted_Penalty>  (145) 
2.51516

>  <i_epik_Tot_Q>  (145) 
0

>  <i_epik_Tot_abs_Q>  (145) 
0

>  <s_lp_Force_Field>  (145) 
OPLS3e

>  <r_lp_Energy>  (145) 
141.78

>  <b_lp_Chiralities_Consistent>  (145) 
1

>  <s_lp_Variant>  (145) 
29:0-2

>  <s_i_glide_gridfile>  (145) 
pfpi4k_grid

>  <i_i_glide_lignum>  (145) 
17

>  <i_i_glide_rotatable_bonds>  (145) 
6

>  <r_i_docking_score>  (145) 
-2.05977

>  <r_i_glide_ligand_efficiency>  (145) 
-0.0514943

>  <r_i_glide_ligand_efficiency_sa>  (145) 
-0.176108

>  <r_i_glide_ligand_efficiency_ln>  (145) 
-0.439289

>  <r_i_glide_gscore>  (145) 
-2.05977

>  <r_i_glide_lipo>  (145) 
-0.143419

>  <r_i_glide_hbond>  (145) 
0

>  <r_i_glide_metal>  (145) 
-0

>  <r_i_glide_rewards>  (145) 
0

>  <r_i_glide_evdw>  (145) 
-26.0974

>  <r_i_glide_ecoul>  (145) 
-5.40605

>  <r_i_glide_erotb>  (145) 
0.212172

>  <r_i_glide_esite>  (145) 
-0.0127489

>  <r_i_glide_emodel>  (145) 
-34.4372

>  <r_i_glide_energy>  (145) 
-31.5034

>  <r_i_glide_einternal>  (145) 
2.18903

>  <r_i_glide_intrahb_reward>  (145) 
-0

>  <i_i_glide_confnum>  (145) 
3

>  <i_i_glide_posenum>  (145) 
2

>  <r_i_glide_eff_state_penalty>  (145) 
0

>  <ligand_id>  (145) 
29

>  <original_smiles>  (145) 
COC12CCN(CC3CC3)C3Cc4ccc(O)c5c4C4(CCCC31CO)CCc1c([nH]c3ccccc13)C(O5)C42

>  <smiles>  (145) 
[H]Oc1c([H])c([H])c2c3c1OC1([H])c4c(c5c([H])c([H])c([H])c([H])c5n4[H])C([H])([H])C([H])([H])C34C([H])([H])C([H])([H])C([H])([H])C3(C([H])([H])O[H])C([H])(N(C([H])([H])C5([H])C([H])([H])C5([H])[H])C([H])([H])C([H])([H])C3(OC([H])([H])[H])C14[H])C2([H])[H]

$$$$
30:0:0
     RDKit          3D

 49 52  0  0  1  0  0  0  0  0999 V2000
    8.5682   -3.8989    0.9171 C   0  0  0  0  0  0  0  0  0  0  0  0
    7.2292   -3.5215    1.2313 O   0  0  0  0  0  0  0  0  0  0  0  0
    6.8049   -2.3027    0.7230 C   0  0  2  0  0  0  0  0  0  0  0  0
    5.6856   -1.7739    1.3767 O   0  0  0  0  0  0  0  0  0  0  0  0
    4.4896   -2.4909    1.1077 C   0  0  2  0  0  0  0  0  0  0  0  0
    4.5004   -3.7051    1.7767 O   0  0  0  0  0  0  0  0  0  0  0  0
    3.3764   -4.5714    1.6460 C   0  0  0  0  0  0  0  0  0  0  0  0
    3.8332   -5.8316    2.3852 C   0  0  0  0  0  0  0  0  0  0  0  0
    2.1967   -3.9452    2.4153 C   0  0  0  0  0  0  0  0  0  0  0  0
    3.1136   -4.8534    0.1417 C   0  0  1  0  0  0  0  0  0  0  0  0
    1.8755   -5.7613   -0.0242 C   0  0  0  0  0  0  0  0  0  0  0  0
    3.0098   -3.5138   -0.6259 C   0  0  2  0  0  0  0  0  0  0  0  0
    2.7615   -3.6743   -2.1246 C   0  0  0  0  0  0  0  0  0  0  0  0
    2.6275   -2.3406   -2.8335 C   0  0  0  0  0  0  0  0  0  0  0  0
    3.9107   -1.5362   -2.7253 C   0  0  1  0  0  0  0  0  0  0  0  0
    3.6370   -0.1788   -3.3887 C   0  0  0  0  0  0  0  0  0  0  0  0
    4.3352   -1.4113   -1.2327 C   0  0  2  0  0  0  0  0  0  0  0  0
    5.8147   -1.1199   -1.2395 C   0  0  0  0  0  0  0  0  0  0  0  0
    6.4727   -2.4256   -0.7801 C   0  0  2  0  0  0  0  0  0  0  0  0
    5.4520   -3.3877   -0.9302 O   0  0  0  0  0  0  0  0  0  0  0  0
    4.3113   -2.7246   -0.4282 C   0  0  1  0  0  0  0  0  0  0  0  0
    8.7972   -4.8308    1.4310 H   0  0  0  0  0  0  0  0  0  0  0  0
    9.2886   -3.1517    1.2580 H   0  0  0  0  0  0  0  0  0  0  0  0
    8.7167   -4.0583   -0.1536 H   0  0  0  0  0  0  0  0  0  0  0  0
    7.5990   -1.5704    0.8959 H   0  0  0  0  0  0  0  0  0  0  0  0
    3.6712   -1.8567    1.4779 H   0  0  0  0  0  0  0  0  0  0  0  0
    3.0365   -6.5728    2.4568 H   0  0  0  0  0  0  0  0  0  0  0  0
    4.1382   -5.5884    3.4005 H   0  0  0  0  0  0  0  0  0  0  0  0
    4.6779   -6.2856    1.8661 H   0  0  0  0  0  0  0  0  0  0  0  0
    1.3574   -4.6391    2.4904 H   0  0  0  0  0  0  0  0  0  0  0  0
    1.8204   -3.0337    1.9557 H   0  0  0  0  0  0  0  0  0  0  0  0
    2.4853   -3.6947    3.4307 H   0  0  0  0  0  0  0  0  0  0  0  0
    3.9696   -5.3970   -0.2679 H   0  0  0  0  0  0  0  0  0  0  0  0
    1.0230   -5.1683    0.2676 H   0  0  0  0  0  0  0  0  0  0  0  0
    1.8999   -6.6539    0.6007 H   0  0  0  0  0  0  0  0  0  0  0  0
    1.6320   -6.0729   -1.0303 H   0  0  0  0  0  0  0  0  0  0  0  0
    2.1990   -2.9213   -0.2104 H   0  0  0  0  0  0  0  0  0  0  0  0
    3.6102   -4.1684   -2.5838 H   0  0  0  0  0  0  0  0  0  0  0  0
    1.8388   -4.2259   -2.3158 H   0  0  0  0  0  0  0  0  0  0  0  0
    2.3497   -2.4913   -3.8825 H   0  0  0  0  0  0  0  0  0  0  0  0
    1.8418   -1.7918   -2.3447 H   0  0  0  0  0  0  0  0  0  0  0  0
    4.6651   -2.0671   -3.3090 H   0  0  0  0  0  0  0  0  0  0  0  0
    2.7516    0.2002   -2.8932 H   0  0  0  0  0  0  0  0  0  0  0  0
    3.3762   -0.2742   -4.4406 H   0  0  0  0  0  0  0  0  0  0  0  0
    4.4546    0.5394   -3.2853 H   0  0  0  0  0  0  0  0  0  0  0  0
    3.7498   -0.6615   -0.6879 H   0  0  0  0  0  0  0  0  0  0  0  0
    6.1322   -0.9046   -2.2490 H   0  0  0  0  0  0  0  0  0  0  0  0
    6.0603   -0.2735   -0.6095 H   0  0  0  0  0  0  0  0  0  0  0  0
    7.3505   -2.6579   -1.3829 H   0  0  0  0  0  0  0  0  0  0  0  0
  1  2  1  0
  1 22  1  0
  1 23  1  0
  1 24  1  0
  2  3  1  0
  3 19  1  0
  3  4  1  0
  3 25  1  6
  4  5  1  0
  5 21  1  0
  5  6  1  0
  5 26  1  1
  6  7  1  0
  7  8  1  0
  7  9  1  0
  7 10  1  0
  8 27  1  0
  8 28  1  0
  8 29  1  0
  9 30  1  0
  9 31  1  0
  9 32  1  0
 10 11  1  0
 10 12  1  0
 10 33  1  6
 11 34  1  0
 11 35  1  0
 11 36  1  0
 12 21  1  0
 12 13  1  0
 12 37  1  1
 13 14  1  0
 13 38  1  0
 13 39  1  0
 14 15  1  0
 14 40  1  0
 14 41  1  0
 15 16  1  0
 15 17  1  0
 15 42  1  6
 16 43  1  0
 16 44  1  0
 16 45  1  0
 17 21  1  0
 17 18  1  0
 17 46  1  1
 18 19  1  0
 18 47  1  0
 18 48  1  0
 19 20  1  0
 19 49  1  6
 21 20  1  6
M  END
>  <i_m_ct_stereo_status>  (146) 
1

>  <s_m_source_file>  (146) 
/var/tmp/pbs.5076255.sched01/tmpmtrcy7mx/460f9z2a7c.sdf

>  <i_m_source_file_index>  (146) 
18

>  <i_lp_mmshare_version>  (146) 
48012

>  <i_f3d_flags>  (146) 
0

>  <s_epik_input>  (146) 
W0NAXTEyM1tDQEBIXTRPW0NAQEhdKE9bQ0gzXSlbQ0BASF0oTzMpW0NIMl1bQ0BIXTJbQ0BIXShbQ0gzXSlbQ0gyXVtDSDJdW0NASF0xW0NASF0oW0NIM10pQyhPNCkoW0NIM10pW0NIM10=

>  <s_epik_cmdline>  (146) 
J2VwaWtfcHl0aG9uJywgJy1waHQnLCAnMi4wJywgJy1waCcsICc3LjAnLCAnLXRuJywgJzgnLCAnLW1hJywgJzIwMCcsICctaW1hZScsICc8aW5maWxlLm1hZT4nLCAnLW9tYWUnLCAnPG91dGZpbGUubWFlPic=

>  <r_lp_tautomer_probability>  (146) 
1

>  <r_epik_Ionization_Penalty>  (146) 
1.15613e-12

>  <r_epik_Ionization_Penalty_Charging>  (146) 
0

>  <r_epik_Ionization_Penalty_Neutral>  (146) 
1.15613e-12

>  <r_epik_State_Penalty>  (146) 
-0

>  <r_epik_Charging_Adjusted_Penalty>  (146) 
0

>  <i_epik_Tot_Q>  (146) 
0

>  <i_epik_Tot_abs_Q>  (146) 
0

>  <s_epik_Chemistry_Notes>  (146) 
This compound contains an acetal/aminal-like group ( X-CH(R)-Y where X, Y are N, S, or O) that may be acid/base labile, releasing an aldehyde.

>  <s_lp_Force_Field>  (146) 
OPLS3e

>  <r_lp_Energy>  (146) 
40.9086

>  <b_lp_Chiralities_Consistent>  (146) 
1

>  <s_lp_Variant>  (146) 
30:0-1

>  <s_i_glide_gridfile>  (146) 
pfpi4k_grid

>  <i_i_glide_lignum>  (146) 
18

>  <i_i_glide_rotatable_bonds>  (146) 
1

>  <r_i_docking_score>  (146) 
-2.24954

>  <r_i_glide_ligand_efficiency>  (146) 
-0.107121

>  <r_i_glide_ligand_efficiency_sa>  (146) 
-0.295539

>  <r_i_glide_ligand_efficiency_ln>  (146) 
-0.556195

>  <r_i_glide_gscore>  (146) 
-2.24954

>  <r_i_glide_lipo>  (146) 
-0.239753

>  <r_i_glide_hbond>  (146) 
0

>  <r_i_glide_metal>  (146) 
-0

>  <r_i_glide_rewards>  (146) 
-1.50762

>  <r_i_glide_evdw>  (146) 
-11.7457

>  <r_i_glide_ecoul>  (146) 
0.56743

>  <r_i_glide_erotb>  (146) 
0

>  <r_i_glide_esite>  (146) 
0

>  <r_i_glide_emodel>  (146) 
-9.40427

>  <r_i_glide_energy>  (146) 
-11.1783

>  <r_i_glide_einternal>  (146) 
3.01577

>  <r_i_glide_intrahb_reward>  (146) 
-0

>  <i_i_glide_confnum>  (146) 
1

>  <i_i_glide_posenum>  (146) 
29

>  <r_i_glide_eff_state_penalty>  (146) 
0

>  <ligand_id>  (146) 
30

>  <original_smiles>  (146) 
COC1OC2OC(C)(C)C(C)C3CCC(C)C4CC1OC243

>  <smiles>  (146) 
[H]C([H])([H])OC1([H])OC2([H])OC(C([H])([H])[H])(C([H])([H])[H])C([H])(C([H])([H])[H])C3([H])C([H])([H])C([H])([H])C([H])(C([H])([H])[H])C4([H])C([H])([H])C1([H])OC243

$$$$
32:0:0
     RDKit          3D

 49 53  0  0  1  0  0  0  0  0999 V2000
    4.0492   -3.2565   -4.2287 C   0  0  0  0  0  0  0  0  0  0  0  0
    4.1534   -3.0737   -2.7470 C   0  0  0  0  0  0  0  0  0  0  0  0
    4.8761   -3.8235   -1.9052 C   0  0  0  0  0  0  0  0  0  0  0  0
    4.7620   -3.3604   -0.4737 C   0  0  2  0  0  0  0  0  0  0  0  0
    5.9773   -2.4260   -0.1938 C   0  0  0  0  0  0  0  0  0  0  0  0
    7.0032   -2.4401   -0.8809 O   0  0  0  0  0  0  0  0  0  0  0  0
    5.8134   -1.5190    0.9496 C   0  0  0  0  0  0  0  0  0  0  0  0
    6.0966   -2.1801    2.0771 C   0  0  0  0  0  0  0  0  0  0  0  0
    5.0724   -2.8608    2.9643 C   0  0  2  0  0  0  0  0  0  0  0  0
    5.4148   -4.3700    2.9076 C   0  0  0  0  0  0  0  0  0  0  0  0
    5.6728   -4.9258    3.9688 O   0  0  0  0  0  0  0  0  0  0  0  0
    5.5771   -5.1583    1.5566 C   0  0  0  0  0  0  0  0  0  0  0  0
    7.0460   -5.2839    1.0781 C   0  0  0  0  0  0  0  0  0  0  0  0
    5.1893   -6.6326    1.8976 C   0  0  0  0  0  0  0  0  0  0  0  0
    4.6098   -4.6638    0.4245 C   0  0  0  0  0  0  0  0  0  0  0  0
    3.6468   -5.3919    0.1700 O   0  0  0  0  0  0  0  0  0  0  0  0
    3.5405   -2.6563    2.7396 C   0  0  1  0  0  0  0  0  0  0  0  0
    2.9638   -2.6658    4.0285 O   0  0  0  0  0  0  0  0  0  0  0  0
    3.0932   -1.4036    1.9673 C   0  0  1  0  0  0  0  0  0  0  0  0
    1.7107   -1.2413    2.2390 O   0  0  0  0  0  0  0  0  0  0  0  0
    3.9456   -0.1367    2.1328 C   0  0  0  0  0  0  0  0  0  0  0  0
    4.6664   -0.5401    0.8350 C   0  0  2  0  0  0  0  0  0  0  0  0
    3.3989   -1.2551    0.4450 C   0  0  1  0  0  0  0  0  0  0  0  0
    3.4764   -2.4213   -0.5575 C   0  0  2  0  0  0  0  0  0  0  0  0
    2.2825   -3.1625   -0.4073 O   0  0  0  0  0  0  0  0  0  0  0  0
    3.4242   -1.9679   -2.0529 C   0  0  1  0  0  0  0  0  0  0  0  0
    4.1172   -0.7666   -2.3206 O   0  0  0  0  0  0  0  0  0  0  0  0
    3.0068   -3.3904   -4.5218 H   0  0  0  0  0  0  0  0  0  0  0  0
    4.6394   -4.1059   -4.5923 H   0  0  0  0  0  0  0  0  0  0  0  0
    4.4235   -2.3375   -4.6896 H   0  0  0  0  0  0  0  0  0  0  0  0
    5.4503   -4.6738   -2.2112 H   0  0  0  0  0  0  0  0  0  0  0  0
    6.9775   -2.7831    2.0240 H   0  0  0  0  0  0  0  0  0  0  0  0
    5.3240   -2.5173    3.9722 H   0  0  0  0  0  0  0  0  0  0  0  0
    7.5632   -4.3513    0.8767 H   0  0  0  0  0  0  0  0  0  0  0  0
    7.0932   -5.8600    0.1540 H   0  0  0  0  0  0  0  0  0  0  0  0
    7.6516   -5.8136    1.8072 H   0  0  0  0  0  0  0  0  0  0  0  0
    4.1920   -6.7049    2.3399 H   0  0  0  0  0  0  0  0  0  0  0  0
    5.8748   -7.0883    2.6061 H   0  0  0  0  0  0  0  0  0  0  0  0
    5.1957   -7.2708    1.0109 H   0  0  0  0  0  0  0  0  0  0  0  0
    3.0961   -3.5238    2.2520 H   0  0  0  0  0  0  0  0  0  0  0  0
    2.0309   -2.5538    3.9005 H   0  0  0  0  0  0  0  0  0  0  0  0
    1.3659   -0.7496    1.5034 H   0  0  0  0  0  0  0  0  0  0  0  0
    3.3666    0.7772    2.0076 H   0  0  0  0  0  0  0  0  0  0  0  0
    4.5500   -0.1016    3.0363 H   0  0  0  0  0  0  0  0  0  0  0  0
    4.8997    0.2991    0.1887 H   0  0  0  0  0  0  0  0  0  0  0  0
    2.7002   -0.4990    0.0806 H   0  0  0  0  0  0  0  0  0  0  0  0
    2.1893   -3.7264   -1.1655 H   0  0  0  0  0  0  0  0  0  0  0  0
    2.4169   -1.8912   -2.4481 H   0  0  0  0  0  0  0  0  0  0  0  0
    3.5153   -0.0509   -2.1850 H   0  0  0  0  0  0  0  0  0  0  0  0
  1  2  1  0
  1 28  1  0
  1 29  1  0
  1 30  1  0
  2 26  1  0
  2  3  2  0
  4  3  1  6
  3 31  1  0
  4 15  1  0
  4 24  1  0
  4  5  1  0
  5  6  2  0
  5  7  1  0
  7 22  1  0
  7  8  2  0
  8  9  1  0
  8 32  1  0
  9 10  1  0
  9 17  1  0
  9 33  1  1
 10 11  2  0
 10 12  1  0
 12 13  1  0
 12 14  1  0
 12 15  1  0
 13 34  1  0
 13 35  1  0
 13 36  1  0
 14 37  1  0
 14 38  1  0
 14 39  1  0
 15 16  2  0
 17 18  1  0
 17 19  1  0
 17 40  1  6
 18 41  1  0
 19 23  1  0
 19 20  1  6
 19 21  1  0
 20 42  1  0
 21 22  1  0
 21 43  1  0
 21 44  1  0
 22 23  1  0
 22 45  1  6
 23 24  1  0
 23 46  1  6
 24 25  1  1
 24 26  1  0
 25 47  1  0
 26 27  1  0
 26 48  1  6
 27 49  1  0
M  END
>  <i_m_ct_stereo_status>  (147) 
1

>  <s_m_source_file>  (147) 
/var/tmp/pbs.5076255.sched01/tmpmtrcy7mx/460f9z2a7c.sdf

>  <i_m_source_file_index>  (147) 
20

>  <i_lp_mmshare_version>  (147) 
48012

>  <i_f3d_flags>  (147) 
0

>  <s_epik_input>  (147) 
W0NIM11DKD1bQ0hdMSlbQ0BIXShbT0hdKVtDQF0oW0NAQF0xMjMpKFtPSF0pW0NASF00W0NAQF01KFtPSF0pW0NASF0oW09IXSlbQ0BASF0oQyg9TylDKFtDSDNdKShbQ0gzXSlDMz1PKVtDSF09QyhDMj1PKVtDQEBIXTRbQ0gyXTU=

>  <s_epik_cmdline>  (147) 
J2VwaWtfcHl0aG9uJywgJy1waHQnLCAnMi4wJywgJy1waCcsICc3LjAnLCAnLXRuJywgJzgnLCAnLW1hJywgJzIwMCcsICctaW1hZScsICc8aW5maWxlLm1hZT4nLCAnLW9tYWUnLCAnPG91dGZpbGUubWFlPic=

>  <r_lp_tautomer_probability>  (147) 
1

>  <r_epik_Ionization_Penalty>  (147) 
7.07424e-05

>  <r_epik_Ionization_Penalty_Charging>  (147) 
0

>  <r_epik_Ionization_Penalty_Neutral>  (147) 
7.07424e-05

>  <r_epik_State_Penalty>  (147) 
-0

>  <r_epik_Charging_Adjusted_Penalty>  (147) 
0

>  <i_epik_Tot_Q>  (147) 
0

>  <i_epik_Tot_abs_Q>  (147) 
0

>  <s_lp_Force_Field>  (147) 
OPLS3e

>  <r_lp_Energy>  (147) 
108.214

>  <b_lp_Chiralities_Consistent>  (147) 
1

>  <s_lp_Variant>  (147) 
32:0-1

>  <s_i_glide_gridfile>  (147) 
pfpi4k_grid

>  <i_i_glide_lignum>  (147) 
20

>  <i_i_glide_rotatable_bonds>  (147) 
4

>  <r_i_docking_score>  (147) 
-3.55145

>  <r_i_glide_ligand_efficiency>  (147) 
-0.131535

>  <r_i_glide_ligand_efficiency_sa>  (147) 
-0.394605

>  <r_i_glide_ligand_efficiency_ln>  (147) 
-0.826718

>  <r_i_glide_gscore>  (147) 
-3.55145

>  <r_i_glide_lipo>  (147) 
-0.662294

>  <r_i_glide_hbond>  (147) 
-0.118954

>  <r_i_glide_metal>  (147) 
-0

>  <r_i_glide_rewards>  (147) 
-0.9457

>  <r_i_glide_evdw>  (147) 
-25.5825

>  <r_i_glide_ecoul>  (147) 
-3.60864

>  <r_i_glide_erotb>  (147) 
0

>  <r_i_glide_esite>  (147) 
-0.00407848

>  <r_i_glide_emodel>  (147) 
-35.1855

>  <r_i_glide_energy>  (147) 
-29.1911

>  <r_i_glide_einternal>  (147) 
1.47067

>  <r_i_glide_intrahb_reward>  (147) 
-0

>  <i_i_glide_confnum>  (147) 
2

>  <i_i_glide_posenum>  (147) 
3

>  <r_i_glide_eff_state_penalty>  (147) 
0

>  <ligand_id>  (147) 
32

>  <original_smiles>  (147) 
CC1=CC23C(=O)C4=CC(C(=O)C(C)(C)C2=O)C(O)C2(O)CC4C2C3(O)C1O

>  <smiles>  (147) 
[H]OC1([H])C(C([H])([H])[H])=C([H])C23C(=O)C4=C([H])C([H])(C(=O)C(C([H])([H])[H])(C([H])([H])[H])C2=O)C([H])(O[H])C2(O[H])C([H])([H])C4([H])C2([H])C13O[H]

$$$$
32:0:1
     RDKit          3D

 49 53  0  0  1  0  0  0  0  0999 V2000
    4.3284   -8.9202    1.4823 C   0  0  0  0  0  0  0  0  0  0  0  0
    4.3386   -7.4071    1.5764 C   0  0  0  0  0  0  0  0  0  0  0  0
    4.4973   -6.5371    0.5747 C   0  0  0  0  0  0  0  0  0  0  0  0
    4.4596   -5.0894    1.0348 C   0  0  2  0  0  0  0  0  0  0  0  0
    3.0019   -4.5708    0.8234 C   0  0  0  0  0  0  0  0  0  0  0  0
    2.2016   -5.1490    0.0880 O   0  0  0  0  0  0  0  0  0  0  0  0
    2.6222   -3.3769    1.5996 C   0  0  0  0  0  0  0  0  0  0  0  0
    2.9939   -2.2539    0.9807 C   0  0  0  0  0  0  0  0  0  0  0  0
    4.3255   -1.5854    1.2434 C   0  0  2  0  0  0  0  0  0  0  0  0
    5.1462   -1.7475   -0.0545 C   0  0  0  0  0  0  0  0  0  0  0  0
    5.5513   -0.7152   -0.5881 O   0  0  0  0  0  0  0  0  0  0  0  0
    5.4410   -3.1205   -0.7475 C   0  0  0  0  0  0  0  0  0  0  0  0
    4.4604   -3.4377   -1.8999 C   0  0  0  0  0  0  0  0  0  0  0  0
    6.8072   -2.9104   -1.4827 C   0  0  0  0  0  0  0  0  0  0  0  0
    5.6081   -4.3132    0.2722 C   0  0  0  0  0  0  0  0  0  0  0  0
    6.7540   -4.7265    0.4591 O   0  0  0  0  0  0  0  0  0  0  0  0
    5.2065   -1.9827    2.4837 C   0  0  1  0  0  0  0  0  0  0  0  0
    5.7769   -0.7503    2.8823 O   0  0  0  0  0  0  0  0  0  0  0  0
    4.5259   -2.7086    3.6685 C   0  0  1  0  0  0  0  0  0  0  0  0
    5.3816   -2.5675    4.7910 O   0  0  0  0  0  0  0  0  0  0  0  0
    3.0630   -2.3502    3.9479 C   0  0  0  0  0  0  0  0  0  0  0  0
    2.6874   -3.5805    3.1056 C   0  0  2  0  0  0  0  0  0  0  0  0
    4.0161   -4.1874    3.5186 C   0  0  1  0  0  0  0  0  0  0  0  0
    4.6504   -5.2586    2.6156 C   0  0  2  0  0  0  0  0  0  0  0  0
    6.0063   -5.3202    3.0283 O   0  0  0  0  0  0  0  0  0  0  0  0
    4.1546   -6.7198    2.9009 C   0  0  1  0  0  0  0  0  0  0  0  0
    2.7847   -6.7798    3.2332 O   0  0  0  0  0  0  0  0  0  0  0  0
    5.1036   -9.3338    2.1257 H   0  0  0  0  0  0  0  0  0  0  0  0
    4.5022   -9.2723    0.4635 H   0  0  0  0  0  0  0  0  0  0  0  0
    3.3669   -9.3221    1.8210 H   0  0  0  0  0  0  0  0  0  0  0  0
    4.6342   -6.8095   -0.4634 H   0  0  0  0  0  0  0  0  0  0  0  0
    2.7809   -2.2155   -0.0725 H   0  0  0  0  0  0  0  0  0  0  0  0
    4.0580   -0.5270    1.3278 H   0  0  0  0  0  0  0  0  0  0  0  0
    3.4088   -3.4997   -1.6202 H   0  0  0  0  0  0  0  0  0  0  0  0
    4.7115   -4.3919   -2.3665 H   0  0  0  0  0  0  0  0  0  0  0  0
    4.5132   -2.6847   -2.6824 H   0  0  0  0  0  0  0  0  0  0  0  0
    7.6056   -2.6032   -0.7991 H   0  0  0  0  0  0  0  0  0  0  0  0
    6.7437   -2.1571   -2.2625 H   0  0  0  0  0  0  0  0  0  0  0  0
    7.1490   -3.7839   -1.9988 H   0  0  0  0  0  0  0  0  0  0  0  0
    6.0641   -2.5810    2.1875 H   0  0  0  0  0  0  0  0  0  0  0  0
    6.4141   -0.4851    2.2417 H   0  0  0  0  0  0  0  0  0  0  0  0
    4.9457   -2.9710    5.5214 H   0  0  0  0  0  0  0  0  0  0  0  0
    2.7930   -2.4727    4.9934 H   0  0  0  0  0  0  0  0  0  0  0  0
    2.7529   -1.3792    3.5641 H   0  0  0  0  0  0  0  0  0  0  0  0
    1.8238   -4.1241    3.4893 H   0  0  0  0  0  0  0  0  0  0  0  0
    3.8948   -4.5864    4.5290 H   0  0  0  0  0  0  0  0  0  0  0  0
    6.4446   -6.0120    2.5582 H   0  0  0  0  0  0  0  0  0  0  0  0
    4.7279   -7.2141    3.6773 H   0  0  0  0  0  0  0  0  0  0  0  0
    2.5517   -7.6825    3.3704 H   0  0  0  0  0  0  0  0  0  0  0  0
  1  2  1  0
  1 28  1  0
  1 29  1  0
  1 30  1  0
  2 26  1  0
  2  3  2  0
  4  3  1  6
  3 31  1  0
  4 15  1  0
  4 24  1  0
  4  5  1  0
  5  6  2  0
  5  7  1  0
  7 22  1  0
  7  8  2  0
  8  9  1  0
  8 32  1  0
  9 10  1  0
  9 17  1  0
  9 33  1  1
 10 11  2  0
 10 12  1  0
 12 13  1  0
 12 14  1  0
 12 15  1  0
 13 34  1  0
 13 35  1  0
 13 36  1  0
 14 37  1  0
 14 38  1  0
 14 39  1  0
 15 16  2  0
 17 18  1  0
 17 19  1  0
 17 40  1  6
 18 41  1  0
 19 23  1  0
 19 20  1  1
 19 21  1  0
 20 42  1  0
 21 22  1  0
 21 43  1  0
 21 44  1  0
 22 23  1  0
 22 45  1  1
 23 24  1  0
 23 46  1  1
 24 25  1  6
 24 26  1  0
 25 47  1  0
 26 27  1  0
 26 48  1  1
 27 49  1  0
M  END
>  <i_m_ct_stereo_status>  (148) 
1

>  <s_m_source_file>  (148) 
/var/tmp/pbs.5076255.sched01/tmpmtrcy7mx/460f9z2a7c.sdf

>  <i_m_source_file_index>  (148) 
20

>  <i_lp_mmshare_version>  (148) 
48012

>  <i_f3d_flags>  (148) 
0

>  <s_epik_input>  (148) 
W0NIM11DKD1bQ0hdMSlbQ0BIXShbT0hdKVtDQF0oW0NAQF0xMjMpKFtPSF0pW0NASF00W0NAQF01KFtPSF0pW0NASF0oW09IXSlbQ0BASF0oQyg9TylDKFtDSDNdKShbQ0gzXSlDMz1PKVtDSF09QyhDMj1PKVtDQEBIXTRbQ0gyXTU=

>  <s_epik_cmdline>  (148) 
J2VwaWtfcHl0aG9uJywgJy1waHQnLCAnMi4wJywgJy1waCcsICc3LjAnLCAnLXRuJywgJzgnLCAnLW1hJywgJzIwMCcsICctaW1hZScsICc8aW5maWxlLm1hZT4nLCAnLW9tYWUnLCAnPG91dGZpbGUubWFlPic=

>  <r_lp_tautomer_probability>  (148) 
1

>  <r_epik_Ionization_Penalty>  (148) 
7.07424e-05

>  <r_epik_Ionization_Penalty_Charging>  (148) 
0

>  <r_epik_Ionization_Penalty_Neutral>  (148) 
7.07424e-05

>  <r_epik_State_Penalty>  (148) 
-0

>  <r_epik_Charging_Adjusted_Penalty>  (148) 
0

>  <i_epik_Tot_Q>  (148) 
0

>  <i_epik_Tot_abs_Q>  (148) 
0

>  <s_lp_Force_Field>  (148) 
OPLS3e

>  <r_lp_Energy>  (148) 
108.214

>  <b_lp_Chiralities_Consistent>  (148) 
1

>  <s_lp_Variant>  (148) 
32:0-1

>  <s_i_glide_gridfile>  (148) 
pfpi4k_grid

>  <i_i_glide_lignum>  (148) 
20

>  <i_i_glide_rotatable_bonds>  (148) 
4

>  <r_i_docking_score>  (148) 
-3.21908

>  <r_i_glide_ligand_efficiency>  (148) 
-0.119225

>  <r_i_glide_ligand_efficiency_sa>  (148) 
-0.357675

>  <r_i_glide_ligand_efficiency_ln>  (148) 
-0.749348

>  <r_i_glide_gscore>  (148) 
-3.21908

>  <r_i_glide_lipo>  (148) 
-0.380608

>  <r_i_glide_hbond>  (148) 
-0.00684672

>  <r_i_glide_metal>  (148) 
-0

>  <r_i_glide_rewards>  (148) 
-0.953271

>  <r_i_glide_evdw>  (148) 
-26.7923

>  <r_i_glide_ecoul>  (148) 
-3.48812

>  <r_i_glide_erotb>  (148) 
0

>  <r_i_glide_esite>  (148) 
-0.0155184

>  <r_i_glide_emodel>  (148) 
-36.1291

>  <r_i_glide_energy>  (148) 
-30.2804

>  <r_i_glide_einternal>  (148) 
0.806056

>  <r_i_glide_intrahb_reward>  (148) 
-0

>  <i_i_glide_confnum>  (148) 
2

>  <i_i_glide_posenum>  (148) 
40

>  <r_i_glide_eff_state_penalty>  (148) 
0

>  <ligand_id>  (148) 
32

>  <original_smiles>  (148) 
CC1=CC23C(=O)C4=CC(C(=O)C(C)(C)C2=O)C(O)C2(O)CC4C2C3(O)C1O

>  <smiles>  (148) 
[H]OC1([H])C(C([H])([H])[H])=C([H])C23C(=O)C4=C([H])C([H])(C(=O)C(C([H])([H])[H])(C([H])([H])[H])C2=O)C([H])(O[H])C2(O[H])C([H])([H])C4([H])C2([H])C13O[H]

$$$$
32:0:2
     RDKit          3D

 49 53  0  0  1  0  0  0  0  0999 V2000
    4.2900   -8.9686    1.4109 C   0  0  0  0  0  0  0  0  0  0  0  0
    4.3067   -7.4604    1.5289 C   0  0  0  0  0  0  0  0  0  0  0  0
    4.4518   -6.5697    0.5467 C   0  0  0  0  0  0  0  0  0  0  0  0
    4.3976   -5.1293    1.0339 C   0  0  2  0  0  0  0  0  0  0  0  0
    2.9421   -4.6116    0.8489 C   0  0  0  0  0  0  0  0  0  0  0  0
    2.1346   -5.1693    0.1014 O   0  0  0  0  0  0  0  0  0  0  0  0
    2.5856   -3.4369    1.6585 C   0  0  0  0  0  0  0  0  0  0  0  0
    2.9341   -2.2972    1.0567 C   0  0  0  0  0  0  0  0  0  0  0  0
    4.2689   -1.6177    1.3127 C   0  0  2  0  0  0  0  0  0  0  0  0
    5.0673   -1.7411   -0.0048 C   0  0  0  0  0  0  0  0  0  0  0  0
    5.4634   -0.6976   -0.5238 O   0  0  0  0  0  0  0  0  0  0  0  0
    5.3464   -3.1127   -0.7192 C   0  0  0  0  0  0  0  0  0  0  0  0
    4.3450   -3.4145   -1.8653 C   0  0  0  0  0  0  0  0  0  0  0  0
    6.6963   -2.9127   -1.4820 C   0  0  0  0  0  0  0  0  0  0  0  0
    5.5344   -4.3297    0.2718 C   0  0  0  0  0  0  0  0  0  0  0  0
    6.6871   -4.7455    0.4342 O   0  0  0  0  0  0  0  0  0  0  0  0
    5.1666   -2.0387    2.5336 C   0  0  1  0  0  0  0  0  0  0  0  0
    5.7557   -0.8247    2.9687 O   0  0  0  0  0  0  0  0  0  0  0  0
    4.5173   -2.8088    3.7164 C   0  0  1  0  0  0  0  0  0  0  0  0
    5.3733   -2.7035    4.8356 O   0  0  0  0  0  0  0  0  0  0  0  0
    3.0541   -2.4557    4.0194 C   0  0  0  0  0  0  0  0  0  0  0  0
    2.6667   -3.6643    3.1567 C   0  0  2  0  0  0  0  0  0  0  0  0
    4.0034   -4.2696    3.5436 C   0  0  1  0  0  0  0  0  0  0  0  0
    4.6317   -5.3269    2.5998 C   0  0  2  0  0  0  0  0  0  0  0  0
    5.9936   -5.3894    2.9840 O   0  0  0  0  0  0  0  0  0  0  0  0
    4.1357   -6.7872    2.8694 C   0  0  1  0  0  0  0  0  0  0  0  0
    2.7753   -6.8624    3.2455 O   0  0  0  0  0  0  0  0  0  0  0  0
    5.0879   -9.3879    2.0282 H   0  0  0  0  0  0  0  0  0  0  0  0
    4.4468   -9.2923    0.3792 H   0  0  0  0  0  0  0  0  0  0  0  0
    3.3374   -9.3770    1.7588 H   0  0  0  0  0  0  0  0  0  0  0  0
    4.5654   -6.8162   -0.5012 H   0  0  0  0  0  0  0  0  0  0  0  0
    2.7000   -2.2331    0.0080 H   0  0  0  0  0  0  0  0  0  0  0  0
    3.9963   -0.5646    1.4275 H   0  0  0  0  0  0  0  0  0  0  0  0
    3.3037   -3.4929   -1.5719 H   0  0  0  0  0  0  0  0  0  0  0  0
    4.6092   -4.3523   -2.3592 H   0  0  0  0  0  0  0  0  0  0  0  0
    4.3800   -2.6425   -2.6331 H   0  0  0  0  0  0  0  0  0  0  0  0
    7.5047   -2.6133   -0.8135 H   0  0  0  0  0  0  0  0  0  0  0  0
    6.6242   -2.1552   -2.2608 H   0  0  0  0  0  0  0  0  0  0  0  0
    7.0169   -3.8206   -1.9932 H   0  0  0  0  0  0  0  0  0  0  0  0
    6.0199   -2.6270    2.2063 H   0  0  0  0  0  0  0  0  0  0  0  0
    6.3506   -0.5206    2.2941 H   0  0  0  0  0  0  0  0  0  0  0  0
    5.1808   -1.8697    5.2360 H   0  0  0  0  0  0  0  0  0  0  0  0
    2.7988   -2.5976    5.0709 H   0  0  0  0  0  0  0  0  0  0  0  0
    2.7185   -1.4824    3.6682 H   0  0  0  0  0  0  0  0  0  0  0  0
    1.8088   -4.2230    3.5447 H   0  0  0  0  0  0  0  0  0  0  0  0
    3.9048   -4.6949    4.5488 H   0  0  0  0  0  0  0  0  0  0  0  0
    6.4392   -6.0036    2.4164 H   0  0  0  0  0  0  0  0  0  0  0  0
    4.7272   -7.2963    3.6273 H   0  0  0  0  0  0  0  0  0  0  0  0
    2.5720   -7.7663    3.4466 H   0  0  0  0  0  0  0  0  0  0  0  0
  1  2  1  0
  1 28  1  0
  1 29  1  0
  1 30  1  0
  2 26  1  0
  2  3  2  0
  4  3  1  6
  3 31  1  0
  4 15  1  0
  4 24  1  0
  4  5  1  0
  5  6  2  0
  5  7  1  0
  7 22  1  0
  7  8  2  0
  8  9  1  0
  8 32  1  0
  9 10  1  0
  9 17  1  0
  9 33  1  1
 10 11  2  0
 10 12  1  0
 12 13  1  0
 12 14  1  0
 12 15  1  0
 13 34  1  0
 13 35  1  0
 13 36  1  0
 14 37  1  0
 14 38  1  0
 14 39  1  0
 15 16  2  0
 17 18  1  0
 17 19  1  0
 17 40  1  6
 18 41  1  0
 19 23  1  0
 19 20  1  1
 19 21  1  0
 20 42  1  0
 21 22  1  0
 21 43  1  0
 21 44  1  0
 22 23  1  0
 22 45  1  1
 23 24  1  0
 23 46  1  1
 24 25  1  6
 24 26  1  0
 25 47  1  0
 26 27  1  0
 26 48  1  1
 27 49  1  0
M  END
>  <i_m_ct_stereo_status>  (149) 
1

>  <s_m_source_file>  (149) 
/var/tmp/pbs.5076255.sched01/tmpmtrcy7mx/460f9z2a7c.sdf

>  <i_m_source_file_index>  (149) 
20

>  <i_lp_mmshare_version>  (149) 
48012

>  <i_f3d_flags>  (149) 
0

>  <s_epik_input>  (149) 
W0NIM11DKD1bQ0hdMSlbQ0BIXShbT0hdKVtDQF0oW0NAQF0xMjMpKFtPSF0pW0NASF00W0NAQF01KFtPSF0pW0NASF0oW09IXSlbQ0BASF0oQyg9TylDKFtDSDNdKShbQ0gzXSlDMz1PKVtDSF09QyhDMj1PKVtDQEBIXTRbQ0gyXTU=

>  <s_epik_cmdline>  (149) 
J2VwaWtfcHl0aG9uJywgJy1waHQnLCAnMi4wJywgJy1waCcsICc3LjAnLCAnLXRuJywgJzgnLCAnLW1hJywgJzIwMCcsICctaW1hZScsICc8aW5maWxlLm1hZT4nLCAnLW9tYWUnLCAnPG91dGZpbGUubWFlPic=

>  <r_lp_tautomer_probability>  (149) 
1

>  <r_epik_Ionization_Penalty>  (149) 
7.07424e-05

>  <r_epik_Ionization_Penalty_Charging>  (149) 
0

>  <r_epik_Ionization_Penalty_Neutral>  (149) 
7.07424e-05

>  <r_epik_State_Penalty>  (149) 
-0

>  <r_epik_Charging_Adjusted_Penalty>  (149) 
0

>  <i_epik_Tot_Q>  (149) 
0

>  <i_epik_Tot_abs_Q>  (149) 
0

>  <s_lp_Force_Field>  (149) 
OPLS3e

>  <r_lp_Energy>  (149) 
108.214

>  <b_lp_Chiralities_Consistent>  (149) 
1

>  <s_lp_Variant>  (149) 
32:0-1

>  <s_i_glide_gridfile>  (149) 
pfpi4k_grid

>  <i_i_glide_lignum>  (149) 
20

>  <i_i_glide_rotatable_bonds>  (149) 
4

>  <r_i_docking_score>  (149) 
-3.16748

>  <r_i_glide_ligand_efficiency>  (149) 
-0.117314

>  <r_i_glide_ligand_efficiency_sa>  (149) 
-0.351943

>  <r_i_glide_ligand_efficiency_ln>  (149) 
-0.737338

>  <r_i_glide_gscore>  (149) 
-3.16748

>  <r_i_glide_lipo>  (149) 
-0.371994

>  <r_i_glide_hbond>  (149) 
-0.0184515

>  <r_i_glide_metal>  (149) 
-0

>  <r_i_glide_rewards>  (149) 
-0.950046

>  <r_i_glide_evdw>  (149) 
-26.3573

>  <r_i_glide_ecoul>  (149) 
-3.28151

>  <r_i_glide_erotb>  (149) 
0

>  <r_i_glide_esite>  (149) 
-0.0169015

>  <r_i_glide_emodel>  (149) 
-35.1143

>  <r_i_glide_energy>  (149) 
-29.6388

>  <r_i_glide_einternal>  (149) 
1.52334

>  <r_i_glide_intrahb_reward>  (149) 
-0

>  <i_i_glide_confnum>  (149) 
1

>  <i_i_glide_posenum>  (149) 
26

>  <r_i_glide_eff_state_penalty>  (149) 
0

>  <ligand_id>  (149) 
32

>  <original_smiles>  (149) 
CC1=CC23C(=O)C4=CC(C(=O)C(C)(C)C2=O)C(O)C2(O)CC4C2C3(O)C1O

>  <smiles>  (149) 
[H]OC1([H])C(C([H])([H])[H])=C([H])C23C(=O)C4=C([H])C([H])(C(=O)C(C([H])([H])[H])(C([H])([H])[H])C2=O)C([H])(O[H])C2(O[H])C([H])([H])C4([H])C2([H])C13O[H]

$$$$
33:0:0
     RDKit          3D

 60 65  0  0  1  0  0  0  0  0999 V2000
   -0.0898   -9.3393    3.1620 C   0  0  0  0  0  0  0  0  0  0  0  0
    1.0448   -9.9935    3.9851 C   0  0  0  0  0  0  0  0  0  0  0  0
    0.8030  -11.5147    4.0239 C   0  0  0  0  0  0  0  0  0  0  0  0
    2.3967   -9.6621    3.3577 C   0  0  0  0  0  0  0  0  0  0  0  0
    3.4454  -10.4840    3.1350 C   0  0  0  0  0  0  0  0  0  0  0  0
    4.7323   -9.7095    2.8662 C   0  0  1  0  0  0  0  0  0  0  0  0
    5.5038  -10.2731    1.8207 O   0  0  0  0  0  0  0  0  0  0  0  0
    4.0897   -8.3869    2.4556 C   0  0  2  0  0  0  0  0  0  0  0  0
    4.6853   -6.9894    2.3808 C   0  0  1  0  0  0  0  0  0  0  0  0
    5.5690   -6.7228    1.1625 C   0  0  0  0  0  0  0  0  0  0  0  0
    4.6864   -6.0283    0.1088 C   0  0  2  0  0  0  0  0  0  0  0  0
    5.2675   -4.8470   -0.4105 O   0  0  0  0  0  0  0  0  0  0  0  0
    4.6366   -3.7451    0.1574 C   0  0  2  0  0  0  0  0  0  0  0  0
    4.3213   -2.7374   -0.9744 C   0  0  0  0  0  0  0  0  0  0  0  0
    3.8170   -1.4018   -0.3898 C   0  0  0  0  0  0  0  0  0  0  0  0
    4.8234   -0.7911    0.6015 C   0  0  0  0  0  0  0  0  0  0  0  0
    5.1324   -1.7483    1.7657 C   0  0  0  0  0  0  0  0  0  0  0  0
    5.5469   -3.1178    1.2394 C   0  0  0  0  0  0  0  0  0  0  0  0
    6.5707   -3.6601    1.6620 O   0  0  0  0  0  0  0  0  0  0  0  0
    3.4411   -4.1462    0.7528 O   0  0  0  0  0  0  0  0  0  0  0  0
    3.3933   -5.5672    0.7787 C   0  0  2  0  0  0  0  0  0  0  0  0
    3.3919   -6.1399    2.2127 C   0  0  1  0  0  0  0  0  0  0  0  0
    2.1938   -7.0918    2.5328 C   0  0  0  0  0  0  0  0  0  0  0  0
    2.8573   -8.2278    3.3328 C   0  0  1  0  0  0  0  0  0  0  0  0
    3.0392   -7.8395    4.8200 C   0  0  0  0  0  0  0  0  0  0  0  0
    1.7105   -8.0304    5.5898 C   0  0  0  0  0  0  0  0  0  0  0  0
    1.1006   -9.4515    5.4453 C   0  0  1  0  0  0  0  0  0  0  0  0
   -0.1866   -9.4373    6.0354 O   0  0  0  0  0  0  0  0  0  0  0  0
   -1.0713   -9.7109    3.4610 H   0  0  0  0  0  0  0  0  0  0  0  0
    0.0287   -9.5419    2.0945 H   0  0  0  0  0  0  0  0  0  0  0  0
   -0.1076   -8.2588    3.3005 H   0  0  0  0  0  0  0  0  0  0  0  0
   -0.1642  -11.7429    4.4685 H   0  0  0  0  0  0  0  0  0  0  0  0
    1.5507  -12.0332    4.6294 H   0  0  0  0  0  0  0  0  0  0  0  0
    0.8116  -11.9517    3.0222 H   0  0  0  0  0  0  0  0  0  0  0  0
    3.4345  -11.5516    3.2613 H   0  0  0  0  0  0  0  0  0  0  0  0
    5.3158   -9.6197    3.7848 H   0  0  0  0  0  0  0  0  0  0  0  0
    4.9639  -10.8873    1.3258 H   0  0  0  0  0  0  0  0  0  0  0  0
    3.7462   -8.5970    1.4372 H   0  0  0  0  0  0  0  0  0  0  0  0
    5.2186   -6.7638    3.3057 H   0  0  0  0  0  0  0  0  0  0  0  0
    6.4141   -6.0982    1.4458 H   0  0  0  0  0  0  0  0  0  0  0  0
    5.9953   -7.6575    0.8060 H   0  0  0  0  0  0  0  0  0  0  0  0
    4.4770   -6.7132   -0.7120 H   0  0  0  0  0  0  0  0  0  0  0  0
    5.2339   -2.5750   -1.5469 H   0  0  0  0  0  0  0  0  0  0  0  0
    3.5911   -3.1722   -1.6575 H   0  0  0  0  0  0  0  0  0  0  0  0
    3.6440   -0.6951   -1.2039 H   0  0  0  0  0  0  0  0  0  0  0  0
    2.8541   -1.5486    0.1029 H   0  0  0  0  0  0  0  0  0  0  0  0
    5.7432   -0.5136    0.0857 H   0  0  0  0  0  0  0  0  0  0  0  0
    4.4150    0.1368    1.0002 H   0  0  0  0  0  0  0  0  0  0  0  0
    5.9302   -1.3481    2.3913 H   0  0  0  0  0  0  0  0  0  0  0  0
    4.2482   -1.8743    2.3947 H   0  0  0  0  0  0  0  0  0  0  0  0
    2.5269   -5.8906    0.1966 H   0  0  0  0  0  0  0  0  0  0  0  0
    3.4314   -5.3259    2.9374 H   0  0  0  0  0  0  0  0  0  0  0  0
    1.4139   -6.5710    3.0827 H   0  0  0  0  0  0  0  0  0  0  0  0
    1.7456   -7.4985    1.6246 H   0  0  0  0  0  0  0  0  0  0  0  0
    3.7934   -8.4794    5.2771 H   0  0  0  0  0  0  0  0  0  0  0  0
    3.4036   -6.8168    4.9326 H   0  0  0  0  0  0  0  0  0  0  0  0
    1.8794   -7.8198    6.6463 H   0  0  0  0  0  0  0  0  0  0  0  0
    0.9919   -7.2852    5.2512 H   0  0  0  0  0  0  0  0  0  0  0  0
    1.7208  -10.1320    6.0312 H   0  0  0  0  0  0  0  0  0  0  0  0
   -0.7214  -10.1400    5.6686 H   0  0  0  0  0  0  0  0  0  0  0  0
  1  2  1  0
  1 29  1  0
  1 30  1  0
  1 31  1  0
  2 27  1  0
  2  3  1  0
  2  4  1  0
  3 32  1  0
  3 33  1  0
  3 34  1  0
  4 24  1  0
  4  5  2  0
  5  6  1  0
  5 35  1  0
  6  7  1  0
  6  8  1  0
  6 36  1  1
  7 37  1  0
  8 24  1  0
  8  9  1  0
  8 38  1  6
  9 22  1  0
  9 10  1  0
  9 39  1  1
 10 11  1  0
 10 40  1  0
 10 41  1  0
 11 21  1  0
 11 12  1  0
 11 42  1  6
 13 12  1  6
 13 18  1  0
 13 14  1  0
 13 20  1  0
 14 15  1  0
 14 43  1  0
 14 44  1  0
 15 16  1  0
 15 45  1  0
 15 46  1  0
 16 17  1  0
 16 47  1  0
 16 48  1  0
 17 18  1  0
 17 49  1  0
 17 50  1  0
 18 19  2  0
 20 21  1  0
 21 22  1  0
 21 51  1  6
 22 23  1  0
 22 52  1  1
 24 23  1  6
 23 53  1  0
 23 54  1  0
 24 25  1  0
 25 26  1  0
 25 55  1  0
 25 56  1  0
 26 27  1  0
 26 57  1  0
 26 58  1  0
 27 28  1  0
 27 59  1  1
 28 60  1  0
M  END
>  <i_m_ct_stereo_status>  (150) 
1

>  <s_m_source_file>  (150) 
/var/tmp/pbs.5076255.sched01/tmpmtrcy7mx/460f9z2a7c.sdf

>  <i_m_source_file_index>  (150) 
21

>  <i_lp_mmshare_version>  (150) 
48012

>  <i_f3d_flags>  (150) 
0

>  <s_epik_input>  (150) 
W0NIMl0xW0NIMl1bQ0BASF0oW09IXSlDKFtDSDNdKShbQ0gzXSlDKD1bQ0hdW0NASF0yW09IXSlbQ0BdMShbQ0gyXTMpW0NASF0yW0NAQEhdKFtDSDJdNClbQ0BIXTNbQ0BASF0oTzUpW0NASF00T1tDQEBdNTZbQ0gyXVtDSDJdW0NIMl1bQ0gyXUM2PU8=

>  <s_epik_cmdline>  (150) 
J2VwaWtfcHl0aG9uJywgJy1waHQnLCAnMi4wJywgJy1waCcsICc3LjAnLCAnLXRuJywgJzgnLCAnLW1hJywgJzIwMCcsICctaW1hZScsICc8aW5maWxlLm1hZT4nLCAnLW9tYWUnLCAnPG91dGZpbGUubWFlPic=

>  <r_lp_tautomer_probability>  (150) 
1

>  <r_epik_Ionization_Penalty>  (150) 
9.46113e-07

>  <r_epik_Ionization_Penalty_Charging>  (150) 
0

>  <r_epik_Ionization_Penalty_Neutral>  (150) 
9.46113e-07

>  <r_epik_State_Penalty>  (150) 
-0

>  <r_epik_Charging_Adjusted_Penalty>  (150) 
0

>  <i_epik_Tot_Q>  (150) 
0

>  <i_epik_Tot_abs_Q>  (150) 
0

>  <s_lp_Force_Field>  (150) 
OPLS3e

>  <r_lp_Energy>  (150) 
39.4059

>  <b_lp_Chiralities_Consistent>  (150) 
1

>  <s_lp_Variant>  (150) 
33:0-1

>  <s_i_glide_gridfile>  (150) 
pfpi4k_grid

>  <i_i_glide_lignum>  (150) 
21

>  <i_i_glide_rotatable_bonds>  (150) 
2

>  <r_i_docking_score>  (150) 
-4.20638

>  <r_i_glide_ligand_efficiency>  (150) 
-0.150228

>  <r_i_glide_ligand_efficiency_sa>  (150) 
-0.45618

>  <r_i_glide_ligand_efficiency_ln>  (150) 
-0.970956

>  <r_i_glide_gscore>  (150) 
-4.20638

>  <r_i_glide_lipo>  (150) 
-0.396912

>  <r_i_glide_hbond>  (150) 
-0.304

>  <r_i_glide_metal>  (150) 
-0

>  <r_i_glide_rewards>  (150) 
-0.888298

>  <r_i_glide_evdw>  (150) 
-29.0068

>  <r_i_glide_ecoul>  (150) 
-7.77888

>  <r_i_glide_erotb>  (150) 
0

>  <r_i_glide_esite>  (150) 
0

>  <r_i_glide_emodel>  (150) 
-46.5764

>  <r_i_glide_energy>  (150) 
-36.7857

>  <r_i_glide_einternal>  (150) 
1.58686

>  <r_i_glide_intrahb_reward>  (150) 
-0

>  <i_i_glide_confnum>  (150) 
3

>  <i_i_glide_posenum>  (150) 
18

>  <r_i_glide_eff_state_penalty>  (150) 
0

>  <ligand_id>  (150) 
33

>  <original_smiles>  (150) 
CC1(C)C2=CC(O)C3C4CC5OC6(CCCCC6=O)OC5C4CC23CCC1O

>  <smiles>  (150) 
[H]OC1([H])C([H])=C2C(C([H])([H])[H])(C([H])([H])[H])C([H])(O[H])C([H])([H])C([H])([H])C23C([H])([H])C2([H])C4([H])OC5(OC4([H])C([H])([H])C2([H])C13[H])C(=O)C([H])([H])C([H])([H])C([H])([H])C5([H])[H]

$$$$
33:0:1
     RDKit          3D

 60 65  0  0  1  0  0  0  0  0999 V2000
   -0.5236   -8.0683    2.1133 C   0  0  0  0  0  0  0  0  0  0  0  0
    0.4293   -8.9029    3.0011 C   0  0  0  0  0  0  0  0  0  0  0  0
   -0.0118  -10.3578    2.9425 C   0  0  0  0  0  0  0  0  0  0  0  0
    1.8731   -8.7664    2.5509 C   0  0  0  0  0  0  0  0  0  0  0  0
    2.8045   -9.7327    2.4189 C   0  0  0  0  0  0  0  0  0  0  0  0
    4.2135   -9.1598    2.3363 C   0  0  1  0  0  0  0  0  0  0  0  0
    5.0229   -9.8187    1.3734 O   0  0  0  0  0  0  0  0  0  0  0  0
    3.8147   -7.7401    1.9165 C   0  0  2  0  0  0  0  0  0  0  0  0
    4.5930   -6.4331    1.9699 C   0  0  1  0  0  0  0  0  0  0  0  0
    5.6409   -6.2567    0.8729 C   0  0  0  0  0  0  0  0  0  0  0  0
    4.9903   -5.4186   -0.2425 C   0  0  2  0  0  0  0  0  0  0  0  0
    5.7747   -4.3253   -0.6603 O   0  0  0  0  0  0  0  0  0  0  0  0
    5.2296   -3.1693   -0.1191 C   0  0  2  0  0  0  0  0  0  0  0  0
    5.1984   -2.1057   -1.2301 C   0  0  0  0  0  0  0  0  0  0  0  0
    4.7905   -0.7475   -0.6456 C   0  0  0  0  0  0  0  0  0  0  0  0
    5.7549   -0.3197    0.4788 C   0  0  0  0  0  0  0  0  0  0  0  0
    5.8058   -1.3247    1.6336 C   0  0  0  0  0  0  0  0  0  0  0  0
    6.0682   -2.7266    1.0893 C   0  0  0  0  0  0  0  0  0  0  0  0
    6.9199   -3.4564    1.5912 O   0  0  0  0  0  0  0  0  0  0  0  0
    3.9278   -3.4061    0.3222 O   0  0  0  0  0  0  0  0  0  0  0  0
    3.6971   -4.8041    0.2940 C   0  0  2  0  0  0  0  0  0  0  0  0
    3.4543   -5.4045    1.6924 C   0  0  1  0  0  0  0  0  0  0  0  0
    2.1106   -6.1855    1.8263 C   0  0  0  0  0  0  0  0  0  0  0  0
    2.5203   -7.4172    2.6485 C   0  0  1  0  0  0  0  0  0  0  0  0
    2.5604   -7.0979    4.1640 C   0  0  0  0  0  0  0  0  0  0  0  0
    1.1328   -7.1145    4.7633 C   0  0  0  0  0  0  0  0  0  0  0  0
    0.3710   -8.4329    4.4804 C   0  0  1  0  0  0  0  0  0  0  0  0
   -0.9807   -8.3013    4.8832 O   0  0  0  0  0  0  0  0  0  0  0  0
   -1.5694   -8.3319    2.2813 H   0  0  0  0  0  0  0  0  0  0  0  0
   -0.3212   -8.2362    1.0589 H   0  0  0  0  0  0  0  0  0  0  0  0
   -0.4310   -7.0013    2.3170 H   0  0  0  0  0  0  0  0  0  0  0  0
   -1.0449  -10.3931    3.2753 H   0  0  0  0  0  0  0  0  0  0  0  0
    0.5621  -11.0035    3.6141 H   0  0  0  0  0  0  0  0  0  0  0  0
    0.0413  -10.7742    1.9329 H   0  0  0  0  0  0  0  0  0  0  0  0
    2.6224  -10.7896    2.5091 H   0  0  0  0  0  0  0  0  0  0  0  0
    4.6736   -9.1863    3.3265 H   0  0  0  0  0  0  0  0  0  0  0  0
    4.6013  -10.6242    1.0773 H   0  0  0  0  0  0  0  0  0  0  0  0
    3.5676   -7.8700    0.8593 H   0  0  0  0  0  0  0  0  0  0  0  0
    5.0340   -6.3036    2.9610 H   0  0  0  0  0  0  0  0  0  0  0  0
    6.5320   -5.7799    1.2807 H   0  0  0  0  0  0  0  0  0  0  0  0
    5.9612   -7.2215    0.4931 H   0  0  0  0  0  0  0  0  0  0  0  0
    4.7838   -6.0457   -1.1073 H   0  0  0  0  0  0  0  0  0  0  0  0
    6.1882   -2.0457   -1.6806 H   0  0  0  0  0  0  0  0  0  0  0  0
    4.5068   -2.4132   -2.0143 H   0  0  0  0  0  0  0  0  0  0  0  0
    4.7998   -0.0194   -1.4587 H   0  0  0  0  0  0  0  0  0  0  0  0
    3.7666   -0.7696   -0.2663 H   0  0  0  0  0  0  0  0  0  0  0  0
    6.7598   -0.1572    0.0803 H   0  0  0  0  0  0  0  0  0  0  0  0
    5.4263    0.6315    0.8825 H   0  0  0  0  0  0  0  0  0  0  0  0
    6.5802   -1.0443    2.3531 H   0  0  0  0  0  0  0  0  0  0  0  0
    4.8488   -1.3252    2.1582 H   0  0  0  0  0  0  0  0  0  0  0  0
    2.8705   -4.9878   -0.3935 H   0  0  0  0  0  0  0  0  0  0  0  0
    3.5139   -4.6195    2.4481 H   0  0  0  0  0  0  0  0  0  0  0  0
    1.3479   -5.5741    2.3029 H   0  0  0  0  0  0  0  0  0  0  0  0
    1.7223   -6.5028    0.8568 H   0  0  0  0  0  0  0  0  0  0  0  0
    3.1572   -7.8513    4.6769 H   0  0  0  0  0  0  0  0  0  0  0  0
    3.0463   -6.1403    4.3631 H   0  0  0  0  0  0  0  0  0  0  0  0
    1.1972   -6.9633    5.8423 H   0  0  0  0  0  0  0  0  0  0  0  0
    0.5647   -6.2722    4.3750 H   0  0  0  0  0  0  0  0  0  0  0  0
    0.8192   -9.2008    5.1113 H   0  0  0  0  0  0  0  0  0  0  0  0
   -1.3475   -9.1792    4.9449 H   0  0  0  0  0  0  0  0  0  0  0  0
  1  2  1  0
  1 29  1  0
  1 30  1  0
  1 31  1  0
  2 27  1  0
  2  3  1  0
  2  4  1  0
  3 32  1  0
  3 33  1  0
  3 34  1  0
  4 24  1  0
  4  5  2  0
  5  6  1  0
  5 35  1  0
  6  7  1  0
  6  8  1  0
  6 36  1  1
  7 37  1  0
  8 24  1  0
  8  9  1  0
  8 38  1  6
  9 22  1  0
  9 10  1  0
  9 39  1  1
 10 11  1  0
 10 40  1  0
 10 41  1  0
 11 21  1  0
 11 12  1  0
 11 42  1  6
 13 12  1  6
 13 18  1  0
 13 14  1  0
 13 20  1  0
 14 15  1  0
 14 43  1  0
 14 44  1  0
 15 16  1  0
 15 45  1  0
 15 46  1  0
 16 17  1  0
 16 47  1  0
 16 48  1  0
 17 18  1  0
 17 49  1  0
 17 50  1  0
 18 19  2  0
 20 21  1  0
 21 22  1  0
 21 51  1  6
 22 23  1  0
 22 52  1  1
 24 23  1  6
 23 53  1  0
 23 54  1  0
 24 25  1  0
 25 26  1  0
 25 55  1  0
 25 56  1  0
 26 27  1  0
 26 57  1  0
 26 58  1  0
 27 28  1  0
 27 59  1  1
 28 60  1  0
M  END
>  <i_m_ct_stereo_status>  (151) 
1

>  <s_m_source_file>  (151) 
/var/tmp/pbs.5076255.sched01/tmpmtrcy7mx/460f9z2a7c.sdf

>  <i_m_source_file_index>  (151) 
21

>  <i_lp_mmshare_version>  (151) 
48012

>  <i_f3d_flags>  (151) 
0

>  <s_epik_input>  (151) 
W0NIMl0xW0NIMl1bQ0BASF0oW09IXSlDKFtDSDNdKShbQ0gzXSlDKD1bQ0hdW0NASF0yW09IXSlbQ0BdMShbQ0gyXTMpW0NASF0yW0NAQEhdKFtDSDJdNClbQ0BIXTNbQ0BASF0oTzUpW0NASF00T1tDQEBdNTZbQ0gyXVtDSDJdW0NIMl1bQ0gyXUM2PU8=

>  <s_epik_cmdline>  (151) 
J2VwaWtfcHl0aG9uJywgJy1waHQnLCAnMi4wJywgJy1waCcsICc3LjAnLCAnLXRuJywgJzgnLCAnLW1hJywgJzIwMCcsICctaW1hZScsICc8aW5maWxlLm1hZT4nLCAnLW9tYWUnLCAnPG91dGZpbGUubWFlPic=

>  <r_lp_tautomer_probability>  (151) 
1

>  <r_epik_Ionization_Penalty>  (151) 
9.46113e-07

>  <r_epik_Ionization_Penalty_Charging>  (151) 
0

>  <r_epik_Ionization_Penalty_Neutral>  (151) 
9.46113e-07

>  <r_epik_State_Penalty>  (151) 
-0

>  <r_epik_Charging_Adjusted_Penalty>  (151) 
0

>  <i_epik_Tot_Q>  (151) 
0

>  <i_epik_Tot_abs_Q>  (151) 
0

>  <s_lp_Force_Field>  (151) 
OPLS3e

>  <r_lp_Energy>  (151) 
39.4059

>  <b_lp_Chiralities_Consistent>  (151) 
1

>  <s_lp_Variant>  (151) 
33:0-1

>  <s_i_glide_gridfile>  (151) 
pfpi4k_grid

>  <i_i_glide_lignum>  (151) 
21

>  <i_i_glide_rotatable_bonds>  (151) 
2

>  <r_i_docking_score>  (151) 
-3.95158

>  <r_i_glide_ligand_efficiency>  (151) 
-0.141128

>  <r_i_glide_ligand_efficiency_sa>  (151) 
-0.428547

>  <r_i_glide_ligand_efficiency_ln>  (151) 
-0.912141

>  <r_i_glide_gscore>  (151) 
-3.95158

>  <r_i_glide_lipo>  (151) 
-0.454155

>  <r_i_glide_hbond>  (151) 
-0.294882

>  <r_i_glide_metal>  (151) 
-0

>  <r_i_glide_rewards>  (151) 
-0.940872

>  <r_i_glide_evdw>  (151) 
-23.2751

>  <r_i_glide_ecoul>  (151) 
-7.31944

>  <r_i_glide_erotb>  (151) 
0

>  <r_i_glide_esite>  (151) 
0

>  <r_i_glide_emodel>  (151) 
-39.8158

>  <r_i_glide_energy>  (151) 
-30.5945

>  <r_i_glide_einternal>  (151) 
1.44063

>  <r_i_glide_intrahb_reward>  (151) 
-0

>  <i_i_glide_confnum>  (151) 
3

>  <i_i_glide_posenum>  (151) 
9

>  <r_i_glide_eff_state_penalty>  (151) 
0

>  <ligand_id>  (151) 
33

>  <original_smiles>  (151) 
CC1(C)C2=CC(O)C3C4CC5OC6(CCCCC6=O)OC5C4CC23CCC1O

>  <smiles>  (151) 
[H]OC1([H])C([H])=C2C(C([H])([H])[H])(C([H])([H])[H])C([H])(O[H])C([H])([H])C([H])([H])C23C([H])([H])C2([H])C4([H])OC5(OC4([H])C([H])([H])C2([H])C13[H])C(=O)C([H])([H])C([H])([H])C([H])([H])C5([H])[H]

$$$$
33:0:2
     RDKit          3D

 60 65  0  0  1  0  0  0  0  0999 V2000
    1.7716   -8.9198    2.0527 C   0  0  0  0  0  0  0  0  0  0  0  0
    1.0209   -9.1909    3.3699 C   0  0  0  0  0  0  0  0  0  0  0  0
    1.3885  -10.6179    3.8405 C   0  0  0  0  0  0  0  0  0  0  0  0
    1.4113   -8.1436    4.4080 C   0  0  0  0  0  0  0  0  0  0  0  0
    1.7293   -8.3182    5.7088 C   0  0  0  0  0  0  0  0  0  0  0  0
    1.6650   -7.0178    6.5000 C   0  0  1  0  0  0  0  0  0  0  0  0
    2.7178   -6.9009    7.4346 O   0  0  0  0  0  0  0  0  0  0  0  0
    1.7953   -6.0551    5.3173 C   0  0  2  0  0  0  0  0  0  0  0  0
    1.4645   -4.5724    5.2148 C   0  0  1  0  0  0  0  0  0  0  0  0
    2.4962   -3.6241    5.8374 C   0  0  0  0  0  0  0  0  0  0  0  0
    3.4062   -3.1366    4.6964 C   0  0  2  0  0  0  0  0  0  0  0  0
    3.5368   -1.7291    4.6708 O   0  0  0  0  0  0  0  0  0  0  0  0
    2.7653   -1.2243    3.6218 C   0  0  2  0  0  0  0  0  0  0  0  0
    3.6256   -0.2064    2.8399 C   0  0  0  0  0  0  0  0  0  0  0  0
    2.7765    0.5420    1.7913 C   0  0  0  0  0  0  0  0  0  0  0  0
    1.5756    1.2525    2.4434 C   0  0  0  0  0  0  0  0  0  0  0  0
    0.6644    0.2664    3.1892 C   0  0  0  0  0  0  0  0  0  0  0  0
    1.4658   -0.5817    4.1740 C   0  0  0  0  0  0  0  0  0  0  0  0
    1.0666   -0.7316    5.3267 O   0  0  0  0  0  0  0  0  0  0  0  0
    2.4067   -2.2644    2.7631 O   0  0  0  0  0  0  0  0  0  0  0  0
    2.7568   -3.5028    3.3606 C   0  0  2  0  0  0  0  0  0  0  0  0
    1.5224   -4.3762    3.6698 C   0  0  1  0  0  0  0  0  0  0  0  0
    1.5698   -5.8091    3.0407 C   0  0  0  0  0  0  0  0  0  0  0  0
    1.0274   -6.7003    4.1722 C   0  0  1  0  0  0  0  0  0  0  0  0
   -0.5156   -6.6987    4.2066 C   0  0  0  0  0  0  0  0  0  0  0  0
   -1.0816   -7.6324    3.1130 C   0  0  0  0  0  0  0  0  0  0  0  0
   -0.5301   -9.0735    3.2022 C   0  0  1  0  0  0  0  0  0  0  0  0
   -1.0261   -9.8194    2.1069 O   0  0  0  0  0  0  0  0  0  0  0  0
    1.6824   -9.7621    1.3646 H   0  0  0  0  0  0  0  0  0  0  0  0
    2.8362   -8.7488    2.2250 H   0  0  0  0  0  0  0  0  0  0  0  0
    1.3621   -8.0470    1.5428 H   0  0  0  0  0  0  0  0  0  0  0  0
    1.1154  -11.3589    3.0871 H   0  0  0  0  0  0  0  0  0  0  0  0
    0.8702  -10.8931    4.7611 H   0  0  0  0  0  0  0  0  0  0  0  0
    2.4622  -10.7181    4.0165 H   0  0  0  0  0  0  0  0  0  0  0  0
    1.8715   -9.2724    6.1913 H   0  0  0  0  0  0  0  0  0  0  0  0
    0.6996   -6.9310    7.0040 H   0  0  0  0  0  0  0  0  0  0  0  0
    3.5343   -7.1064    7.0088 H   0  0  0  0  0  0  0  0  0  0  0  0
    2.8597   -6.1086    5.0691 H   0  0  0  0  0  0  0  0  0  0  0  0
    0.4644   -4.3844    5.6113 H   0  0  0  0  0  0  0  0  0  0  0  0
    1.9806   -2.7875    6.3098 H   0  0  0  0  0  0  0  0  0  0  0  0
    3.0735   -4.1074    6.6270 H   0  0  0  0  0  0  0  0  0  0  0  0
    4.3911   -3.5977    4.7844 H   0  0  0  0  0  0  0  0  0  0  0  0
    4.0511    0.5009    3.5502 H   0  0  0  0  0  0  0  0  0  0  0  0
    4.4656   -0.7195    2.3689 H   0  0  0  0  0  0  0  0  0  0  0  0
    3.3981    1.2898    1.2975 H   0  0  0  0  0  0  0  0  0  0  0  0
    2.4293   -0.1416    1.0133 H   0  0  0  0  0  0  0  0  0  0  0  0
    1.9238    2.0363    3.1217 H   0  0  0  0  0  0  0  0  0  0  0  0
    0.9948    1.7618    1.6753 H   0  0  0  0  0  0  0  0  0  0  0  0
   -0.1206    0.8013    3.7311 H   0  0  0  0  0  0  0  0  0  0  0  0
    0.1862   -0.4063    2.4772 H   0  0  0  0  0  0  0  0  0  0  0  0
    3.4752   -4.0060    2.7110 H   0  0  0  0  0  0  0  0  0  0  0  0
    0.6172   -3.8553    3.3550 H   0  0  0  0  0  0  0  0  0  0  0  0
    0.9903   -5.8619    2.1207 H   0  0  0  0  0  0  0  0  0  0  0  0
    2.5900   -6.1090    2.7955 H   0  0  0  0  0  0  0  0  0  0  0  0
   -0.8640   -7.0440    5.1788 H   0  0  0  0  0  0  0  0  0  0  0  0
   -0.9080   -5.6943    4.0864 H   0  0  0  0  0  0  0  0  0  0  0  0
   -2.1672   -7.6763    3.2111 H   0  0  0  0  0  0  0  0  0  0  0  0
   -0.8783   -7.2241    2.1246 H   0  0  0  0  0  0  0  0  0  0  0  0
   -0.9876   -9.4900    4.0956 H   0  0  0  0  0  0  0  0  0  0  0  0
   -0.4896   -9.6572    1.3385 H   0  0  0  0  0  0  0  0  0  0  0  0
  1  2  1  0
  1 29  1  0
  1 30  1  0
  1 31  1  0
  2 27  1  0
  2  3  1  0
  2  4  1  0
  3 32  1  0
  3 33  1  0
  3 34  1  0
  4 24  1  0
  4  5  2  0
  5  6  1  0
  5 35  1  0
  6  7  1  0
  6  8  1  0
  6 36  1  1
  7 37  1  0
  8 24  1  0
  8  9  1  0
  8 38  1  6
  9 22  1  0
  9 10  1  0
  9 39  1  1
 10 11  1  0
 10 40  1  0
 10 41  1  0
 11 21  1  0
 11 12  1  0
 11 42  1  1
 13 12  1  1
 13 18  1  0
 13 14  1  0
 13 20  1  0
 14 15  1  0
 14 43  1  0
 14 44  1  0
 15 16  1  0
 15 45  1  0
 15 46  1  0
 16 17  1  0
 16 47  1  0
 16 48  1  0
 17 18  1  0
 17 49  1  0
 17 50  1  0
 18 19  2  0
 20 21  1  0
 21 22  1  0
 21 51  1  6
 22 23  1  0
 22 52  1  6
 24 23  1  6
 23 53  1  0
 23 54  1  0
 24 25  1  0
 25 26  1  0
 25 55  1  0
 25 56  1  0
 26 27  1  0
 26 57  1  0
 26 58  1  0
 27 28  1  0
 27 59  1  1
 28 60  1  0
M  END
>  <i_m_ct_stereo_status>  (152) 
1

>  <s_m_source_file>  (152) 
/var/tmp/pbs.5076255.sched01/tmpmtrcy7mx/460f9z2a7c.sdf

>  <i_m_source_file_index>  (152) 
21

>  <i_lp_mmshare_version>  (152) 
48012

>  <i_f3d_flags>  (152) 
0

>  <s_epik_input>  (152) 
W0NIMl0xW0NIMl1bQ0BASF0oW09IXSlDKFtDSDNdKShbQ0gzXSlDKD1bQ0hdW0NASF0yW09IXSlbQ0BdMShbQ0gyXTMpW0NASF0yW0NAQEhdKFtDSDJdNClbQ0BIXTNbQ0BASF0oTzUpW0NASF00T1tDQEBdNTZbQ0gyXVtDSDJdW0NIMl1bQ0gyXUM2PU8=

>  <s_epik_cmdline>  (152) 
J2VwaWtfcHl0aG9uJywgJy1waHQnLCAnMi4wJywgJy1waCcsICc3LjAnLCAnLXRuJywgJzgnLCAnLW1hJywgJzIwMCcsICctaW1hZScsICc8aW5maWxlLm1hZT4nLCAnLW9tYWUnLCAnPG91dGZpbGUubWFlPic=

>  <r_lp_tautomer_probability>  (152) 
1

>  <r_epik_Ionization_Penalty>  (152) 
9.46113e-07

>  <r_epik_Ionization_Penalty_Charging>  (152) 
0

>  <r_epik_Ionization_Penalty_Neutral>  (152) 
9.46113e-07

>  <r_epik_State_Penalty>  (152) 
-0

>  <r_epik_Charging_Adjusted_Penalty>  (152) 
0

>  <i_epik_Tot_Q>  (152) 
0

>  <i_epik_Tot_abs_Q>  (152) 
0

>  <s_lp_Force_Field>  (152) 
OPLS3e

>  <r_lp_Energy>  (152) 
39.4059

>  <b_lp_Chiralities_Consistent>  (152) 
1

>  <s_lp_Variant>  (152) 
33:0-1

>  <s_i_glide_gridfile>  (152) 
pfpi4k_grid

>  <i_i_glide_lignum>  (152) 
21

>  <i_i_glide_rotatable_bonds>  (152) 
2

>  <r_i_docking_score>  (152) 
-3.22444

>  <r_i_glide_ligand_efficiency>  (152) 
-0.115158

>  <r_i_glide_ligand_efficiency_sa>  (152) 
-0.349689

>  <r_i_glide_ligand_efficiency_ln>  (152) 
-0.744294

>  <r_i_glide_gscore>  (152) 
-3.22444

>  <r_i_glide_lipo>  (152) 
-0.128836

>  <r_i_glide_hbond>  (152) 
-0.32

>  <r_i_glide_metal>  (152) 
-0

>  <r_i_glide_rewards>  (152) 
-0.760246

>  <r_i_glide_evdw>  (152) 
-25.1171

>  <r_i_glide_ecoul>  (152) 
-5.05024

>  <r_i_glide_erotb>  (152) 
0

>  <r_i_glide_esite>  (152) 
-0.00196106

>  <r_i_glide_emodel>  (152) 
-38.2022

>  <r_i_glide_energy>  (152) 
-30.1674

>  <r_i_glide_einternal>  (152) 
0.26271

>  <r_i_glide_intrahb_reward>  (152) 
-0

>  <i_i_glide_confnum>  (152) 
3

>  <i_i_glide_posenum>  (152) 
39

>  <r_i_glide_eff_state_penalty>  (152) 
0

>  <ligand_id>  (152) 
33

>  <original_smiles>  (152) 
CC1(C)C2=CC(O)C3C4CC5OC6(CCCCC6=O)OC5C4CC23CCC1O

>  <smiles>  (152) 
[H]OC1([H])C([H])=C2C(C([H])([H])[H])(C([H])([H])[H])C([H])(O[H])C([H])([H])C([H])([H])C23C([H])([H])C2([H])C4([H])OC5(OC4([H])C([H])([H])C2([H])C13[H])C(=O)C([H])([H])C([H])([H])C([H])([H])C5([H])[H]

$$$$
34:0:0
     RDKit          3D

 68 74  0  0  1  0  0  0  0  0999 V2000
   -1.0686    1.3618    7.7274 C   0  0  0  0  0  0  0  0  0  0  0  0
   -1.3052    0.3566    6.7400 O   0  0  0  0  0  0  0  0  0  0  0  0
   -0.4331    0.2388    5.6653 C   0  0  0  0  0  0  0  0  0  0  0  0
   -0.4216   -0.9233    4.9830 C   0  0  0  0  0  0  0  0  0  0  0  0
    0.5050   -1.1613    3.7934 C   0  0  1  0  0  0  0  0  0  0  0  0
    1.6644   -0.1909    3.7278 C   0  0  0  0  0  0  0  0  0  0  0  0
    1.6113    1.0255    4.3261 C   0  0  0  0  0  0  0  0  0  0  0  0
    2.6532    2.1003    4.2270 C   0  0  0  0  0  0  0  0  0  0  0  0
    0.4621    1.4248    5.2766 C   0  0  1  0  0  0  0  0  0  0  0  0
   -0.3141    2.5921    4.7083 C   0  0  0  0  0  0  0  0  0  0  0  0
   -0.7945    2.7047    3.3619 C   0  0  0  0  0  0  0  0  0  0  0  0
   -1.4517    3.8912    3.2919 C   0  0  0  0  0  0  0  0  0  0  0  0
   -1.3935    4.5545    4.4680 O   0  0  0  0  0  0  0  0  0  0  0  0
   -0.6698    3.7716    5.2931 C   0  0  0  0  0  0  0  0  0  0  0  0
    2.7365   -0.7986    2.7703 C   0  0  1  0  0  0  0  0  0  0  0  0
    2.8775    0.0335    1.4820 C   0  0  0  0  0  0  0  0  0  0  0  0
    4.1491   -1.3531    3.2956 C   0  0  1  0  0  0  0  0  0  0  0  0
    4.8830   -0.9527    4.6247 C   0  0  0  0  0  0  0  0  0  0  0  0
    4.0551   -1.1102    5.9219 C   0  0  0  0  0  0  0  0  0  0  0  0
    5.5954    0.4593    4.6519 C   0  0  0  0  0  0  0  0  0  0  0  0
    4.2068   -2.8973    2.8722 C   0  0  2  0  0  0  0  0  0  0  0  0
    3.1150   -3.0030    1.9724 O   0  0  0  0  0  0  0  0  0  0  0  0
    2.0846   -2.1476    2.4314 C   0  0  1  0  0  0  0  0  0  0  0  0
    1.1488   -2.4967    3.6042 C   0  0  0  0  0  0  0  0  0  0  0  0
    1.7471   -2.8408    4.8765 O   0  0  0  0  0  0  0  0  0  0  0  0
    0.9213   -3.8696    4.3329 C   0  0  2  0  0  0  0  0  0  0  0  0
    1.6962   -5.1706    4.2136 C   0  0  0  0  0  0  0  0  0  0  0  0
    3.0112   -5.1011    3.4570 C   0  0  1  0  0  0  0  0  0  0  0  0
    4.0117   -4.0041    3.9248 C   0  0  1  0  0  0  0  0  0  0  0  0
    4.4254   -5.4756    3.8880 C   0  0  0  0  0  0  0  0  0  0  0  0
    4.6481   -6.1861    5.2072 C   0  0  0  0  0  0  0  0  0  0  0  0
    5.4465   -5.9374    2.8683 C   0  0  0  0  0  0  0  0  0  0  0  0
   -1.7525    1.2399    8.5738 H   0  0  0  0  0  0  0  0  0  0  0  0
   -1.2672    2.3616    7.3620 H   0  0  0  0  0  0  0  0  0  0  0  0
   -0.0529    1.3017    8.1201 H   0  0  0  0  0  0  0  0  0  0  0  0
   -1.1008   -1.7202    5.2413 H   0  0  0  0  0  0  0  0  0  0  0  0
   -0.1091   -0.9596    2.9124 H   0  0  0  0  0  0  0  0  0  0  0  0
    3.0852    2.2191    5.2296 H   0  0  0  0  0  0  0  0  0  0  0  0
    2.2404    3.0551    3.9380 H   0  0  0  0  0  0  0  0  0  0  0  0
    3.4839    1.7935    3.5814 H   0  0  0  0  0  0  0  0  0  0  0  0
    0.9979    1.7711    6.1625 H   0  0  0  0  0  0  0  0  0  0  0  0
   -0.6755    2.0000    2.5474 H   0  0  0  0  0  0  0  0  0  0  0  0
   -1.9710    4.4027    2.4832 H   0  0  0  0  0  0  0  0  0  0  0  0
   -0.5377    4.2041    6.2932 H   0  0  0  0  0  0  0  0  0  0  0  0
    3.3248   -0.5430    0.6742 H   0  0  0  0  0  0  0  0  0  0  0  0
    3.4979    0.9053    1.6060 H   0  0  0  0  0  0  0  0  0  0  0  0
    1.9083    0.3777    1.1201 H   0  0  0  0  0  0  0  0  0  0  0  0
    4.8161   -0.9345    2.5348 H   0  0  0  0  0  0  0  0  0  0  0  0
    5.7014   -1.6582    4.6655 H   0  0  0  0  0  0  0  0  0  0  0  0
    3.1940   -0.4391    5.9184 H   0  0  0  0  0  0  0  0  0  0  0  0
    4.6542   -0.8215    6.7810 H   0  0  0  0  0  0  0  0  0  0  0  0
    3.7057   -2.0951    6.0933 H   0  0  0  0  0  0  0  0  0  0  0  0
    4.9554    1.2368    4.9537 H   0  0  0  0  0  0  0  0  0  0  0  0
    6.0377    0.7111    3.6596 H   0  0  0  0  0  0  0  0  0  0  0  0
    6.4506    0.4172    5.3430 H   0  0  0  0  0  0  0  0  0  0  0  0
    5.1377   -3.0855    2.3250 H   0  0  0  0  0  0  0  0  0  0  0  0
    1.4234   -2.0286    1.5549 H   0  0  0  0  0  0  0  0  0  0  0  0
   -0.0311   -3.9707    4.8516 H   0  0  0  0  0  0  0  0  0  0  0  0
    1.8717   -5.5619    5.2323 H   0  0  0  0  0  0  0  0  0  0  0  0
    1.0614   -5.8994    3.7116 H   0  0  0  0  0  0  0  0  0  0  0  0
    2.8533   -5.2831    2.3792 H   0  0  0  0  0  0  0  0  0  0  0  0
    4.0280   -3.6602    4.9387 H   0  0  0  0  0  0  0  0  0  0  0  0
    5.6638   -6.0254    5.5595 H   0  0  0  0  0  0  0  0  0  0  0  0
    4.4638   -7.2535    5.1077 H   0  0  0  0  0  0  0  0  0  0  0  0
    3.9726   -5.7891    5.9600 H   0  0  0  0  0  0  0  0  0  0  0  0
    6.4480   -5.6867    3.2086 H   0  0  0  0  0  0  0  0  0  0  0  0
    5.2729   -5.4447    1.9106 H   0  0  0  0  0  0  0  0  0  0  0  0
    5.3826   -7.0187    2.7191 H   0  0  0  0  0  0  0  0  0  0  0  0
  1  2  1  0
  1 33  1  0
  1 34  1  0
  1 35  1  0
  2  3  1  0
  3  9  1  0
  3  4  2  0
  4  5  1  0
  4 36  1  0
  5 24  1  0
  5  6  1  0
  5 37  1  6
  6  7  2  0
  6 15  1  0
  7  8  1  0
  7  9  1  0
  8 38  1  0
  8 39  1  0
  8 40  1  0
  9 10  1  0
  9 41  1  1
 10 14  2  0
 10 11  1  0
 11 12  2  0
 11 42  1  0
 12 13  1  0
 12 43  1  0
 13 14  1  0
 14 44  1  0
 15 23  1  0
 15 16  1  6
 15 17  1  0
 16 45  1  0
 16 46  1  0
 16 47  1  0
 17 18  1  0
 17 21  1  0
 17 48  1  6
 18 19  1  0
 18 20  1  0
 18 49  1  0
 19 50  1  0
 19 51  1  0
 19 52  1  0
 20 53  1  0
 20 54  1  0
 20 55  1  0
 21 29  1  0
 21 22  1  0
 21 56  1  6
 22 23  1  0
 23 24  1  0
 23 57  1  6
 24 26  1  0
 24 25  1  0
 25 26  1  0
 26 27  1  0
 26 58  1  1
 27 28  1  0
 27 59  1  0
 27 60  1  0
 28 30  1  0
 28 29  1  0
 28 61  1  6
 29 30  1  0
 29 62  1  1
 30 31  1  0
 30 32  1  0
 31 63  1  0
 31 64  1  0
 31 65  1  0
 32 66  1  0
 32 67  1  0
 32 68  1  0
M  END
>  <i_m_ct_stereo_status>  (153) 
1

>  <s_m_source_file>  (153) 
/var/tmp/pbs.5076255.sched01/tmpmtrcy7mx/460f9z2a7c.sdf

>  <i_m_source_file_index>  (153) 
22

>  <i_lp_mmshare_version>  (153) 
48012

>  <i_f3d_flags>  (153) 
0

>  <s_epik_input>  (153) 
W2NIXTFvW2NIXVtjSF1jMVtDQEBIXShDKD1bQ0hdMilPW0NIM10pQyhbQ0gzXSk9QyhbQ0BIXTJbQ0BAXTM0NSlbQ0BdNihbQ0gzXSlbQ0BIXTNPW0NAQEhdKFtDQEBIXTZbQ0hdKFtDSDNdKVtDSDNdKVtDQEhdN1tDQEhdKFtDSDJdW0NASF01TzQpQzcoW0NIM10pW0NIM10=

>  <s_epik_cmdline>  (153) 
J2VwaWtfcHl0aG9uJywgJy1waHQnLCAnMi4wJywgJy1waCcsICc3LjAnLCAnLXRuJywgJzgnLCAnLW1hJywgJzIwMCcsICctaW1hZScsICc8aW5maWxlLm1hZT4nLCAnLW9tYWUnLCAnPG91dGZpbGUubWFlPic=

>  <r_lp_tautomer_probability>  (153) 
1

>  <r_epik_Ionization_Penalty>  (153) 
4.50087e-12

>  <r_epik_Ionization_Penalty_Charging>  (153) 
0

>  <r_epik_Ionization_Penalty_Neutral>  (153) 
4.50087e-12

>  <r_epik_State_Penalty>  (153) 
-0

>  <r_epik_Charging_Adjusted_Penalty>  (153) 
0

>  <i_epik_Tot_Q>  (153) 
0

>  <i_epik_Tot_abs_Q>  (153) 
0

>  <s_lp_Force_Field>  (153) 
OPLS3e

>  <r_lp_Energy>  (153) 
76.6802

>  <b_lp_Chiralities_Consistent>  (153) 
1

>  <s_lp_Variant>  (153) 
34:0-1

>  <s_i_glide_gridfile>  (153) 
pfpi4k_grid

>  <i_i_glide_lignum>  (153) 
22

>  <i_i_glide_rotatable_bonds>  (153) 
3

>  <r_i_docking_score>  (153) 
-2.32685

>  <r_i_glide_ligand_efficiency>  (153) 
-0.072714

>  <r_i_glide_ligand_efficiency_sa>  (153) 
-0.230853

>  <r_i_glide_ligand_efficiency_ln>  (153) 
-0.521045

>  <r_i_glide_gscore>  (153) 
-2.32685

>  <r_i_glide_lipo>  (153) 
-0.249125

>  <r_i_glide_hbond>  (153) 
-0.234639

>  <r_i_glide_metal>  (153) 
-0

>  <r_i_glide_rewards>  (153) 
-0.432388

>  <r_i_glide_evdw>  (153) 
-20.4816

>  <r_i_glide_ecoul>  (153) 
-3.27468

>  <r_i_glide_erotb>  (153) 
0.104583

>  <r_i_glide_esite>  (153) 
0

>  <r_i_glide_emodel>  (153) 
-24.0638

>  <r_i_glide_energy>  (153) 
-23.7562

>  <r_i_glide_einternal>  (153) 
5.05536

>  <r_i_glide_intrahb_reward>  (153) 
-0

>  <i_i_glide_confnum>  (153) 
1

>  <i_i_glide_posenum>  (153) 
3

>  <r_i_glide_eff_state_penalty>  (153) 
0

>  <ligand_id>  (153) 
34

>  <original_smiles>  (153) 
COC1=CC2C(=C(C)C1c1ccoc1)C1(C)C(C(C)C)C3OC1C21OC1CC1C3C1(C)C

>  <smiles>  (153) 
[H]C1=C(OC([H])([H])[H])C([H])(c2c([H])oc([H])c2[H])C(C([H])([H])[H])=C2C1([H])C13OC1([H])C([H])([H])C1([H])C([H])(C4([H])OC3([H])C2(C([H])([H])[H])C4([H])C([H])(C([H])([H])[H])C([H])([H])[H])C1(C([H])([H])[H])C([H])([H])[H]

$$$$
34:0:1
     RDKit          3D

 68 74  0  0  1  0  0  0  0  0999 V2000
   -1.9689    2.7082    7.2855 C   0  0  0  0  0  0  0  0  0  0  0  0
   -2.0385    1.4517    6.6153 O   0  0  0  0  0  0  0  0  0  0  0  0
   -1.0840    1.1666    5.6532 C   0  0  0  0  0  0  0  0  0  0  0  0
   -0.9299   -0.1140    5.2770 C   0  0  0  0  0  0  0  0  0  0  0  0
    0.0568   -0.5238    4.2040 C   0  0  1  0  0  0  0  0  0  0  0  0
    1.1322    0.5235    3.9407 C   0  0  0  0  0  0  0  0  0  0  0  0
    0.9566    1.8281    4.2595 C   0  0  0  0  0  0  0  0  0  0  0  0
    1.9812    2.9184    3.9881 C   0  0  0  0  0  0  0  0  0  0  0  0
   -0.3011    2.3255    4.9991 C   0  0  1  0  0  0  0  0  0  0  0  0
   -1.1951    3.2029    4.1266 C   0  0  0  0  0  0  0  0  0  0  0  0
   -2.4793    2.8738    3.6117 C   0  0  0  0  0  0  0  0  0  0  0  0
   -2.9044    3.9420    2.8760 C   0  0  0  0  0  0  0  0  0  0  0  0
   -1.9894    4.9405    2.9118 O   0  0  0  0  0  0  0  0  0  0  0  0
   -0.9626    4.4764    3.6790 C   0  0  0  0  0  0  0  0  0  0  0  0
    2.3012   -0.1721    3.2005 C   0  0  1  0  0  0  0  0  0  0  0  0
    2.4120    0.3515    1.7488 C   0  0  0  0  0  0  0  0  0  0  0  0
    3.7171   -0.4195    3.8576 C   0  0  1  0  0  0  0  0  0  0  0  0
    4.3265    0.4784    4.9863 C   0  0  0  0  0  0  0  0  0  0  0  0
    5.8523    0.2905    5.1297 C   0  0  0  0  0  0  0  0  0  0  0  0
    3.6472    0.4334    6.3644 C   0  0  0  0  0  0  0  0  0  0  0  0
    3.9894   -1.9691    3.8457 C   0  0  2  0  0  0  0  0  0  0  0  0
    2.9623   -2.4278    2.9830 O   0  0  0  0  0  0  0  0  0  0  0  0
    1.8145   -1.6193    3.1804 C   0  0  1  0  0  0  0  0  0  0  0  0
    0.8703   -1.7780    4.3952 C   0  0  1  0  0  0  0  0  0  0  0  0
    1.4178   -1.6984    5.7158 O   0  0  0  0  0  0  0  0  0  0  0  0
    0.7580   -2.9155    5.4310 C   0  0  2  0  0  0  0  0  0  0  0  0
    1.6798   -4.1177    5.6648 C   0  0  0  0  0  0  0  0  0  0  0  0
    3.0213   -4.0704    4.9434 C   0  0  1  0  0  0  0  0  0  0  0  0
    3.8519   -2.7948    5.1296 C   0  0  1  0  0  0  0  0  0  0  0  0
    4.4317   -4.1461    5.4912 C   0  0  0  0  0  0  0  0  0  0  0  0
    4.6561   -4.4830    6.9528 C   0  0  0  0  0  0  0  0  0  0  0  0
    5.5458   -4.7239    4.6402 C   0  0  0  0  0  0  0  0  0  0  0  0
   -2.7029    2.7439    8.0940 H   0  0  0  0  0  0  0  0  0  0  0  0
   -2.1748    3.5610    6.6348 H   0  0  0  0  0  0  0  0  0  0  0  0
   -0.9898    2.8368    7.7486 H   0  0  0  0  0  0  0  0  0  0  0  0
   -1.5548   -0.8875    5.6961 H   0  0  0  0  0  0  0  0  0  0  0  0
   -0.5254   -0.6354    3.2907 H   0  0  0  0  0  0  0  0  0  0  0  0
    2.3087    3.3613    4.9276 H   0  0  0  0  0  0  0  0  0  0  0  0
    1.5477    3.6994    3.3710 H   0  0  0  0  0  0  0  0  0  0  0  0
    2.8497    2.5642    3.4471 H   0  0  0  0  0  0  0  0  0  0  0  0
    0.1029    2.9551    5.7862 H   0  0  0  0  0  0  0  0  0  0  0  0
   -3.0263    1.9602    3.7519 H   0  0  0  0  0  0  0  0  0  0  0  0
   -3.7909    4.1353    2.2904 H   0  0  0  0  0  0  0  0  0  0  0  0
   -0.1507    5.1787    3.7911 H   0  0  0  0  0  0  0  0  0  0  0  0
    2.9688   -0.3372    1.1152 H   0  0  0  0  0  0  0  0  0  0  0  0
    2.9174    1.3097    1.6851 H   0  0  0  0  0  0  0  0  0  0  0  0
    1.4326    0.4768    1.2901 H   0  0  0  0  0  0  0  0  0  0  0  0
    4.3654   -0.1121    3.0394 H   0  0  0  0  0  0  0  0  0  0  0  0
    4.2224    1.5055    4.6467 H   0  0  0  0  0  0  0  0  0  0  0  0
    6.1075   -0.7027    5.4934 H   0  0  0  0  0  0  0  0  0  0  0  0
    6.2663    1.0106    5.8348 H   0  0  0  0  0  0  0  0  0  0  0  0
    6.3718    0.4437    4.1843 H   0  0  0  0  0  0  0  0  0  0  0  0
    3.9639   -0.4173    6.9610 H   0  0  0  0  0  0  0  0  0  0  0  0
    2.5658    0.4233    6.2775 H   0  0  0  0  0  0  0  0  0  0  0  0
    3.9159    1.3139    6.9451 H   0  0  0  0  0  0  0  0  0  0  0  0
    4.9630   -2.1806    3.3951 H   0  0  0  0  0  0  0  0  0  0  0  0
    1.1977   -1.7993    2.2949 H   0  0  0  0  0  0  0  0  0  0  0  0
   -0.2075   -3.0115    5.9284 H   0  0  0  0  0  0  0  0  0  0  0  0
    1.8319   -4.2380    6.7381 H   0  0  0  0  0  0  0  0  0  0  0  0
    1.1555   -5.0090    5.3205 H   0  0  0  0  0  0  0  0  0  0  0  0
    2.9510   -4.5313    3.9561 H   0  0  0  0  0  0  0  0  0  0  0  0
    3.6802   -2.1986    6.0117 H   0  0  0  0  0  0  0  0  0  0  0  0
    5.6314   -4.1270    7.2844 H   0  0  0  0  0  0  0  0  0  0  0  0
    4.5999   -5.5601    7.1050 H   0  0  0  0  0  0  0  0  0  0  0  0
    3.8996   -4.0070    7.5742 H   0  0  0  0  0  0  0  0  0  0  0  0
    6.5000   -4.2912    4.9371 H   0  0  0  0  0  0  0  0  0  0  0  0
    5.3778   -4.5020    3.5856 H   0  0  0  0  0  0  0  0  0  0  0  0
    5.6011   -5.8069    4.7585 H   0  0  0  0  0  0  0  0  0  0  0  0
  1  2  1  0
  1 33  1  0
  1 34  1  0
  1 35  1  0
  2  3  1  0
  3  9  1  0
  3  4  2  0
  4  5  1  0
  4 36  1  0
  5 24  1  0
  5  6  1  0
  5 37  1  6
  6  7  2  0
  6 15  1  0
  7  8  1  0
  7  9  1  0
  8 38  1  0
  8 39  1  0
  8 40  1  0
  9 10  1  0
  9 41  1  1
 10 14  2  0
 10 11  1  0
 11 12  2  0
 11 42  1  0
 12 13  1  0
 12 43  1  0
 13 14  1  0
 14 44  1  0
 15 23  1  0
 15 16  1  6
 15 17  1  0
 16 45  1  0
 16 46  1  0
 16 47  1  0
 17 18  1  0
 17 21  1  0
 17 48  1  6
 18 19  1  0
 18 20  1  0
 18 49  1  0
 19 50  1  0
 19 51  1  0
 19 52  1  0
 20 53  1  0
 20 54  1  0
 20 55  1  0
 21 29  1  0
 21 22  1  0
 21 56  1  6
 22 23  1  0
 23 24  1  0
 23 57  1  6
 24 26  1  0
 24 25  1  1
 25 26  1  0
 26 27  1  0
 26 58  1  1
 27 28  1  0
 27 59  1  0
 27 60  1  0
 28 30  1  0
 28 29  1  0
 28 61  1  6
 29 30  1  0
 29 62  1  1
 30 31  1  0
 30 32  1  0
 31 63  1  0
 31 64  1  0
 31 65  1  0
 32 66  1  0
 32 67  1  0
 32 68  1  0
M  END
>  <i_m_ct_stereo_status>  (154) 
1

>  <s_m_source_file>  (154) 
/var/tmp/pbs.5076255.sched01/tmpmtrcy7mx/460f9z2a7c.sdf

>  <i_m_source_file_index>  (154) 
22

>  <i_lp_mmshare_version>  (154) 
48012

>  <i_f3d_flags>  (154) 
0

>  <s_epik_input>  (154) 
W2NIXTFvW2NIXVtjSF1jMVtDQEBIXShDKD1bQ0hdMilPW0NIM10pQyhbQ0gzXSk9QyhbQ0BIXTJbQ0BAXTM0NSlbQ0BdNihbQ0gzXSlbQ0BIXTNPW0NAQEhdKFtDQEBIXTZbQ0hdKFtDSDNdKVtDSDNdKVtDQEhdN1tDQEhdKFtDSDJdW0NASF01TzQpQzcoW0NIM10pW0NIM10=

>  <s_epik_cmdline>  (154) 
J2VwaWtfcHl0aG9uJywgJy1waHQnLCAnMi4wJywgJy1waCcsICc3LjAnLCAnLXRuJywgJzgnLCAnLW1hJywgJzIwMCcsICctaW1hZScsICc8aW5maWxlLm1hZT4nLCAnLW9tYWUnLCAnPG91dGZpbGUubWFlPic=

>  <r_lp_tautomer_probability>  (154) 
1

>  <r_epik_Ionization_Penalty>  (154) 
4.50087e-12

>  <r_epik_Ionization_Penalty_Charging>  (154) 
0

>  <r_epik_Ionization_Penalty_Neutral>  (154) 
4.50087e-12

>  <r_epik_State_Penalty>  (154) 
-0

>  <r_epik_Charging_Adjusted_Penalty>  (154) 
0

>  <i_epik_Tot_Q>  (154) 
0

>  <i_epik_Tot_abs_Q>  (154) 
0

>  <s_lp_Force_Field>  (154) 
OPLS3e

>  <r_lp_Energy>  (154) 
76.6802

>  <b_lp_Chiralities_Consistent>  (154) 
1

>  <s_lp_Variant>  (154) 
34:0-1

>  <s_i_glide_gridfile>  (154) 
pfpi4k_grid

>  <i_i_glide_lignum>  (154) 
22

>  <i_i_glide_rotatable_bonds>  (154) 
3

>  <r_i_docking_score>  (154) 
-2.23463

>  <r_i_glide_ligand_efficiency>  (154) 
-0.0698323

>  <r_i_glide_ligand_efficiency_sa>  (154) 
-0.221704

>  <r_i_glide_ligand_efficiency_ln>  (154) 
-0.500395

>  <r_i_glide_gscore>  (154) 
-2.23463

>  <r_i_glide_lipo>  (154) 
-0.18754

>  <r_i_glide_hbond>  (154) 
-0.16

>  <r_i_glide_metal>  (154) 
-0

>  <r_i_glide_rewards>  (154) 
-0.432388

>  <r_i_glide_evdw>  (154) 
-21.8865

>  <r_i_glide_ecoul>  (154) 
-3.09974

>  <r_i_glide_erotb>  (154) 
0.104583

>  <r_i_glide_esite>  (154) 
0

>  <r_i_glide_emodel>  (154) 
-25.8924

>  <r_i_glide_energy>  (154) 
-24.9862

>  <r_i_glide_einternal>  (154) 
4.55335

>  <r_i_glide_intrahb_reward>  (154) 
-0

>  <i_i_glide_confnum>  (154) 
1

>  <i_i_glide_posenum>  (154) 
12

>  <r_i_glide_eff_state_penalty>  (154) 
0

>  <ligand_id>  (154) 
34

>  <original_smiles>  (154) 
COC1=CC2C(=C(C)C1c1ccoc1)C1(C)C(C(C)C)C3OC1C21OC1CC1C3C1(C)C

>  <smiles>  (154) 
[H]C1=C(OC([H])([H])[H])C([H])(c2c([H])oc([H])c2[H])C(C([H])([H])[H])=C2C1([H])C13OC1([H])C([H])([H])C1([H])C([H])(C4([H])OC3([H])C2(C([H])([H])[H])C4([H])C([H])(C([H])([H])[H])C([H])([H])[H])C1(C([H])([H])[H])C([H])([H])[H]

$$$$
34:0:2
     RDKit          3D

 68 74  0  0  1  0  0  0  0  0999 V2000
    5.4661   -0.8168    3.6431 C   0  0  0  0  0  0  0  0  0  0  0  0
    5.7818   -1.8286    2.6881 O   0  0  0  0  0  0  0  0  0  0  0  0
    4.8148   -2.7671    2.4366 C   0  0  0  0  0  0  0  0  0  0  0  0
    3.6872   -2.9361    3.1827 C   0  0  0  0  0  0  0  0  0  0  0  0
    2.5931   -3.8677    2.7579 C   0  0  1  0  0  0  0  0  0  0  0  0
    3.0271   -4.9245    1.7597 C   0  0  0  0  0  0  0  0  0  0  0  0
    4.1261   -4.7467    0.9691 C   0  0  0  0  0  0  0  0  0  0  0  0
    4.5739   -5.6935   -0.1092 C   0  0  0  0  0  0  0  0  0  0  0  0
    5.0789   -3.5512    1.1564 C   0  0  1  0  0  0  0  0  0  0  0  0
    5.0773   -2.6636   -0.0674 C   0  0  0  0  0  0  0  0  0  0  0  0
    4.1964   -1.5701   -0.3059 C   0  0  0  0  0  0  0  0  0  0  0  0
    4.5132   -1.0774   -1.5340 C   0  0  0  0  0  0  0  0  0  0  0  0
    5.5275   -1.7843   -2.0900 O   0  0  0  0  0  0  0  0  0  0  0  0
    5.8646   -2.7396   -1.1846 C   0  0  0  0  0  0  0  0  0  0  0  0
    1.9688   -6.0639    1.7871 C   0  0  1  0  0  0  0  0  0  0  0  0
    1.1736   -6.1051    0.4659 C   0  0  0  0  0  0  0  0  0  0  0  0
    2.2369   -7.5223    2.3768 C   0  0  1  0  0  0  0  0  0  0  0  0
    3.6501   -8.1963    2.5327 C   0  0  0  0  0  0  0  0  0  0  0  0
    4.6845   -7.3754    3.3374 C   0  0  0  0  0  0  0  0  0  0  0  0
    4.3287   -8.7462    1.2255 C   0  0  0  0  0  0  0  0  0  0  0  0
    1.1870   -7.7365    3.5589 C   0  0  2  0  0  0  0  0  0  0  0  0
    0.2844   -6.6644    3.3461 O   0  0  0  0  0  0  0  0  0  0  0  0
    1.0457   -5.5640    2.8989 C   0  0  1  0  0  0  0  0  0  0  0  0
    1.8851   -4.6612    3.8140 C   0  0  1  0  0  0  0  0  0  0  0  0
    2.9056   -5.2631    4.6251 O   0  0  0  0  0  0  0  0  0  0  0  0
    1.9202   -4.5507    5.3645 C   0  0  2  0  0  0  0  0  0  0  0  0
    1.2645   -5.4490    6.4097 C   0  0  0  0  0  0  0  0  0  0  0  0
    0.6760   -6.7533    5.8891 C   0  0  1  0  0  0  0  0  0  0  0  0
    1.6232   -7.6346    5.0340 C   0  0  1  0  0  0  0  0  0  0  0  0
    0.9665   -8.1899    6.2898 C   0  0  0  0  0  0  0  0  0  0  0  0
    1.8455   -8.4750    7.4946 C   0  0  0  0  0  0  0  0  0  0  0  0
   -0.1045   -9.2584    6.1546 C   0  0  0  0  0  0  0  0  0  0  0  0
    6.2366   -0.0448    3.6589 H   0  0  0  0  0  0  0  0  0  0  0  0
    5.3833   -1.2179    4.6529 H   0  0  0  0  0  0  0  0  0  0  0  0
    4.5332   -0.3264    3.3775 H   0  0  0  0  0  0  0  0  0  0  0  0
    3.4649   -2.3671    4.0665 H   0  0  0  0  0  0  0  0  0  0  0  0
    1.8457   -3.2307    2.2690 H   0  0  0  0  0  0  0  0  0  0  0  0
    5.5449   -6.1040    0.1859 H   0  0  0  0  0  0  0  0  0  0  0  0
    4.7025   -5.2097   -1.0733 H   0  0  0  0  0  0  0  0  0  0  0  0
    3.8825   -6.5325   -0.2030 H   0  0  0  0  0  0  0  0  0  0  0  0
    6.0896   -3.9564    1.2540 H   0  0  0  0  0  0  0  0  0  0  0  0
    3.4129   -1.2002    0.3407 H   0  0  0  0  0  0  0  0  0  0  0  0
    4.1182   -0.2670   -2.1301 H   0  0  0  0  0  0  0  0  0  0  0  0
    6.6618   -3.3899   -1.5192 H   0  0  0  0  0  0  0  0  0  0  0  0
    0.2191   -6.6258    0.5726 H   0  0  0  0  0  0  0  0  0  0  0  0
    1.7146   -6.6293   -0.2927 H   0  0  0  0  0  0  0  0  0  0  0  0
    1.0217   -5.1202    0.0270 H   0  0  0  0  0  0  0  0  0  0  0  0
    1.7826   -8.1497    1.6048 H   0  0  0  0  0  0  0  0  0  0  0  0
    3.4243   -9.0957    3.1037 H   0  0  0  0  0  0  0  0  0  0  0  0
    4.9349   -6.4436    2.8266 H   0  0  0  0  0  0  0  0  0  0  0  0
    5.6120   -7.9381    3.4390 H   0  0  0  0  0  0  0  0  0  0  0  0
    4.3619   -7.1262    4.3286 H   0  0  0  0  0  0  0  0  0  0  0  0
    4.9125   -8.0109    0.7222 H   0  0  0  0  0  0  0  0  0  0  0  0
    3.5913   -9.1763    0.5229 H   0  0  0  0  0  0  0  0  0  0  0  0
    5.0114   -9.5675    1.4934 H   0  0  0  0  0  0  0  0  0  0  0  0
    0.6502   -8.6768    3.4055 H   0  0  0  0  0  0  0  0  0  0  0  0
    0.2933   -4.9050    2.4848 H   0  0  0  0  0  0  0  0  0  0  0  0
    2.2899   -3.6066    5.7695 H   0  0  0  0  0  0  0  0  0  0  0  0
    2.0014   -5.6537    7.1971 H   0  0  0  0  0  0  0  0  0  0  0  0
    0.4597   -4.8816    6.8740 H   0  0  0  0  0  0  0  0  0  0  0  0
   -0.3747   -6.6187    5.5896 H   0  0  0  0  0  0  0  0  0  0  0  0
    2.6871   -7.6021    5.1792 H   0  0  0  0  0  0  0  0  0  0  0  0
    2.2809   -9.4712    7.4264 H   0  0  0  0  0  0  0  0  0  0  0  0
    1.2750   -8.4014    8.4178 H   0  0  0  0  0  0  0  0  0  0  0  0
    2.6658   -7.7634    7.5438 H   0  0  0  0  0  0  0  0  0  0  0  0
    0.3546  -10.2343    5.9931 H   0  0  0  0  0  0  0  0  0  0  0  0
   -0.7517   -9.0455    5.3016 H   0  0  0  0  0  0  0  0  0  0  0  0
   -0.7218   -9.3115    7.0546 H   0  0  0  0  0  0  0  0  0  0  0  0
  1  2  1  0
  1 33  1  0
  1 34  1  0
  1 35  1  0
  2  3  1  0
  3  9  1  0
  3  4  2  0
  4  5  1  0
  4 36  1  0
  5 24  1  0
  5  6  1  0
  5 37  1  6
  6  7  2  0
  6 15  1  0
  7  8  1  0
  7  9  1  0
  8 38  1  0
  8 39  1  0
  8 40  1  0
  9 10  1  0
  9 41  1  1
 10 14  2  0
 10 11  1  0
 11 12  2  0
 11 42  1  0
 12 13  1  0
 12 43  1  0
 13 14  1  0
 14 44  1  0
 15 23  1  0
 15 16  1  6
 15 17  1  0
 16 45  1  0
 16 46  1  0
 16 47  1  0
 17 18  1  0
 17 21  1  0
 17 48  1  6
 18 19  1  0
 18 20  1  0
 18 49  1  0
 19 50  1  0
 19 51  1  0
 19 52  1  0
 20 53  1  0
 20 54  1  0
 20 55  1  0
 21 29  1  0
 21 22  1  0
 21 56  1  1
 22 23  1  0
 23 24  1  0
 23 57  1  6
 24 26  1  0
 24 25  1  1
 25 26  1  0
 26 27  1  0
 26 58  1  6
 27 28  1  0
 27 59  1  0
 27 60  1  0
 28 30  1  0
 28 29  1  0
 28 61  1  6
 29 30  1  0
 29 62  1  6
 30 31  1  0
 30 32  1  0
 31 63  1  0
 31 64  1  0
 31 65  1  0
 32 66  1  0
 32 67  1  0
 32 68  1  0
M  END
>  <i_m_ct_stereo_status>  (155) 
1

>  <s_m_source_file>  (155) 
/var/tmp/pbs.5076255.sched01/tmpmtrcy7mx/460f9z2a7c.sdf

>  <i_m_source_file_index>  (155) 
22

>  <i_lp_mmshare_version>  (155) 
48012

>  <i_f3d_flags>  (155) 
0

>  <s_epik_input>  (155) 
W2NIXTFvW2NIXVtjSF1jMVtDQEBIXShDKD1bQ0hdMilPW0NIM10pQyhbQ0gzXSk9QyhbQ0BIXTJbQ0BAXTM0NSlbQ0BdNihbQ0gzXSlbQ0BIXTNPW0NAQEhdKFtDQEBIXTZbQ0hdKFtDSDNdKVtDSDNdKVtDQEhdN1tDQEhdKFtDSDJdW0NASF01TzQpQzcoW0NIM10pW0NIM10=

>  <s_epik_cmdline>  (155) 
J2VwaWtfcHl0aG9uJywgJy1waHQnLCAnMi4wJywgJy1waCcsICc3LjAnLCAnLXRuJywgJzgnLCAnLW1hJywgJzIwMCcsICctaW1hZScsICc8aW5maWxlLm1hZT4nLCAnLW9tYWUnLCAnPG91dGZpbGUubWFlPic=

>  <r_lp_tautomer_probability>  (155) 
1

>  <r_epik_Ionization_Penalty>  (155) 
4.50087e-12

>  <r_epik_Ionization_Penalty_Charging>  (155) 
0

>  <r_epik_Ionization_Penalty_Neutral>  (155) 
4.50087e-12

>  <r_epik_State_Penalty>  (155) 
-0

>  <r_epik_Charging_Adjusted_Penalty>  (155) 
0

>  <i_epik_Tot_Q>  (155) 
0

>  <i_epik_Tot_abs_Q>  (155) 
0

>  <s_lp_Force_Field>  (155) 
OPLS3e

>  <r_lp_Energy>  (155) 
76.6802

>  <b_lp_Chiralities_Consistent>  (155) 
1

>  <s_lp_Variant>  (155) 
34:0-1

>  <s_i_glide_gridfile>  (155) 
pfpi4k_grid

>  <i_i_glide_lignum>  (155) 
22

>  <i_i_glide_rotatable_bonds>  (155) 
3

>  <r_i_docking_score>  (155) 
-1.89965

>  <r_i_glide_ligand_efficiency>  (155) 
-0.059364

>  <r_i_glide_ligand_efficiency_sa>  (155) 
-0.188469

>  <r_i_glide_ligand_efficiency_ln>  (155) 
-0.425383

>  <r_i_glide_gscore>  (155) 
-1.89965

>  <r_i_glide_lipo>  (155) 
-0.207502

>  <r_i_glide_hbond>  (155) 
0

>  <r_i_glide_metal>  (155) 
-0

>  <r_i_glide_rewards>  (155) 
-0.432388

>  <r_i_glide_evdw>  (155) 
-22.2682

>  <r_i_glide_ecoul>  (155) 
-1.67287

>  <r_i_glide_erotb>  (155) 
0.104583

>  <r_i_glide_esite>  (155) 
0

>  <r_i_glide_emodel>  (155) 
-25.6187

>  <r_i_glide_energy>  (155) 
-23.9411

>  <r_i_glide_einternal>  (155) 
1.14619

>  <r_i_glide_intrahb_reward>  (155) 
-0

>  <i_i_glide_confnum>  (155) 
1

>  <i_i_glide_posenum>  (155) 
2

>  <r_i_glide_eff_state_penalty>  (155) 
0

>  <ligand_id>  (155) 
34

>  <original_smiles>  (155) 
COC1=CC2C(=C(C)C1c1ccoc1)C1(C)C(C(C)C)C3OC1C21OC1CC1C3C1(C)C

>  <smiles>  (155) 
[H]C1=C(OC([H])([H])[H])C([H])(c2c([H])oc([H])c2[H])C(C([H])([H])[H])=C2C1([H])C13OC1([H])C([H])([H])C1([H])C([H])(C4([H])OC3([H])C2(C([H])([H])[H])C4([H])C([H])(C([H])([H])[H])C([H])([H])[H])C1(C([H])([H])[H])C([H])([H])[H]

$$$$
36:0:0
     RDKit          3D

 74 80  0  0  1  0  0  0  0  0999 V2000
   -0.5250    2.9907    4.0965 C   0  0  0  0  0  0  0  0  0  0  0  0
   -0.0878    2.0992    2.9215 C   0  0  2  0  0  0  0  0  0  0  0  0
   -0.5973    0.6672    3.0566 C   0  0  0  0  0  0  0  0  0  0  0  0
    0.1187   -0.0531    4.2104 C   0  0  0  0  0  0  0  0  0  0  0  0
    1.6399    0.0481    4.0332 C   0  0  2  0  0  0  0  0  0  0  0  0
    2.0418    1.3939    3.8637 O   0  0  0  0  0  0  0  0  0  0  0  0
    1.4413    2.0716    2.7600 C   0  0  0  0  0  0  0  0  0  0  0  0
    2.0458   -0.7616    2.9680 O   0  0  0  0  0  0  0  0  0  0  0  0
    3.4319   -1.0188    3.1092 C   0  0  2  0  0  0  0  0  0  0  0  0
    3.8411   -2.4033    2.6063 C   0  0  0  0  0  0  0  0  0  0  0  0
    4.6478   -3.0521    3.7437 C   0  0  2  0  0  0  0  0  0  0  0  0
    4.3795   -4.5264    4.0477 C   0  0  2  0  0  0  0  0  0  0  0  0
    4.1170   -5.4508    2.8312 C   0  0  0  0  0  0  0  0  0  0  0  0
    2.6657   -5.9200    2.6304 C   0  0  0  0  0  0  0  0  0  0  0  0
    2.0762   -6.3024    3.9922 C   0  0  2  0  0  0  0  0  0  0  0  0
    0.7126   -6.9994    3.9891 C   0  0  0  0  0  0  0  0  0  0  0  0
    0.1240   -6.7249    5.4032 C   0  0  0  0  0  0  0  0  0  0  0  0
    1.1613   -5.8085    6.0980 C   0  0  0  0  0  0  0  0  0  0  0  0
    1.9441   -5.1135    4.9610 C   0  0  2  0  0  0  0  0  0  0  0  0
    1.0221   -3.9794    4.4360 C   0  0  0  0  0  0  0  0  0  0  0  0
    3.3931   -4.5576    5.2668 C   0  0  1  0  0  0  0  0  0  0  0  0
    4.0575   -5.2965    6.4567 C   0  0  0  0  0  0  0  0  0  0  0  0
    3.2947   -3.1832    5.6575 O   0  0  0  0  0  0  0  0  0  0  0  0
    4.2739   -2.3357    5.0452 C   0  0  1  0  0  0  0  0  0  0  0  0
    5.4426   -2.1659    6.0342 C   0  0  0  0  0  0  0  0  0  0  0  0
    3.7124   -0.9615    4.6075 C   0  0  2  0  0  0  0  0  0  0  0  0
    2.3855   -0.5404    5.2350 C   0  0  1  0  0  0  0  0  0  0  0  0
    2.5240    0.4324    6.4261 C   0  0  0  0  0  0  0  0  0  0  0  0
   -0.1455   -6.5316    2.9798 O   0  0  0  0  0  0  0  0  0  0  0  0
    0.1117   -7.3364    1.8490 C   0  0  0  0  0  0  0  0  0  0  0  0
    0.5339   -8.6586    2.4870 C   0  0  0  0  0  0  0  0  0  0  0  0
    0.8697   -8.3642    3.7790 O   0  0  0  0  0  0  0  0  0  0  0  0
   -0.0978    2.6617    5.0409 H   0  0  0  0  0  0  0  0  0  0  0  0
   -1.6111    2.9941    4.2119 H   0  0  0  0  0  0  0  0  0  0  0  0
   -0.2042    4.0224    3.9488 H   0  0  0  0  0  0  0  0  0  0  0  0
   -0.5209    2.5177    2.0163 H   0  0  0  0  0  0  0  0  0  0  0  0
   -1.6714    0.6541    3.2137 H   0  0  0  0  0  0  0  0  0  0  0  0
   -0.4127    0.1463    2.1119 H   0  0  0  0  0  0  0  0  0  0  0  0
   -0.1682    0.3933    5.1649 H   0  0  0  0  0  0  0  0  0  0  0  0
   -0.1712   -1.1009    4.2459 H   0  0  0  0  0  0  0  0  0  0  0  0
    1.7245    1.5836    1.8238 H   0  0  0  0  0  0  0  0  0  0  0  0
    1.8334    3.0847    2.7107 H   0  0  0  0  0  0  0  0  0  0  0  0
    4.0067   -0.2362    2.6115 H   0  0  0  0  0  0  0  0  0  0  0  0
    2.9647   -2.9754    2.3253 H   0  0  0  0  0  0  0  0  0  0  0  0
    4.4365   -2.3299    1.6929 H   0  0  0  0  0  0  0  0  0  0  0  0
    5.7081   -2.8949    3.5230 H   0  0  0  0  0  0  0  0  0  0  0  0
    5.3340   -4.8616    4.4224 H   0  0  0  0  0  0  0  0  0  0  0  0
    4.4776   -4.9864    1.9213 H   0  0  0  0  0  0  0  0  0  0  0  0
    4.7358   -6.3497    2.9692 H   0  0  0  0  0  0  0  0  0  0  0  0
    2.1014   -5.1207    2.1549 H   0  0  0  0  0  0  0  0  0  0  0  0
    2.6481   -6.7559    1.9602 H   0  0  0  0  0  0  0  0  0  0  0  0
    2.7732   -7.0115    4.4540 H   0  0  0  0  0  0  0  0  0  0  0  0
   -0.8526   -6.2452    5.3241 H   0  0  0  0  0  0  0  0  0  0  0  0
   -0.0119   -7.6495    5.9673 H   0  0  0  0  0  0  0  0  0  0  0  0
    0.7010   -5.0971    6.7946 H   0  0  0  0  0  0  0  0  0  0  0  0
    1.8011   -6.4571    6.7037 H   0  0  0  0  0  0  0  0  0  0  0  0
    1.4639   -3.3828    3.6497 H   0  0  0  0  0  0  0  0  0  0  0  0
    0.7522   -3.3030    5.2429 H   0  0  0  0  0  0  0  0  0  0  0  0
    0.0818   -4.3610    4.0538 H   0  0  0  0  0  0  0  0  0  0  0  0
    4.1001   -6.3750    6.2905 H   0  0  0  0  0  0  0  0  0  0  0  0
    3.5114   -5.1147    7.3822 H   0  0  0  0  0  0  0  0  0  0  0  0
    5.0785   -4.9722    6.6343 H   0  0  0  0  0  0  0  0  0  0  0  0
    6.1532   -1.4185    5.6867 H   0  0  0  0  0  0  0  0  0  0  0  0
    6.0066   -3.0840    6.1782 H   0  0  0  0  0  0  0  0  0  0  0  0
    5.0760   -1.8319    7.0037 H   0  0  0  0  0  0  0  0  0  0  0  0
    4.4659   -0.1905    4.7632 H   0  0  0  0  0  0  0  0  0  0  0  0
    1.8222   -1.4013    5.5493 H   0  0  0  0  0  0  0  0  0  0  0  0
    3.0976    1.3208    6.1721 H   0  0  0  0  0  0  0  0  0  0  0  0
    3.0283   -0.0623    7.2565 H   0  0  0  0  0  0  0  0  0  0  0  0
    1.5450    0.7504    6.7792 H   0  0  0  0  0  0  0  0  0  0  0  0
   -0.7876   -7.4480    1.2254 H   0  0  0  0  0  0  0  0  0  0  0  0
    0.8983   -6.9337    1.2579 H   0  0  0  0  0  0  0  0  0  0  0  0
   -0.2367   -9.4185    2.4411 H   0  0  0  0  0  0  0  0  0  0  0  0
    1.4048   -9.0522    1.9667 H   0  0  0  0  0  0  0  0  0  0  0  0
  1  2  1  0
  1 33  1  0
  1 34  1  0
  1 35  1  0
  2  7  1  0
  2  3  1  0
  2 36  1  6
  3  4  1  0
  3 37  1  0
  3 38  1  0
  4  5  1  0
  4 39  1  0
  4 40  1  0
  5 27  1  0
  5  6  1  6
  5  8  1  0
  6  7  1  0
  7 41  1  0
  7 42  1  0
  8  9  1  0
  9 26  1  0
  9 10  1  0
  9 43  1  6
 10 11  1  0
 10 44  1  0
 10 45  1  0
 11 24  1  0
 11 12  1  0
 11 46  1  6
 12 21  1  0
 12 13  1  0
 12 47  1  1
 13 14  1  0
 13 48  1  0
 13 49  1  0
 14 15  1  0
 14 50  1  0
 14 51  1  0
 15 19  1  0
 15 16  1  0
 15 52  1  1
 16 32  1  0
 16 17  1  0
 16 29  1  0
 17 18  1  0
 17 53  1  0
 17 54  1  0
 18 19  1  0
 18 55  1  0
 18 56  1  0
 19 20  1  6
 19 21  1  0
 20 57  1  0
 20 58  1  0
 20 59  1  0
 21 22  1  1
 21 23  1  0
 22 60  1  0
 22 61  1  0
 22 62  1  0
 23 24  1  0
 24 25  1  1
 24 26  1  0
 25 63  1  0
 25 64  1  0
 25 65  1  0
 26 27  1  0
 26 66  1  6
 27 28  1  0
 27 67  1  1
 28 68  1  0
 28 69  1  0
 28 70  1  0
 29 30  1  0
 30 31  1  0
 30 71  1  0
 30 72  1  0
 31 32  1  0
 31 73  1  0
 31 74  1  0
M  END
>  <i_m_ct_stereo_status>  (156) 
1

>  <s_m_source_file>  (156) 
/var/tmp/pbs.5076255.sched01/tmpmtrcy7mx/460f9z2a7c.sdf

>  <i_m_source_file_index>  (156) 
24

>  <i_lp_mmshare_version>  (156) 
48012

>  <i_f3d_flags>  (156) 
0

>  <s_epik_input>  (156) 
TzFbQ0gyXVtDQEhdKFtDSDNdKVtDSDJdW0NIMl1bQ0BAXTEyT1tDQEhdM1tDQEBIXShbQ0BIXTJbQ0gzXSlbQ0BdNChbQ0gzXSlbQ0BIXShbQ0gyXTMpW0NASF01W0NAXShPNCkoW0NIM10pW0NAQF02KFtDSDNdKVtDQEhdKFtDSDJdW0NIMl01KUM3KFtDSDJdW0NIMl02KU9bQ0gyXVtDSDJdTzc=

>  <s_epik_cmdline>  (156) 
J2VwaWtfcHl0aG9uJywgJy1waHQnLCAnMi4wJywgJy1waCcsICc3LjAnLCAnLXRuJywgJzgnLCAnLW1hJywgJzIwMCcsICctaW1hZScsICc8aW5maWxlLm1hZT4nLCAnLW9tYWUnLCAnPG91dGZpbGUubWFlPic=

>  <r_lp_tautomer_probability>  (156) 
1

>  <r_epik_Ionization_Penalty>  (156) 
1.80452e-11

>  <r_epik_Ionization_Penalty_Charging>  (156) 
0

>  <r_epik_Ionization_Penalty_Neutral>  (156) 
1.80452e-11

>  <r_epik_State_Penalty>  (156) 
-0

>  <r_epik_Charging_Adjusted_Penalty>  (156) 
0

>  <i_epik_Tot_Q>  (156) 
0

>  <i_epik_Tot_abs_Q>  (156) 
0

>  <s_lp_Force_Field>  (156) 
OPLS3e

>  <r_lp_Energy>  (156) 
27.9658

>  <b_lp_Chiralities_Consistent>  (156) 
1

>  <s_lp_Variant>  (156) 
36:0-1

>  <s_i_glide_gridfile>  (156) 
pfpi4k_grid

>  <i_i_glide_lignum>  (156) 
24

>  <i_i_glide_rotatable_bonds>  (156) 
0

>  <r_i_docking_score>  (156) 
-2.0368

>  <r_i_glide_ligand_efficiency>  (156) 
-0.0636499

>  <r_i_glide_ligand_efficiency_sa>  (156) 
-0.202076

>  <r_i_glide_ligand_efficiency_ln>  (156) 
-0.456095

>  <r_i_glide_gscore>  (156) 
-2.0368

>  <r_i_glide_lipo>  (156) 
-0.0616077

>  <r_i_glide_hbond>  (156) 
-0.156301

>  <r_i_glide_metal>  (156) 
-0

>  <r_i_glide_rewards>  (156) 
-0.363959

>  <r_i_glide_evdw>  (156) 
-24.6943

>  <r_i_glide_ecoul>  (156) 
-1.30112

>  <r_i_glide_erotb>  (156) 
0

>  <r_i_glide_esite>  (156) 
-0.0250496

>  <r_i_glide_emodel>  (156) 
-28.882

>  <r_i_glide_energy>  (156) 
-25.9954

>  <r_i_glide_einternal>  (156) 
0

>  <r_i_glide_intrahb_reward>  (156) 
-0

>  <i_i_glide_confnum>  (156) 
4

>  <i_i_glide_posenum>  (156) 
36

>  <r_i_glide_eff_state_penalty>  (156) 
0

>  <ligand_id>  (156) 
36

>  <original_smiles>  (156) 
CC1CCC2(OC1)OC1CC3C4CCC5C6(CCC5(C)C4(C)OC3(C)C1C2C)OCCO6

>  <smiles>  (156) 
[H]C([H])([H])C1([H])C([H])([H])OC2(OC3([H])C([H])([H])C4([H])C5([H])C([H])([H])C([H])([H])C6([H])C7(OC([H])([H])C([H])([H])O7)C([H])([H])C([H])([H])C6(C([H])([H])[H])C5(C([H])([H])[H])OC4(C([H])([H])[H])C3([H])C2([H])C([H])([H])[H])C([H])([H])C1([H])[H]

$$$$
36:0:1
     RDKit          3D

 74 80  0  0  1  0  0  0  0  0999 V2000
    6.4537   -2.3683   -0.2969 C   0  0  0  0  0  0  0  0  0  0  0  0
    4.9125   -2.3744   -0.2014 C   0  0  2  0  0  0  0  0  0  0  0  0
    4.4120   -2.2746    1.2463 C   0  0  0  0  0  0  0  0  0  0  0  0
    4.7311   -3.5653    2.0116 C   0  0  0  0  0  0  0  0  0  0  0  0
    4.1736   -4.7838    1.2546 C   0  0  2  0  0  0  0  0  0  0  0  0
    4.6352   -4.7924   -0.0842 O   0  0  0  0  0  0  0  0  0  0  0  0
    4.3067   -3.6312   -0.8460 C   0  0  0  0  0  0  0  0  0  0  0  0
    2.7791   -4.7964    1.3366 O   0  0  0  0  0  0  0  0  0  0  0  0
    2.3347   -6.1124    1.0517 C   0  0  2  0  0  0  0  0  0  0  0  0
    1.0745   -6.5020    1.8219 C   0  0  0  0  0  0  0  0  0  0  0  0
    1.3799   -7.8532    2.4896 C   0  0  2  0  0  0  0  0  0  0  0  0
    0.9228   -8.0357    3.9366 C   0  0  2  0  0  0  0  0  0  0  0  0
   -0.4532   -7.4296    4.3313 C   0  0  0  0  0  0  0  0  0  0  0  0
   -0.4054   -6.1738    5.2119 C   0  0  0  0  0  0  0  0  0  0  0  0
    0.6410   -6.3707    6.3003 C   0  0  2  0  0  0  0  0  0  0  0  0
    0.6813   -5.3203    7.4218 C   0  0  0  0  0  0  0  0  0  0  0  0
    2.1286   -5.4175    7.9953 C   0  0  0  0  0  0  0  0  0  0  0  0
    2.8509   -6.4572    7.1029 C   0  0  0  0  0  0  0  0  0  0  0  0
    2.0772   -6.4654    5.7588 C   0  0  2  0  0  0  0  0  0  0  0  0
    2.5408   -5.2012    4.9827 C   0  0  0  0  0  0  0  0  0  0  0  0
    2.1695   -7.7562    4.8423 C   0  0  1  0  0  0  0  0  0  0  0  0
    2.5118   -9.0248    5.6661 C   0  0  0  0  0  0  0  0  0  0  0  0
    3.2372   -7.5876    3.9007 O   0  0  0  0  0  0  0  0  0  0  0  0
    2.9042   -7.9926    2.5659 C   0  0  1  0  0  0  0  0  0  0  0  0
    3.4061   -9.4335    2.3521 C   0  0  0  0  0  0  0  0  0  0  0  0
    3.4655   -7.0352    1.4883 C   0  0  2  0  0  0  0  0  0  0  0  0
    4.5874   -6.0969    1.9212 C   0  0  1  0  0  0  0  0  0  0  0  0
    5.9988   -6.5785    1.5523 C   0  0  0  0  0  0  0  0  0  0  0  0
    0.4059   -4.0335    6.9712 O   0  0  0  0  0  0  0  0  0  0  0  0
   -0.9815   -3.8538    7.0881 C   0  0  0  0  0  0  0  0  0  0  0  0
   -1.3260   -4.7547    8.2501 C   0  0  0  0  0  0  0  0  0  0  0  0
   -0.2550   -5.6170    8.3899 O   0  0  0  0  0  0  0  0  0  0  0  0
    6.9007   -3.2395    0.1805 H   0  0  0  0  0  0  0  0  0  0  0  0
    6.8908   -1.4905    0.1822 H   0  0  0  0  0  0  0  0  0  0  0  0
    6.8001   -2.3883   -1.3319 H   0  0  0  0  0  0  0  0  0  0  0  0
    4.5401   -1.5050   -0.7410 H   0  0  0  0  0  0  0  0  0  0  0  0
    4.8635   -1.4186    1.7470 H   0  0  0  0  0  0  0  0  0  0  0  0
    3.3344   -2.0924    1.2487 H   0  0  0  0  0  0  0  0  0  0  0  0
    5.8070   -3.6755    2.1400 H   0  0  0  0  0  0  0  0  0  0  0  0
    4.2889   -3.5362    3.0081 H   0  0  0  0  0  0  0  0  0  0  0  0
    3.2225   -3.5361   -0.9351 H   0  0  0  0  0  0  0  0  0  0  0  0
    4.6897   -3.7647   -1.8572 H   0  0  0  0  0  0  0  0  0  0  0  0
    2.1904   -6.2208   -0.0194 H   0  0  0  0  0  0  0  0  0  0  0  0
    0.8226   -5.7259    2.5348 H   0  0  0  0  0  0  0  0  0  0  0  0
    0.2121   -6.5839    1.1564 H   0  0  0  0  0  0  0  0  0  0  0  0
    0.9646   -8.6372    1.8482 H   0  0  0  0  0  0  0  0  0  0  0  0
    0.7565   -9.1050    3.9813 H   0  0  0  0  0  0  0  0  0  0  0  0
   -1.0272   -7.2309    3.4281 H   0  0  0  0  0  0  0  0  0  0  0  0
   -1.0040   -8.2183    4.8613 H   0  0  0  0  0  0  0  0  0  0  0  0
   -0.1891   -5.3191    4.5756 H   0  0  0  0  0  0  0  0  0  0  0  0
   -1.3767   -5.9778    5.6523 H   0  0  0  0  0  0  0  0  0  0  0  0
    0.4266   -7.3287    6.7879 H   0  0  0  0  0  0  0  0  0  0  0  0
    2.6132   -4.4396    7.9505 H   0  0  0  0  0  0  0  0  0  0  0  0
    2.1282   -5.7290    9.0407 H   0  0  0  0  0  0  0  0  0  0  0  0
    3.9141   -6.2424    6.9777 H   0  0  0  0  0  0  0  0  0  0  0  0
    2.7838   -7.4139    7.6235 H   0  0  0  0  0  0  0  0  0  0  0  0
    2.1088   -5.1144    3.9964 H   0  0  0  0  0  0  0  0  0  0  0  0
    3.6222   -5.2122    4.8593 H   0  0  0  0  0  0  0  0  0  0  0  0
    2.3138   -4.2770    5.5056 H   0  0  0  0  0  0  0  0  0  0  0  0
    1.7948   -9.1962    6.4713 H   0  0  0  0  0  0  0  0  0  0  0  0
    3.5069   -8.9499    6.1060 H   0  0  0  0  0  0  0  0  0  0  0  0
    2.5110   -9.9302    5.0634 H   0  0  0  0  0  0  0  0  0  0  0  0
    3.2933   -9.7413    1.3133 H   0  0  0  0  0  0  0  0  0  0  0  0
    2.8657  -10.1652    2.9506 H   0  0  0  0  0  0  0  0  0  0  0  0
    4.4631   -9.5028    2.6051 H   0  0  0  0  0  0  0  0  0  0  0  0
    3.7750   -7.6182    0.6172 H   0  0  0  0  0  0  0  0  0  0  0  0
    4.5478   -5.9266    2.9870 H   0  0  0  0  0  0  0  0  0  0  0  0
    6.0922   -6.7755    0.4844 H   0  0  0  0  0  0  0  0  0  0  0  0
    6.2428   -7.5043    2.0732 H   0  0  0  0  0  0  0  0  0  0  0  0
    6.7498   -5.8385    1.8141 H   0  0  0  0  0  0  0  0  0  0  0  0
   -1.2218   -2.8021    7.2818 H   0  0  0  0  0  0  0  0  0  0  0  0
   -1.4502   -4.2068    6.1889 H   0  0  0  0  0  0  0  0  0  0  0  0
   -1.5247   -4.2361    9.1759 H   0  0  0  0  0  0  0  0  0  0  0  0
   -2.1950   -5.3307    8.0059 H   0  0  0  0  0  0  0  0  0  0  0  0
  1  2  1  0
  1 33  1  0
  1 34  1  0
  1 35  1  0
  2  7  1  0
  2  3  1  0
  2 36  1  6
  3  4  1  0
  3 37  1  0
  3 38  1  0
  4  5  1  0
  4 39  1  0
  4 40  1  0
  5 27  1  0
  5  6  1  6
  5  8  1  0
  6  7  1  0
  7 41  1  0
  7 42  1  0
  8  9  1  0
  9 26  1  0
  9 10  1  0
  9 43  1  6
 10 11  1  0
 10 44  1  0
 10 45  1  0
 11 24  1  0
 11 12  1  0
 11 46  1  6
 12 21  1  0
 12 13  1  0
 12 47  1  6
 13 14  1  0
 13 48  1  0
 13 49  1  0
 14 15  1  0
 14 50  1  0
 14 51  1  0
 15 19  1  0
 15 16  1  0
 15 52  1  1
 16 32  1  0
 16 17  1  0
 16 29  1  0
 17 18  1  0
 17 53  1  0
 17 54  1  0
 18 19  1  0
 18 55  1  0
 18 56  1  0
 19 20  1  6
 19 21  1  0
 20 57  1  0
 20 58  1  0
 20 59  1  0
 21 22  1  1
 21 23  1  0
 22 60  1  0
 22 61  1  0
 22 62  1  0
 23 24  1  0
 24 25  1  6
 24 26  1  0
 25 63  1  0
 25 64  1  0
 25 65  1  0
 26 27  1  0
 26 66  1  6
 27 28  1  0
 27 67  1  1
 28 68  1  0
 28 69  1  0
 28 70  1  0
 29 30  1  0
 30 31  1  0
 30 71  1  0
 30 72  1  0
 31 32  1  0
 31 73  1  0
 31 74  1  0
M  END
>  <i_m_ct_stereo_status>  (157) 
1

>  <s_m_source_file>  (157) 
/var/tmp/pbs.5076255.sched01/tmpmtrcy7mx/460f9z2a7c.sdf

>  <i_m_source_file_index>  (157) 
24

>  <i_lp_mmshare_version>  (157) 
48012

>  <i_f3d_flags>  (157) 
0

>  <s_epik_input>  (157) 
TzFbQ0gyXVtDQEhdKFtDSDNdKVtDSDJdW0NIMl1bQ0BAXTEyT1tDQEhdM1tDQEBIXShbQ0BIXTJbQ0gzXSlbQ0BdNChbQ0gzXSlbQ0BIXShbQ0gyXTMpW0NASF01W0NAXShPNCkoW0NIM10pW0NAQF02KFtDSDNdKVtDQEhdKFtDSDJdW0NIMl01KUM3KFtDSDJdW0NIMl02KU9bQ0gyXVtDSDJdTzc=

>  <s_epik_cmdline>  (157) 
J2VwaWtfcHl0aG9uJywgJy1waHQnLCAnMi4wJywgJy1waCcsICc3LjAnLCAnLXRuJywgJzgnLCAnLW1hJywgJzIwMCcsICctaW1hZScsICc8aW5maWxlLm1hZT4nLCAnLW9tYWUnLCAnPG91dGZpbGUubWFlPic=

>  <r_lp_tautomer_probability>  (157) 
1

>  <r_epik_Ionization_Penalty>  (157) 
1.80452e-11

>  <r_epik_Ionization_Penalty_Charging>  (157) 
0

>  <r_epik_Ionization_Penalty_Neutral>  (157) 
1.80452e-11

>  <r_epik_State_Penalty>  (157) 
-0

>  <r_epik_Charging_Adjusted_Penalty>  (157) 
0

>  <i_epik_Tot_Q>  (157) 
0

>  <i_epik_Tot_abs_Q>  (157) 
0

>  <s_lp_Force_Field>  (157) 
OPLS3e

>  <r_lp_Energy>  (157) 
27.9658

>  <b_lp_Chiralities_Consistent>  (157) 
1

>  <s_lp_Variant>  (157) 
36:0-1

>  <s_i_glide_gridfile>  (157) 
pfpi4k_grid

>  <i_i_glide_lignum>  (157) 
24

>  <i_i_glide_rotatable_bonds>  (157) 
0

>  <r_i_docking_score>  (157) 
-2.00943

>  <r_i_glide_ligand_efficiency>  (157) 
-0.0627946

>  <r_i_glide_ligand_efficiency_sa>  (157) 
-0.19936

>  <r_i_glide_ligand_efficiency_ln>  (157) 
-0.449965

>  <r_i_glide_gscore>  (157) 
-2.00943

>  <r_i_glide_lipo>  (157) 
-0.214957

>  <r_i_glide_hbond>  (157) 
0

>  <r_i_glide_metal>  (157) 
-0

>  <r_i_glide_rewards>  (157) 
-0.39627

>  <r_i_glide_evdw>  (157) 
-29.0535

>  <r_i_glide_ecoul>  (157) 
0.366783

>  <r_i_glide_erotb>  (157) 
0

>  <r_i_glide_esite>  (157) 
-0.000542062

>  <r_i_glide_emodel>  (157) 
-31.6167

>  <r_i_glide_energy>  (157) 
-28.6867

>  <r_i_glide_einternal>  (157) 
0

>  <r_i_glide_intrahb_reward>  (157) 
-0

>  <i_i_glide_confnum>  (157) 
4

>  <i_i_glide_posenum>  (157) 
10

>  <r_i_glide_eff_state_penalty>  (157) 
0

>  <ligand_id>  (157) 
36

>  <original_smiles>  (157) 
CC1CCC2(OC1)OC1CC3C4CCC5C6(CCC5(C)C4(C)OC3(C)C1C2C)OCCO6

>  <smiles>  (157) 
[H]C([H])([H])C1([H])C([H])([H])OC2(OC3([H])C([H])([H])C4([H])C5([H])C([H])([H])C([H])([H])C6([H])C7(OC([H])([H])C([H])([H])O7)C([H])([H])C([H])([H])C6(C([H])([H])[H])C5(C([H])([H])[H])OC4(C([H])([H])[H])C3([H])C2([H])C([H])([H])[H])C([H])([H])C1([H])[H]

$$$$
36:0:2
     RDKit          3D

 74 80  0  0  1  0  0  0  0  0999 V2000
    5.4468   -1.4772   -1.0213 C   0  0  0  0  0  0  0  0  0  0  0  0
    3.9460   -1.7475   -0.7810 C   0  0  2  0  0  0  0  0  0  0  0  0
    3.5746   -1.6993    0.7053 C   0  0  0  0  0  0  0  0  0  0  0  0
    4.1820   -2.9033    1.4457 C   0  0  0  0  0  0  0  0  0  0  0  0
    3.7851   -4.2116    0.7545 C   0  0  2  0  0  0  0  0  0  0  0  0
    4.1152   -4.1686   -0.6245 O   0  0  0  0  0  0  0  0  0  0  0  0
    3.5158   -3.1041   -1.3588 C   0  0  0  0  0  0  0  0  0  0  0  0
    2.4310   -4.4696    0.9646 O   0  0  0  0  0  0  0  0  0  0  0  0
    2.1968   -5.8460    0.7332 C   0  0  2  0  0  0  0  0  0  0  0  0
    1.0997   -6.4323    1.6193 C   0  0  0  0  0  0  0  0  0  0  0  0
    1.6935   -7.6929    2.2605 C   0  0  2  0  0  0  0  0  0  0  0  0
    1.4099   -7.9198    3.7470 C   0  0  2  0  0  0  0  0  0  0  0  0
   -0.0088   -7.5567    4.2556 C   0  0  0  0  0  0  0  0  0  0  0  0
   -0.1112   -6.2872    5.1229 C   0  0  0  0  0  0  0  0  0  0  0  0
    1.0573   -6.2708    6.1147 C   0  0  2  0  0  0  0  0  0  0  0  0
    1.0256   -5.2153    7.2184 C   0  0  0  0  0  0  0  0  0  0  0  0
    2.5039   -5.0388    7.6551 C   0  0  0  0  0  0  0  0  0  0  0  0
    3.3084   -5.9581    6.7056 C   0  0  0  0  0  0  0  0  0  0  0  0
    2.4345   -6.1330    5.4431 C   0  0  2  0  0  0  0  0  0  0  0  0
    2.5927   -4.8228    4.6187 C   0  0  0  0  0  0  0  0  0  0  0  0
    2.6665   -7.4037    4.5319 C   0  0  1  0  0  0  0  0  0  0  0  0
    3.2992   -8.5769    5.3264 C   0  0  0  0  0  0  0  0  0  0  0  0
    3.5941   -7.0741    3.4937 O   0  0  0  0  0  0  0  0  0  0  0  0
    3.2187   -7.5669    2.2015 C   0  0  1  0  0  0  0  0  0  0  0  0
    3.9461   -8.9006    1.9461 C   0  0  0  0  0  0  0  0  0  0  0  0
    3.5040   -6.5542    1.0677 C   0  0  2  0  0  0  0  0  0  0  0  0
    4.4811   -5.4230    1.3850 C   0  0  1  0  0  0  0  0  0  0  0  0
    5.9163   -5.6599    0.8827 C   0  0  0  0  0  0  0  0  0  0  0  0
    0.4824   -3.9901    6.7942 O   0  0  0  0  0  0  0  0  0  0  0  0
   -0.9073   -4.0532    7.0263 C   0  0  0  0  0  0  0  0  0  0  0  0
   -0.9614   -4.9924    8.2331 C   0  0  0  0  0  0  0  0  0  0  0  0
    0.2364   -5.6511    8.2816 O   0  0  0  0  0  0  0  0  0  0  0  0
    6.0770   -2.2476   -0.5827 H   0  0  0  0  0  0  0  0  0  0  0  0
    5.7547   -0.5220   -0.5878 H   0  0  0  0  0  0  0  0  0  0  0  0
    5.6865   -1.4590   -2.0871 H   0  0  0  0  0  0  0  0  0  0  0  0
    3.3768   -0.9736   -1.2915 H   0  0  0  0  0  0  0  0  0  0  0  0
    3.9128   -0.7711    1.1533 H   0  0  0  0  0  0  0  0  0  0  0  0
    2.4840   -1.7095    0.8165 H   0  0  0  0  0  0  0  0  0  0  0  0
    5.2690   -2.8183    1.4739 H   0  0  0  0  0  0  0  0  0  0  0  0
    3.8367   -2.9280    2.4787 H   0  0  0  0  0  0  0  0  0  0  0  0
    2.4276   -3.2025   -1.3458 H   0  0  0  0  0  0  0  0  0  0  0  0
    3.8189   -3.1877   -2.4007 H   0  0  0  0  0  0  0  0  0  0  0  0
    1.9702   -6.0069   -0.3213 H   0  0  0  0  0  0  0  0  0  0  0  0
    0.7815   -5.6994    2.3524 H   0  0  0  0  0  0  0  0  0  0  0  0
    0.2036   -6.6755    1.0422 H   0  0  0  0  0  0  0  0  0  0  0  0
    1.3629   -8.5554    1.6703 H   0  0  0  0  0  0  0  0  0  0  0  0
    1.4317   -8.9938    3.8189 H   0  0  0  0  0  0  0  0  0  0  0  0
   -0.6928   -7.4741    3.4193 H   0  0  0  0  0  0  0  0  0  0  0  0
   -0.3693   -8.4068    4.8596 H   0  0  0  0  0  0  0  0  0  0  0  0
   -0.1035   -5.4176    4.4707 H   0  0  0  0  0  0  0  0  0  0  0  0
   -1.0487   -6.2676    5.6396 H   0  0  0  0  0  0  0  0  0  0  0  0
    1.0528   -7.2394    6.6283 H   0  0  0  0  0  0  0  0  0  0  0  0
    2.8068   -3.9943    7.5645 H   0  0  0  0  0  0  0  0  0  0  0  0
    2.6547   -5.3216    8.6973 H   0  0  0  0  0  0  0  0  0  0  0  0
    4.3061   -5.5615    6.4787 H   0  0  0  0  0  0  0  0  0  0  0  0
    3.4608   -6.9022    7.2392 H   0  0  0  0  0  0  0  0  0  0  0  0
    2.0653   -4.8333    3.6760 H   0  0  0  0  0  0  0  0  0  0  0  0
    3.6415   -4.6479    4.3956 H   0  0  0  0  0  0  0  0  0  0  0  0
    2.2566   -3.9397    5.1530 H   0  0  0  0  0  0  0  0  0  0  0  0
    2.6997   -8.8500    6.1974 H   0  0  0  0  0  0  0  0  0  0  0  0
    4.3008   -8.3178    5.6680 H   0  0  0  0  0  0  0  0  0  0  0  0
    3.4014   -9.4784    4.7319 H   0  0  0  0  0  0  0  0  0  0  0  0
    3.7933   -9.2452    0.9231 H   0  0  0  0  0  0  0  0  0  0  0  0
    3.5984   -9.7003    2.5953 H   0  0  0  0  0  0  0  0  0  0  0  0
    5.0170   -8.7771    2.0996 H   0  0  0  0  0  0  0  0  0  0  0  0
    3.8245   -7.0825    0.1718 H   0  0  0  0  0  0  0  0  0  0  0  0
    4.5075   -5.2324    2.4445 H   0  0  0  0  0  0  0  0  0  0  0  0
    5.9393   -5.8576   -0.1907 H   0  0  0  0  0  0  0  0  0  0  0  0
    6.3617   -6.5132    1.3909 H   0  0  0  0  0  0  0  0  0  0  0  0
    6.5437   -4.7916    1.0734 H   0  0  0  0  0  0  0  0  0  0  0  0
   -1.3324   -3.0563    7.2483 H   0  0  0  0  0  0  0  0  0  0  0  0
   -1.4148   -4.5057    6.1948 H   0  0  0  0  0  0  0  0  0  0  0  0
   -1.1902   -4.4909    9.1698 H   0  0  0  0  0  0  0  0  0  0  0  0
   -1.7509   -5.7178    8.0487 H   0  0  0  0  0  0  0  0  0  0  0  0
  1  2  1  0
  1 33  1  0
  1 34  1  0
  1 35  1  0
  2  7  1  0
  2  3  1  0
  2 36  1  6
  3  4  1  0
  3 37  1  0
  3 38  1  0
  4  5  1  0
  4 39  1  0
  4 40  1  0
  5 27  1  0
  5  6  1  6
  5  8  1  0
  6  7  1  0
  7 41  1  0
  7 42  1  0
  8  9  1  0
  9 26  1  0
  9 10  1  0
  9 43  1  6
 10 11  1  0
 10 44  1  0
 10 45  1  0
 11 24  1  0
 11 12  1  0
 11 46  1  6
 12 21  1  0
 12 13  1  0
 12 47  1  6
 13 14  1  0
 13 48  1  0
 13 49  1  0
 14 15  1  0
 14 50  1  0
 14 51  1  0
 15 19  1  0
 15 16  1  0
 15 52  1  1
 16 32  1  0
 16 17  1  0
 16 29  1  0
 17 18  1  0
 17 53  1  0
 17 54  1  0
 18 19  1  0
 18 55  1  0
 18 56  1  0
 19 20  1  6
 19 21  1  0
 20 57  1  0
 20 58  1  0
 20 59  1  0
 21 22  1  1
 21 23  1  0
 22 60  1  0
 22 61  1  0
 22 62  1  0
 23 24  1  0
 24 25  1  6
 24 26  1  0
 25 63  1  0
 25 64  1  0
 25 65  1  0
 26 27  1  0
 26 66  1  6
 27 28  1  0
 27 67  1  1
 28 68  1  0
 28 69  1  0
 28 70  1  0
 29 30  1  0
 30 31  1  0
 30 71  1  0
 30 72  1  0
 31 32  1  0
 31 73  1  0
 31 74  1  0
M  END
>  <i_m_ct_stereo_status>  (158) 
1

>  <s_m_source_file>  (158) 
/var/tmp/pbs.5076255.sched01/tmpmtrcy7mx/460f9z2a7c.sdf

>  <i_m_source_file_index>  (158) 
24

>  <i_lp_mmshare_version>  (158) 
48012

>  <i_f3d_flags>  (158) 
0

>  <s_epik_input>  (158) 
TzFbQ0gyXVtDQEhdKFtDSDNdKVtDSDJdW0NIMl1bQ0BAXTEyT1tDQEhdM1tDQEBIXShbQ0BIXTJbQ0gzXSlbQ0BdNChbQ0gzXSlbQ0BIXShbQ0gyXTMpW0NASF01W0NAXShPNCkoW0NIM10pW0NAQF02KFtDSDNdKVtDQEhdKFtDSDJdW0NIMl01KUM3KFtDSDJdW0NIMl02KU9bQ0gyXVtDSDJdTzc=

>  <s_epik_cmdline>  (158) 
J2VwaWtfcHl0aG9uJywgJy1waHQnLCAnMi4wJywgJy1waCcsICc3LjAnLCAnLXRuJywgJzgnLCAnLW1hJywgJzIwMCcsICctaW1hZScsICc8aW5maWxlLm1hZT4nLCAnLW9tYWUnLCAnPG91dGZpbGUubWFlPic=

>  <r_lp_tautomer_probability>  (158) 
1

>  <r_epik_Ionization_Penalty>  (158) 
1.80452e-11

>  <r_epik_Ionization_Penalty_Charging>  (158) 
0

>  <r_epik_Ionization_Penalty_Neutral>  (158) 
1.80452e-11

>  <r_epik_State_Penalty>  (158) 
-0

>  <r_epik_Charging_Adjusted_Penalty>  (158) 
0

>  <i_epik_Tot_Q>  (158) 
0

>  <i_epik_Tot_abs_Q>  (158) 
0

>  <s_lp_Force_Field>  (158) 
OPLS3e

>  <r_lp_Energy>  (158) 
27.9658

>  <b_lp_Chiralities_Consistent>  (158) 
1

>  <s_lp_Variant>  (158) 
36:0-1

>  <s_i_glide_gridfile>  (158) 
pfpi4k_grid

>  <i_i_glide_lignum>  (158) 
24

>  <i_i_glide_rotatable_bonds>  (158) 
0

>  <r_i_docking_score>  (158) 
-1.96173

>  <r_i_glide_ligand_efficiency>  (158) 
-0.0613042

>  <r_i_glide_ligand_efficiency_sa>  (158) 
-0.194629

>  <r_i_glide_ligand_efficiency_ln>  (158) 
-0.439286

>  <r_i_glide_gscore>  (158) 
-1.96173

>  <r_i_glide_lipo>  (158) 
-0.227271

>  <r_i_glide_hbond>  (158) 
0

>  <r_i_glide_metal>  (158) 
-0

>  <r_i_glide_rewards>  (158) 
-0.373728

>  <r_i_glide_evdw>  (158) 
-29.5902

>  <r_i_glide_ecoul>  (158) 
0.792964

>  <r_i_glide_erotb>  (158) 
0

>  <r_i_glide_esite>  (158) 
-0.000168978

>  <r_i_glide_emodel>  (158) 
-31.3976

>  <r_i_glide_energy>  (158) 
-28.7972

>  <r_i_glide_einternal>  (158) 
0

>  <r_i_glide_intrahb_reward>  (158) 
-0

>  <i_i_glide_confnum>  (158) 
4

>  <i_i_glide_posenum>  (158) 
1

>  <r_i_glide_eff_state_penalty>  (158) 
0

>  <ligand_id>  (158) 
36

>  <original_smiles>  (158) 
CC1CCC2(OC1)OC1CC3C4CCC5C6(CCC5(C)C4(C)OC3(C)C1C2C)OCCO6

>  <smiles>  (158) 
[H]C([H])([H])C1([H])C([H])([H])OC2(OC3([H])C([H])([H])C4([H])C5([H])C([H])([H])C([H])([H])C6([H])C7(OC([H])([H])C([H])([H])O7)C([H])([H])C([H])([H])C6(C([H])([H])[H])C5(C([H])([H])[H])OC4(C([H])([H])[H])C3([H])C2([H])C([H])([H])[H])C([H])([H])C1([H])[H]

$$$$
37:0:0
     RDKit          3D

 63 68  0  0  1  0  0  0  0  0999 V2000
    0.5705  -10.1411    2.9007 C   0  0  0  0  0  0  0  0  0  0  0  0
    1.0673   -8.9589    3.7583 C   0  0  2  0  0  0  0  0  0  0  0  0
    0.0352   -8.7093    4.8704 C   0  0  0  0  0  0  0  0  0  0  0  0
    0.5304   -7.7988    5.9958 C   0  0  0  0  0  0  0  0  0  0  0  0
    0.1832   -6.3434    5.7290 C   0  0  1  0  0  0  0  0  0  0  0  0
    0.5633   -5.3378    6.8245 C   0  0  1  0  0  0  0  0  0  0  0  0
    1.8639   -5.6287    7.5841 C   0  0  0  0  0  0  0  0  0  0  0  0
    0.5825   -4.0581    5.9865 C   0  0  1  0  0  0  0  0  0  0  0  0
    1.3617   -2.8300    6.5211 C   0  0  2  0  0  0  0  0  0  0  0  0
    0.6816   -2.2099    7.6132 O   0  0  0  0  0  0  0  0  0  0  0  0
    0.7308   -0.8308    7.3389 C   0  0  2  0  0  0  0  0  0  0  0  0
   -0.4812   -0.3443    6.8384 O   0  0  0  0  0  0  0  0  0  0  0  0
   -0.9100   -1.0699    5.6960 C   0  0  1  0  0  0  0  0  0  0  0  0
   -2.1220   -0.4035    5.0560 C   0  0  0  0  0  0  0  0  0  0  0  0
    0.2701   -1.2982    4.7070 C   0  0  1  0  0  0  0  0  0  0  0  0
    0.5556   -0.0678    3.8238 C   0  0  0  0  0  0  0  0  0  0  0  0
    1.5253   -1.6866    5.5114 C   0  0  1  0  0  0  0  0  0  0  0  0
    1.7577   -0.6391    6.4127 O   0  0  0  0  0  0  0  0  0  0  0  0
    1.1604   -4.4554    4.7626 O   0  0  0  0  0  0  0  0  0  0  0  0
    0.6925   -5.7446    4.4029 C   0  0  1  0  0  0  0  0  0  0  0  0
    1.8280   -6.4287    3.6106 C   0  0  1  0  0  0  0  0  0  0  0  0
    2.9811   -6.6389    4.3771 O   0  0  0  0  0  0  0  0  0  0  0  0
    4.1101   -6.2476    3.4678 O   0  0  0  0  0  0  0  0  0  0  0  0
    3.4634   -5.8110    2.2974 C   0  0  1  0  0  0  0  0  0  0  0  0
    4.2298   -4.6120    1.7032 C   0  0  0  0  0  0  0  0  0  0  0  0
    3.3735   -6.9694    1.2954 C   0  0  0  0  0  0  0  0  0  0  0  0
    2.5995   -8.1483    1.9186 C   0  0  0  0  0  0  0  0  0  0  0  0
    1.4366   -7.7372    2.8562 C   0  0  1  0  0  0  0  0  0  0  0  0
    2.1426   -5.4777    2.5978 O   0  0  0  0  0  0  0  0  0  0  0  0
   -0.2919   -9.8524    2.3020 H   0  0  0  0  0  0  0  0  0  0  0  0
    0.2739  -10.9791    3.5319 H   0  0  0  0  0  0  0  0  0  0  0  0
    1.3447  -10.5078    2.2313 H   0  0  0  0  0  0  0  0  0  0  0  0
    1.9815   -9.2779    4.2566 H   0  0  0  0  0  0  0  0  0  0  0  0
   -0.9202   -8.3733    4.4637 H   0  0  0  0  0  0  0  0  0  0  0  0
   -0.1717   -9.6704    5.3399 H   0  0  0  0  0  0  0  0  0  0  0  0
    0.0402   -8.0913    6.9218 H   0  0  0  0  0  0  0  0  0  0  0  0
    1.5990   -7.9365    6.1618 H   0  0  0  0  0  0  0  0  0  0  0  0
   -0.9062   -6.2894    5.6589 H   0  0  0  0  0  0  0  0  0  0  0  0
   -0.2360   -5.2735    7.5666 H   0  0  0  0  0  0  0  0  0  0  0  0
    2.7224   -5.6467    6.9159 H   0  0  0  0  0  0  0  0  0  0  0  0
    1.8197   -6.5768    8.1201 H   0  0  0  0  0  0  0  0  0  0  0  0
    2.0374   -4.8617    8.3384 H   0  0  0  0  0  0  0  0  0  0  0  0
   -0.4599   -3.8228    5.7829 H   0  0  0  0  0  0  0  0  0  0  0  0
    2.3734   -3.0876    6.8395 H   0  0  0  0  0  0  0  0  0  0  0  0
    0.9484   -0.2487    8.2454 H   0  0  0  0  0  0  0  0  0  0  0  0
   -1.2689   -2.0153    6.1013 H   0  0  0  0  0  0  0  0  0  0  0  0
   -2.4186   -0.9984    4.1873 H   0  0  0  0  0  0  0  0  0  0  0  0
   -1.9529    0.6239    4.7140 H   0  0  0  0  0  0  0  0  0  0  0  0
   -2.9257   -0.3898    5.7672 H   0  0  0  0  0  0  0  0  0  0  0  0
   -0.0101   -2.1311    4.0549 H   0  0  0  0  0  0  0  0  0  0  0  0
    0.6982    0.8272    4.4250 H   0  0  0  0  0  0  0  0  0  0  0  0
   -0.2590    0.1369    3.1314 H   0  0  0  0  0  0  0  0  0  0  0  0
    1.4498   -0.1987    3.2185 H   0  0  0  0  0  0  0  0  0  0  0  0
    2.3826   -1.8467    4.8646 H   0  0  0  0  0  0  0  0  0  0  0  0
   -0.1609   -5.6156    3.7326 H   0  0  0  0  0  0  0  0  0  0  0  0
    4.2675   -3.7797    2.4099 H   0  0  0  0  0  0  0  0  0  0  0  0
    3.7777   -4.2497    0.7781 H   0  0  0  0  0  0  0  0  0  0  0  0
    5.2588   -4.8933    1.4769 H   0  0  0  0  0  0  0  0  0  0  0  0
    2.8671   -6.6217    0.3995 H   0  0  0  0  0  0  0  0  0  0  0  0
    4.3696   -7.2956    1.0041 H   0  0  0  0  0  0  0  0  0  0  0  0
    2.2155   -8.7581    1.0985 H   0  0  0  0  0  0  0  0  0  0  0  0
    3.3055   -8.7719    2.4695 H   0  0  0  0  0  0  0  0  0  0  0  0
    0.5705   -7.5026    2.2375 H   0  0  0  0  0  0  0  0  0  0  0  0
  1  2  1  0
  1 30  1  0
  1 31  1  0
  1 32  1  0
  2 28  1  0
  2  3  1  0
  2 33  1  1
  3  4  1  0
  3 34  1  0
  3 35  1  0
  4  5  1  0
  4 36  1  0
  4 37  1  0
  5 20  1  0
  5  6  1  0
  5 38  1  6
  6  7  1  0
  6  8  1  0
  6 39  1  1
  7 40  1  0
  7 41  1  0
  7 42  1  0
  8  9  1  0
  8 19  1  0
  8 43  1  6
  9 17  1  0
  9 10  1  0
  9 44  1  1
 10 11  1  0
 11 18  1  0
 11 12  1  0
 11 45  1  1
 12 13  1  0
 13 14  1  0
 13 15  1  0
 13 46  1  1
 14 47  1  0
 14 48  1  0
 14 49  1  0
 15 16  1  0
 15 17  1  0
 15 50  1  6
 16 51  1  0
 16 52  1  0
 16 53  1  0
 17 18  1  0
 17 54  1  6
 19 20  1  0
 20 21  1  0
 20 55  1  6
 21 28  1  0
 21 29  1  0
 21 22  1  1
 22 23  1  0
 23 24  1  0
 24 25  1  6
 24 26  1  0
 24 29  1  0
 25 56  1  0
 25 57  1  0
 25 58  1  0
 26 27  1  0
 26 59  1  0
 26 60  1  0
 27 28  1  0
 27 61  1  0
 27 62  1  0
 28 63  1  6
M  END
>  <i_m_ct_stereo_status>  (159) 
1

>  <s_m_source_file>  (159) 
/var/tmp/pbs.5076255.sched01/tmpmtrcy7mx/460f9z2a7c.sdf

>  <i_m_source_file_index>  (159) 
25

>  <i_lp_mmshare_version>  (159) 
48012

>  <i_f3d_flags>  (159) 
0

>  <s_epik_input>  (159) 
TzFPW0NAQF0oTzIpKFtDSDNdKVtDSDJdW0NIMl1bQ0BIXTNbQ0BIXShbQ0gzXSlbQ0gyXVtDSDJdW0NASF0oW0NAQEhdNFtDQF0xMjMpW0NAQEhdKFtDSDNdKVtDQEhdKE80KVtDQEhdKE9bQ0BIXTU2KVtDQEhdKE82KVtDQEhdKFtDSDNdKVtDQEBIXShPNSlbQ0gzXQ==

>  <s_epik_cmdline>  (159) 
J2VwaWtfcHl0aG9uJywgJy1waHQnLCAnMi4wJywgJy1waCcsICc3LjAnLCAnLXRuJywgJzgnLCAnLW1hJywgJzIwMCcsICctaW1hZScsICc8aW5maWxlLm1hZT4nLCAnLW9tYWUnLCAnPG91dGZpbGUubWFlPic=

>  <r_lp_tautomer_probability>  (159) 
1

>  <r_epik_Ionization_Penalty>  (159) 
1.28269e-13

>  <r_epik_Ionization_Penalty_Charging>  (159) 
0

>  <r_epik_Ionization_Penalty_Neutral>  (159) 
1.28269e-13

>  <r_epik_State_Penalty>  (159) 
-0

>  <r_epik_Charging_Adjusted_Penalty>  (159) 
0

>  <i_epik_Tot_Q>  (159) 
0

>  <i_epik_Tot_abs_Q>  (159) 
0

>  <s_epik_Chemistry_Notes>  (159) 
This compound contains an acetal/aminal-like group ( X-CH(R)-Y where X, Y are N, S, or O) that may be acid/base labile, releasing an aldehyde.

>  <s_lp_Force_Field>  (159) 
OPLS3e

>  <r_lp_Energy>  (159) 
11.6744

>  <b_lp_Chiralities_Consistent>  (159) 
1

>  <s_lp_Variant>  (159) 
37:0-1

>  <s_i_glide_gridfile>  (159) 
pfpi4k_grid

>  <i_i_glide_lignum>  (159) 
25

>  <i_i_glide_rotatable_bonds>  (159) 
1

>  <r_i_docking_score>  (159) 
-2.07919

>  <r_i_glide_ligand_efficiency>  (159) 
-0.0716962

>  <r_i_glide_ligand_efficiency_sa>  (159) 
-0.220273

>  <r_i_glide_ligand_efficiency_ln>  (159) 
-0.476082

>  <r_i_glide_gscore>  (159) 
-2.07919

>  <r_i_glide_lipo>  (159) 
-0.15708

>  <r_i_glide_hbond>  (159) 
-0.0206688

>  <r_i_glide_metal>  (159) 
-0

>  <r_i_glide_rewards>  (159) 
-0.613836

>  <r_i_glide_evdw>  (159) 
-24.056

>  <r_i_glide_ecoul>  (159) 
-1.16241

>  <r_i_glide_erotb>  (159) 
0.116911

>  <r_i_glide_esite>  (159) 
-0.0273568

>  <r_i_glide_emodel>  (159) 
-27.9208

>  <r_i_glide_energy>  (159) 
-25.2184

>  <r_i_glide_einternal>  (159) 
0.274112

>  <r_i_glide_intrahb_reward>  (159) 
-0

>  <i_i_glide_confnum>  (159) 
1

>  <i_i_glide_posenum>  (159) 
23

>  <r_i_glide_eff_state_penalty>  (159) 
0

>  <ligand_id>  (159) 
37

>  <original_smiles>  (159) 
CC1CCC2C(C)C(C3OC4OC(C)C(C)C3O4)OC2C23OOC(C)(CCC12)O3

>  <smiles>  (159) 
[H]C12OC([H])(C3([H])OC4([H])C56OOC(C([H])([H])[H])(O5)C([H])([H])C([H])([H])C6([H])C([H])(C([H])([H])[H])C([H])([H])C([H])([H])C4([H])C3([H])C([H])([H])[H])C([H])(O1)C([H])(C([H])([H])[H])C([H])(C([H])([H])[H])O2

$$$$
37:0:1
     RDKit          3D

 63 68  0  0  1  0  0  0  0  0999 V2000
    0.1212   -9.8939    2.9481 C   0  0  0  0  0  0  0  0  0  0  0  0
    0.9046   -8.7065    3.5498 C   0  0  2  0  0  0  0  0  0  0  0  0
   -0.1105   -7.7789    4.2457 C   0  0  0  0  0  0  0  0  0  0  0  0
    0.5238   -6.7280    5.1637 C   0  0  0  0  0  0  0  0  0  0  0  0
    0.8108   -5.4294    4.4224 C   0  0  1  0  0  0  0  0  0  0  0  0
    1.3812   -4.2757    5.2545 C   0  0  1  0  0  0  0  0  0  0  0  0
    2.3524   -4.6670    6.3765 C   0  0  0  0  0  0  0  0  0  0  0  0
    1.9963   -3.4303    4.1317 C   0  0  1  0  0  0  0  0  0  0  0  0
    3.1033   -2.4129    4.5074 C   0  0  2  0  0  0  0  0  0  0  0  0
    2.6218   -1.4004    5.3779 O   0  0  0  0  0  0  0  0  0  0  0  0
    3.1178   -0.1986    4.8632 C   0  0  2  0  0  0  0  0  0  0  0  0
    2.1352    0.5130    4.1458 O   0  0  0  0  0  0  0  0  0  0  0  0
    1.5228   -0.2902    3.1059 C   0  0  1  0  0  0  0  0  0  0  0  0
    0.6026    0.5517    2.2149 C   0  0  0  0  0  0  0  0  0  0  0  0
    2.6320   -1.0629    2.3287 C   0  0  1  0  0  0  0  0  0  0  0  0
    3.3297   -0.1854    1.2787 C   0  0  0  0  0  0  0  0  0  0  0  0
    3.6701   -1.6214    3.3265 C   0  0  1  0  0  0  0  0  0  0  0  0
    4.1819   -0.5263    4.0315 O   0  0  0  0  0  0  0  0  0  0  0  0
    2.5529   -4.3954    3.2550 O   0  0  0  0  0  0  0  0  0  0  0  0
    1.6903   -5.5183    3.1610 C   0  0  1  0  0  0  0  0  0  0  0  0
    2.5880   -6.7558    2.9110 C   0  0  1  0  0  0  0  0  0  0  0  0
    3.4511   -7.0326    3.9847 O   0  0  0  0  0  0  0  0  0  0  0  0
    4.7535   -7.3656    3.3392 O   0  0  0  0  0  0  0  0  0  0  0  0
    4.5116   -7.1982    1.9607 C   0  0  1  0  0  0  0  0  0  0  0  0
    5.7540   -6.5798    1.2831 C   0  0  0  0  0  0  0  0  0  0  0  0
    4.1275   -8.5451    1.3294 C   0  0  0  0  0  0  0  0  0  0  0  0
    2.8746   -9.1168    2.0125 C   0  0  0  0  0  0  0  0  0  0  0  0
    1.8372   -8.0567    2.4773 C   0  0  1  0  0  0  0  0  0  0  0  0
    3.3914   -6.3722    1.7990 O   0  0  0  0  0  0  0  0  0  0  0  0
   -0.4743   -9.5760    2.0991 H   0  0  0  0  0  0  0  0  0  0  0  0
   -0.5569  -10.3202    3.6854 H   0  0  0  0  0  0  0  0  0  0  0  0
    0.7812  -10.6995    2.6270 H   0  0  0  0  0  0  0  0  0  0  0  0
    1.5407   -9.1055    4.3373 H   0  0  0  0  0  0  0  0  0  0  0  0
   -0.7919   -7.3253    3.5234 H   0  0  0  0  0  0  0  0  0  0  0  0
   -0.7368   -8.4020    4.8873 H   0  0  0  0  0  0  0  0  0  0  0  0
   -0.1720   -6.5044    5.9718 H   0  0  0  0  0  0  0  0  0  0  0  0
    1.4205   -7.1297    5.6371 H   0  0  0  0  0  0  0  0  0  0  0  0
   -0.1598   -5.0648    4.0777 H   0  0  0  0  0  0  0  0  0  0  0  0
    0.5696   -3.7078    5.7136 H   0  0  0  0  0  0  0  0  0  0  0  0
    3.2241   -5.1914    5.9935 H   0  0  0  0  0  0  0  0  0  0  0  0
    1.8702   -5.2973    7.1214 H   0  0  0  0  0  0  0  0  0  0  0  0
    2.6977   -3.7811    6.9081 H   0  0  0  0  0  0  0  0  0  0  0  0
    1.1724   -2.9597    3.6094 H   0  0  0  0  0  0  0  0  0  0  0  0
    3.9390   -2.9229    4.9936 H   0  0  0  0  0  0  0  0  0  0  0  0
    3.4598    0.4641    5.6572 H   0  0  0  0  0  0  0  0  0  0  0  0
    0.8857   -0.9830    3.6499 H   0  0  0  0  0  0  0  0  0  0  0  0
    0.2068   -0.0835    1.4340 H   0  0  0  0  0  0  0  0  0  0  0  0
    1.1120    1.3887    1.7276 H   0  0  0  0  0  0  0  0  0  0  0  0
   -0.2556    0.9665    2.7553 H   0  0  0  0  0  0  0  0  0  0  0  0
    2.1523   -1.8853    1.8104 H   0  0  0  0  0  0  0  0  0  0  0  0
    3.7191    0.7330    1.7120 H   0  0  0  0  0  0  0  0  0  0  0  0
    2.6438    0.0927    0.4792 H   0  0  0  0  0  0  0  0  0  0  0  0
    4.1653   -0.7028    0.8083 H   0  0  0  0  0  0  0  0  0  0  0  0
    4.4610   -2.1726    2.8140 H   0  0  0  0  0  0  0  0  0  0  0  0
    1.0601   -5.3714    2.2864 H   0  0  0  0  0  0  0  0  0  0  0  0
    5.9970   -5.6134    1.7284 H   0  0  0  0  0  0  0  0  0  0  0  0
    5.6015   -6.4304    0.2175 H   0  0  0  0  0  0  0  0  0  0  0  0
    6.6195   -7.2275    1.4147 H   0  0  0  0  0  0  0  0  0  0  0  0
    3.9376   -8.4103    0.2687 H   0  0  0  0  0  0  0  0  0  0  0  0
    4.9469   -9.2552    1.4141 H   0  0  0  0  0  0  0  0  0  0  0  0
    2.4062   -9.8255    1.3221 H   0  0  0  0  0  0  0  0  0  0  0  0
    3.2027   -9.6955    2.8784 H   0  0  0  0  0  0  0  0  0  0  0  0
    1.2254   -7.7925    1.6159 H   0  0  0  0  0  0  0  0  0  0  0  0
  1  2  1  0
  1 30  1  0
  1 31  1  0
  1 32  1  0
  2 28  1  0
  2  3  1  0
  2 33  1  1
  3  4  1  0
  3 34  1  0
  3 35  1  0
  4  5  1  0
  4 36  1  0
  4 37  1  0
  5 20  1  0
  5  6  1  0
  5 38  1  6
  6  7  1  0
  6  8  1  0
  6 39  1  1
  7 40  1  0
  7 41  1  0
  7 42  1  0
  8  9  1  0
  8 19  1  0
  8 43  1  6
  9 17  1  0
  9 10  1  0
  9 44  1  1
 10 11  1  0
 11 18  1  0
 11 12  1  0
 11 45  1  1
 12 13  1  0
 13 14  1  0
 13 15  1  0
 13 46  1  1
 14 47  1  0
 14 48  1  0
 14 49  1  0
 15 16  1  0
 15 17  1  0
 15 50  1  6
 16 51  1  0
 16 52  1  0
 16 53  1  0
 17 18  1  0
 17 54  1  6
 19 20  1  0
 20 21  1  0
 20 55  1  6
 21 28  1  0
 21 29  1  0
 21 22  1  1
 22 23  1  0
 23 24  1  0
 24 25  1  6
 24 26  1  0
 24 29  1  0
 25 56  1  0
 25 57  1  0
 25 58  1  0
 26 27  1  0
 26 59  1  0
 26 60  1  0
 27 28  1  0
 27 61  1  0
 27 62  1  0
 28 63  1  6
M  END
>  <i_m_ct_stereo_status>  (160) 
1

>  <s_m_source_file>  (160) 
/var/tmp/pbs.5076255.sched01/tmpmtrcy7mx/460f9z2a7c.sdf

>  <i_m_source_file_index>  (160) 
25

>  <i_lp_mmshare_version>  (160) 
48012

>  <i_f3d_flags>  (160) 
0

>  <s_epik_input>  (160) 
TzFPW0NAQF0oTzIpKFtDSDNdKVtDSDJdW0NIMl1bQ0BIXTNbQ0BIXShbQ0gzXSlbQ0gyXVtDSDJdW0NASF0oW0NAQEhdNFtDQF0xMjMpW0NAQEhdKFtDSDNdKVtDQEhdKE80KVtDQEhdKE9bQ0BIXTU2KVtDQEhdKE82KVtDQEhdKFtDSDNdKVtDQEBIXShPNSlbQ0gzXQ==

>  <s_epik_cmdline>  (160) 
J2VwaWtfcHl0aG9uJywgJy1waHQnLCAnMi4wJywgJy1waCcsICc3LjAnLCAnLXRuJywgJzgnLCAnLW1hJywgJzIwMCcsICctaW1hZScsICc8aW5maWxlLm1hZT4nLCAnLW9tYWUnLCAnPG91dGZpbGUubWFlPic=

>  <r_lp_tautomer_probability>  (160) 
1

>  <r_epik_Ionization_Penalty>  (160) 
1.28269e-13

>  <r_epik_Ionization_Penalty_Charging>  (160) 
0

>  <r_epik_Ionization_Penalty_Neutral>  (160) 
1.28269e-13

>  <r_epik_State_Penalty>  (160) 
-0

>  <r_epik_Charging_Adjusted_Penalty>  (160) 
0

>  <i_epik_Tot_Q>  (160) 
0

>  <i_epik_Tot_abs_Q>  (160) 
0

>  <s_epik_Chemistry_Notes>  (160) 
This compound contains an acetal/aminal-like group ( X-CH(R)-Y where X, Y are N, S, or O) that may be acid/base labile, releasing an aldehyde.

>  <s_lp_Force_Field>  (160) 
OPLS3e

>  <r_lp_Energy>  (160) 
11.6744

>  <b_lp_Chiralities_Consistent>  (160) 
1

>  <s_lp_Variant>  (160) 
37:0-1

>  <s_i_glide_gridfile>  (160) 
pfpi4k_grid

>  <i_i_glide_lignum>  (160) 
25

>  <i_i_glide_rotatable_bonds>  (160) 
1

>  <r_i_docking_score>  (160) 
-2.05789

>  <r_i_glide_ligand_efficiency>  (160) 
-0.0709618

>  <r_i_glide_ligand_efficiency_sa>  (160) 
-0.218017

>  <r_i_glide_ligand_efficiency_ln>  (160) 
-0.471205

>  <r_i_glide_gscore>  (160) 
-2.05789

>  <r_i_glide_lipo>  (160) 
-0.0969712

>  <r_i_glide_hbond>  (160) 
0

>  <r_i_glide_metal>  (160) 
-0

>  <r_i_glide_rewards>  (160) 
-0.659965

>  <r_i_glide_evdw>  (160) 
-26.352

>  <r_i_glide_ecoul>  (160) 
-0.645501

>  <r_i_glide_erotb>  (160) 
0.116911

>  <r_i_glide_esite>  (160) 
-0.00344374

>  <r_i_glide_emodel>  (160) 
-29.8456

>  <r_i_glide_energy>  (160) 
-26.9975

>  <r_i_glide_einternal>  (160) 
0.0141131

>  <r_i_glide_intrahb_reward>  (160) 
-0

>  <i_i_glide_confnum>  (160) 
1

>  <i_i_glide_posenum>  (160) 
26

>  <r_i_glide_eff_state_penalty>  (160) 
0

>  <ligand_id>  (160) 
37

>  <original_smiles>  (160) 
CC1CCC2C(C)C(C3OC4OC(C)C(C)C3O4)OC2C23OOC(C)(CCC12)O3

>  <smiles>  (160) 
[H]C12OC([H])(C3([H])OC4([H])C56OOC(C([H])([H])[H])(O5)C([H])([H])C([H])([H])C6([H])C([H])(C([H])([H])[H])C([H])([H])C([H])([H])C4([H])C3([H])C([H])([H])[H])C([H])(O1)C([H])(C([H])([H])[H])C([H])(C([H])([H])[H])O2

$$$$
37:0:2
     RDKit          3D

 63 68  0  0  1  0  0  0  0  0999 V2000
    5.3776   -9.2053    1.3144 C   0  0  0  0  0  0  0  0  0  0  0  0
    4.3285   -8.9649    2.4191 C   0  0  2  0  0  0  0  0  0  0  0  0
    3.0082   -8.5475    1.7382 C   0  0  0  0  0  0  0  0  0  0  0  0
    1.7888   -8.5742    2.6599 C   0  0  0  0  0  0  0  0  0  0  0  0
    1.5560   -7.2284    3.3413 C   0  0  1  0  0  0  0  0  0  0  0  0
    0.3174   -7.1238    4.2361 C   0  0  1  0  0  0  0  0  0  0  0  0
   -0.0586   -8.3902    5.0222 C   0  0  0  0  0  0  0  0  0  0  0  0
    0.7307   -5.9355    5.1065 C   0  0  1  0  0  0  0  0  0  0  0  0
    0.0321   -5.7214    6.4686 C   0  0  2  0  0  0  0  0  0  0  0  0
   -1.3479   -5.4171    6.3409 O   0  0  0  0  0  0  0  0  0  0  0  0
   -1.5791   -4.3309    7.1935 C   0  0  2  0  0  0  0  0  0  0  0  0
   -1.6168   -3.0979    6.5187 O   0  0  0  0  0  0  0  0  0  0  0  0
   -0.4563   -2.8500    5.7293 C   0  0  1  0  0  0  0  0  0  0  0  0
   -0.4256   -1.4237    5.1450 C   0  0  0  0  0  0  0  0  0  0  0  0
    0.8175   -3.2322    6.5294 C   0  0  1  0  0  0  0  0  0  0  0  0
    1.2431   -2.1280    7.5098 C   0  0  0  0  0  0  0  0  0  0  0  0
    0.5704   -4.5515    7.3036 C   0  0  1  0  0  0  0  0  0  0  0  0
   -0.5560   -4.3222    8.1157 O   0  0  0  0  0  0  0  0  0  0  0  0
    2.1067   -6.1413    5.3359 O   0  0  0  0  0  0  0  0  0  0  0  0
    2.7280   -6.6524    4.1684 C   0  0  1  0  0  0  0  0  0  0  0  0
    3.8884   -7.5537    4.6320 C   0  0  1  0  0  0  0  0  0  0  0  0
    3.4400   -8.6838    5.3624 O   0  0  0  0  0  0  0  0  0  0  0  0
    4.4052   -8.7890    6.4973 O   0  0  0  0  0  0  0  0  0  0  0  0
    5.2709   -7.6755    6.3352 C   0  0  1  0  0  0  0  0  0  0  0  0
    5.6228   -7.0895    7.7073 C   0  0  0  0  0  0  0  0  0  0  0  0
    6.5131   -8.1022    5.5477 C   0  0  0  0  0  0  0  0  0  0  0  0
    6.1287   -8.6762    4.1771 C   0  0  0  0  0  0  0  0  0  0  0  0
    4.8878   -8.0060    3.5223 C   0  0  1  0  0  0  0  0  0  0  0  0
    4.6254   -6.7270    5.5228 O   0  0  0  0  0  0  0  0  0  0  0  0
    5.6900   -8.2597    0.8689 H   0  0  0  0  0  0  0  0  0  0  0  0
    4.9742   -9.8383    0.5211 H   0  0  0  0  0  0  0  0  0  0  0  0
    6.2660   -9.7124    1.6909 H   0  0  0  0  0  0  0  0  0  0  0  0
    4.1324   -9.9307    2.8893 H   0  0  0  0  0  0  0  0  0  0  0  0
    3.1142   -7.5800    1.2407 H   0  0  0  0  0  0  0  0  0  0  0  0
    2.8048   -9.2697    0.9441 H   0  0  0  0  0  0  0  0  0  0  0  0
    0.9045   -8.8024    2.0612 H   0  0  0  0  0  0  0  0  0  0  0  0
    1.8771   -9.3847    3.3851 H   0  0  0  0  0  0  0  0  0  0  0  0
    1.3904   -6.5092    2.5366 H   0  0  0  0  0  0  0  0  0  0  0  0
   -0.5546   -6.8489    3.6410 H   0  0  0  0  0  0  0  0  0  0  0  0
    0.7370   -8.7034    5.6932 H   0  0  0  0  0  0  0  0  0  0  0  0
   -0.2988   -9.2226    4.3612 H   0  0  0  0  0  0  0  0  0  0  0  0
   -0.9532   -8.2220    5.6158 H   0  0  0  0  0  0  0  0  0  0  0  0
    0.6592   -5.0650    4.4644 H   0  0  0  0  0  0  0  0  0  0  0  0
    0.1164   -6.6207    7.0823 H   0  0  0  0  0  0  0  0  0  0  0  0
   -2.5311   -4.4558    7.7110 H   0  0  0  0  0  0  0  0  0  0  0  0
   -0.5688   -3.4910    4.8588 H   0  0  0  0  0  0  0  0  0  0  0  0
    0.4974   -1.3053    4.5858 H   0  0  0  0  0  0  0  0  0  0  0  0
   -0.4507   -0.6520    5.9116 H   0  0  0  0  0  0  0  0  0  0  0  0
   -1.2472   -1.2379    4.4557 H   0  0  0  0  0  0  0  0  0  0  0  0
    1.6308   -3.3883    5.8239 H   0  0  0  0  0  0  0  0  0  0  0  0
    0.4233   -1.8448    8.1661 H   0  0  0  0  0  0  0  0  0  0  0  0
    1.5686   -1.2302    6.9842 H   0  0  0  0  0  0  0  0  0  0  0  0
    2.0693   -2.4440    8.1382 H   0  0  0  0  0  0  0  0  0  0  0  0
    1.4433   -4.8458    7.8823 H   0  0  0  0  0  0  0  0  0  0  0  0
    3.1469   -5.8029    3.6199 H   0  0  0  0  0  0  0  0  0  0  0  0
    4.7295   -6.7619    8.2390 H   0  0  0  0  0  0  0  0  0  0  0  0
    6.2964   -6.2316    7.6250 H   0  0  0  0  0  0  0  0  0  0  0  0
    6.1195   -7.8349    8.3330 H   0  0  0  0  0  0  0  0  0  0  0  0
    7.1721   -7.2414    5.4096 H   0  0  0  0  0  0  0  0  0  0  0  0
    7.0836   -8.8460    6.1077 H   0  0  0  0  0  0  0  0  0  0  0  0
    6.9911   -8.5969    3.5158 H   0  0  0  0  0  0  0  0  0  0  0  0
    5.9234   -9.7420    4.3063 H   0  0  0  0  0  0  0  0  0  0  0  0
    5.2256   -7.0924    3.0247 H   0  0  0  0  0  0  0  0  0  0  0  0
  1  2  1  0
  1 30  1  0
  1 31  1  0
  1 32  1  0
  2 28  1  0
  2  3  1  0
  2 33  1  1
  3  4  1  0
  3 34  1  0
  3 35  1  0
  4  5  1  0
  4 36  1  0
  4 37  1  0
  5 20  1  0
  5  6  1  0
  5 38  1  6
  6  7  1  0
  6  8  1  0
  6 39  1  6
  7 40  1  0
  7 41  1  0
  7 42  1  0
  8  9  1  0
  8 19  1  0
  8 43  1  6
  9 17  1  0
  9 10  1  0
  9 44  1  1
 10 11  1  0
 11 18  1  0
 11 12  1  0
 11 45  1  1
 12 13  1  0
 13 14  1  0
 13 15  1  0
 13 46  1  6
 14 47  1  0
 14 48  1  0
 14 49  1  0
 15 16  1  0
 15 17  1  0
 15 50  1  6
 16 51  1  0
 16 52  1  0
 16 53  1  0
 17 18  1  0
 17 54  1  1
 19 20  1  0
 20 21  1  0
 20 55  1  6
 21 28  1  0
 21 29  1  0
 21 22  1  1
 22 23  1  0
 23 24  1  0
 24 25  1  1
 24 26  1  0
 24 29  1  0
 25 56  1  0
 25 57  1  0
 25 58  1  0
 26 27  1  0
 26 59  1  0
 26 60  1  0
 27 28  1  0
 27 61  1  0
 27 62  1  0
 28 63  1  6
M  END
>  <i_m_ct_stereo_status>  (161) 
1

>  <s_m_source_file>  (161) 
/var/tmp/pbs.5076255.sched01/tmpmtrcy7mx/460f9z2a7c.sdf

>  <i_m_source_file_index>  (161) 
25

>  <i_lp_mmshare_version>  (161) 
48012

>  <i_f3d_flags>  (161) 
0

>  <s_epik_input>  (161) 
TzFPW0NAQF0oTzIpKFtDSDNdKVtDSDJdW0NIMl1bQ0BIXTNbQ0BIXShbQ0gzXSlbQ0gyXVtDSDJdW0NASF0oW0NAQEhdNFtDQF0xMjMpW0NAQEhdKFtDSDNdKVtDQEhdKE80KVtDQEhdKE9bQ0BIXTU2KVtDQEhdKE82KVtDQEhdKFtDSDNdKVtDQEBIXShPNSlbQ0gzXQ==

>  <s_epik_cmdline>  (161) 
J2VwaWtfcHl0aG9uJywgJy1waHQnLCAnMi4wJywgJy1waCcsICc3LjAnLCAnLXRuJywgJzgnLCAnLW1hJywgJzIwMCcsICctaW1hZScsICc8aW5maWxlLm1hZT4nLCAnLW9tYWUnLCAnPG91dGZpbGUubWFlPic=

>  <r_lp_tautomer_probability>  (161) 
1

>  <r_epik_Ionization_Penalty>  (161) 
1.28269e-13

>  <r_epik_Ionization_Penalty_Charging>  (161) 
0

>  <r_epik_Ionization_Penalty_Neutral>  (161) 
1.28269e-13

>  <r_epik_State_Penalty>  (161) 
-0

>  <r_epik_Charging_Adjusted_Penalty>  (161) 
0

>  <i_epik_Tot_Q>  (161) 
0

>  <i_epik_Tot_abs_Q>  (161) 
0

>  <s_epik_Chemistry_Notes>  (161) 
This compound contains an acetal/aminal-like group ( X-CH(R)-Y where X, Y are N, S, or O) that may be acid/base labile, releasing an aldehyde.

>  <s_lp_Force_Field>  (161) 
OPLS3e

>  <r_lp_Energy>  (161) 
11.6744

>  <b_lp_Chiralities_Consistent>  (161) 
1

>  <s_lp_Variant>  (161) 
37:0-1

>  <s_i_glide_gridfile>  (161) 
pfpi4k_grid

>  <i_i_glide_lignum>  (161) 
25

>  <i_i_glide_rotatable_bonds>  (161) 
1

>  <r_i_docking_score>  (161) 
-1.92997

>  <r_i_glide_ligand_efficiency>  (161) 
-0.0665507

>  <r_i_glide_ligand_efficiency_sa>  (161) 
-0.204465

>  <r_i_glide_ligand_efficiency_ln>  (161) 
-0.441914

>  <r_i_glide_gscore>  (161) 
-1.92997

>  <r_i_glide_lipo>  (161) 
-9.93618e-05

>  <r_i_glide_hbond>  (161) 
0

>  <r_i_glide_metal>  (161) 
-0

>  <r_i_glide_rewards>  (161) 
-0.699192

>  <r_i_glide_evdw>  (161) 
-20.6181

>  <r_i_glide_ecoul>  (161) 
-2.11123

>  <r_i_glide_erotb>  (161) 
0.116911

>  <r_i_glide_esite>  (161) 
-1.77227e-06

>  <r_i_glide_emodel>  (161) 
-25.4383

>  <r_i_glide_energy>  (161) 
-22.7293

>  <r_i_glide_einternal>  (161) 
0.0133939

>  <r_i_glide_intrahb_reward>  (161) 
-0

>  <i_i_glide_confnum>  (161) 
1

>  <i_i_glide_posenum>  (161) 
2

>  <r_i_glide_eff_state_penalty>  (161) 
0

>  <ligand_id>  (161) 
37

>  <original_smiles>  (161) 
CC1CCC2C(C)C(C3OC4OC(C)C(C)C3O4)OC2C23OOC(C)(CCC12)O3

>  <smiles>  (161) 
[H]C12OC([H])(C3([H])OC4([H])C56OOC(C([H])([H])[H])(O5)C([H])([H])C([H])([H])C6([H])C([H])(C([H])([H])[H])C([H])([H])C([H])([H])C4([H])C3([H])C([H])([H])[H])C([H])(O1)C([H])(C([H])([H])[H])C([H])(C([H])([H])[H])O2

$$$$
38:0:0
     RDKit          3D

 35 38  0  0  1  0  0  0  0  0999 V2000
    3.8261   -2.5971   -4.0417 C   0  0  0  0  0  0  0  0  0  0  0  0
    4.6330   -2.2018   -3.0457 C   0  0  0  0  0  0  0  0  0  0  0  0
    5.6455   -3.1017   -2.3683 C   0  0  0  0  0  0  0  0  0  0  0  0
    5.3802   -3.2228   -0.9296 N   0  0  0  0  0  0  0  0  0  0  0  0
    5.9560   -2.4076   -0.0215 C   0  0  0  0  0  0  0  0  0  0  0  0
    6.6744   -1.4526   -0.3139 O   0  0  0  0  0  0  0  0  0  0  0  0
    5.6546   -2.7260    1.4509 C   0  0  1  0  0  0  0  0  0  0  0  0
    4.2247   -2.2701    1.7731 C   0  0  0  0  0  0  0  0  0  0  0  0
    3.4234   -3.4850    1.6091 N   0  0  0  0  0  0  0  0  0  0  0  0
    4.1767   -4.4185    2.1915 C   0  0  0  0  0  0  0  0  0  0  0  0
    3.7229   -5.5991    2.6494 N   0  0  0  0  0  0  0  0  0  0  0  0
    4.5368   -6.7173    2.3091 N   0  0  0  0  0  0  0  0  0  0  0  0
    4.9514   -6.5901    0.9109 C   0  0  0  0  0  0  0  0  0  0  0  0
    5.5125   -5.1781    0.5388 C   0  0  2  0  0  0  0  0  0  0  0  0
    5.5950   -4.2547    1.7689 C   0  0  1  0  0  0  0  0  0  0  0  0
    4.5994   -4.3775   -0.4479 C   0  0  1  0  0  0  0  0  0  0  0  0
    3.2257   -3.9099    0.1877 C   0  0  1  0  0  0  0  0  0  0  0  0
    2.2154   -4.9911    0.1330 C   0  0  0  0  0  0  0  0  0  0  0  0
    1.4191   -5.8400    0.1085 N   0  0  0  0  0  0  0  0  0  0  0  0
    3.8645   -3.6119   -4.4134 H   0  0  0  0  0  0  0  0  0  0  0  0
    3.1146   -1.9157   -4.4903 H   0  0  0  0  0  0  0  0  0  0  0  0
    4.5769   -1.1812   -2.6914 H   0  0  0  0  0  0  0  0  0  0  0  0
    5.6561   -4.0816   -2.8445 H   0  0  0  0  0  0  0  0  0  0  0  0
    6.6402   -2.6946   -2.5546 H   0  0  0  0  0  0  0  0  0  0  0  0
    6.3655   -2.2173    2.0969 H   0  0  0  0  0  0  0  0  0  0  0  0
    4.1559   -1.9685    2.8203 H   0  0  0  0  0  0  0  0  0  0  0  0
    3.8545   -1.4515    1.1529 H   0  0  0  0  0  0  0  0  0  0  0  0
    4.0229   -7.5797    2.4337 H   0  0  0  0  0  0  0  0  0  0  0  0
    5.6950   -7.3594    0.7129 H   0  0  0  0  0  0  0  0  0  0  0  0
    4.0968   -6.8426    0.2796 H   0  0  0  0  0  0  0  0  0  0  0  0
    6.4957   -5.3128    0.0870 H   0  0  0  0  0  0  0  0  0  0  0  0
    6.3090   -4.5831    2.5255 H   0  0  0  0  0  0  0  0  0  0  0  0
    4.3787   -5.0172   -1.3021 H   0  0  0  0  0  0  0  0  0  0  0  0
    2.8032   -3.0745   -0.3786 H   0  0  0  0  0  0  0  0  0  0  0  0
    2.7557   -5.7797    2.8811 H   0  0  0  0  0  0  0  0  0  0  0  0
  1  2  2  0
  1 20  1  0
  1 21  1  0
  2  3  1  0
  2 22  1  0
  3  4  1  0
  3 23  1  0
  3 24  1  0
  4 16  1  0
  4  5  1  0
  5  6  2  0
  5  7  1  0
  7 15  1  0
  7  8  1  0
  7 25  1  1
  8  9  1  0
  8 26  1  0
  8 27  1  0
  9 17  1  0
  9 10  1  0
 10 15  1  0
 10 11  2  0
 11 12  1  0
 11 35  1  0
 12 13  1  0
 12 28  1  0
 13 14  1  0
 13 29  1  0
 13 30  1  0
 14 15  1  0
 14 16  1  0
 14 31  1  6
 15 32  1  1
 16 17  1  0
 16 33  1  6
 17 18  1  0
 17 34  1  6
 18 19  3  0
M  CHG  1  11   1
M  END
>  <i_m_ct_stereo_status>  (162) 
1

>  <s_m_source_file>  (162) 
/var/tmp/pbs.5076255.sched01/tmpmtrcy7mx/460f9z2a7c.sdf

>  <i_m_source_file_index>  (162) 
26

>  <i_lp_mmshare_version>  (162) 
48012

>  <i_f3d_flags>  (162) 
0

>  <s_epik_input>  (162) 
W0NIMl09W0NIXVtDSDJdTihDMT1PKVtDQEBIXShbQ0BASF0yW0NIMl1bTkhdTjMpW0NAQEhdKEMjTilOKFtDSDJdNClDPTNbQ0BASF0yW0NAQEhdMTQ=

>  <s_epik_cmdline>  (162) 
J2VwaWtfcHl0aG9uJywgJy1waHQnLCAnMi4wJywgJy1waCcsICc3LjAnLCAnLXRuJywgJzgnLCAnLW1hJywgJzIwMCcsICctaW1hZScsICc8aW5maWxlLm1hZT4nLCAnLW9tYWUnLCAnPG91dGZpbGUubWFlPic=

>  <r_lp_tautomer_probability>  (162) 
1

>  <r_epik_Ionization_Penalty>  (162) 
3.12424e-05

>  <r_epik_Ionization_Penalty_Charging>  (162) 
1.9571e-05

>  <r_epik_Ionization_Penalty_Neutral>  (162) 
1.16714e-05

>  <r_epik_State_Penalty>  (162) 
-0

>  <r_epik_Charging_Adjusted_Penalty>  (162) 
1.9571e-05

>  <i_epik_Tot_Q>  (162) 
1

>  <i_epik_Tot_abs_Q>  (162) 
1

>  <s_epik_Chemistry_Notes>  (162) 
This compound has an imine and may undergo hydrolysis.

>  <s_lp_Force_Field>  (162) 
OPLS3e

>  <r_lp_Energy>  (162) 
71.7133

>  <b_lp_Chiralities_Consistent>  (162) 
1

>  <s_lp_Variant>  (162) 
38:0-1

>  <s_i_glide_gridfile>  (162) 
pfpi4k_grid

>  <i_i_glide_lignum>  (162) 
26

>  <i_i_glide_rotatable_bonds>  (162) 
3

>  <r_i_docking_score>  (162) 
-4.45056

>  <r_i_glide_ligand_efficiency>  (162) 
-0.23424

>  <r_i_glide_ligand_efficiency_sa>  (162) 
-0.625046

>  <r_i_glide_ligand_efficiency_ln>  (162) 
-1.12831

>  <r_i_glide_gscore>  (162) 
-4.45056

>  <r_i_glide_lipo>  (162) 
-0.602897

>  <r_i_glide_hbond>  (162) 
-0.335317

>  <r_i_glide_metal>  (162) 
-0

>  <r_i_glide_rewards>  (162) 
-1.74784

>  <r_i_glide_evdw>  (162) 
-17.5293

>  <r_i_glide_ecoul>  (162) 
-8.99893

>  <r_i_glide_erotb>  (162) 
0.529453

>  <r_i_glide_esite>  (162) 
-0.067656

>  <r_i_glide_emodel>  (162) 
-34.2049

>  <r_i_glide_energy>  (162) 
-26.5282

>  <r_i_glide_einternal>  (162) 
0.0349542

>  <r_i_glide_intrahb_reward>  (162) 
-0

>  <i_i_glide_confnum>  (162) 
5

>  <i_i_glide_posenum>  (162) 
2

>  <r_i_glide_eff_state_penalty>  (162) 
0

>  <ligand_id>  (162) 
38

>  <original_smiles>  (162) 
C=CCN1C(=O)C2CN3C4=NNCC(C42)C1C3C#N

>  <smiles>  (162) 
[H]C([H])=C([H])C([H])([H])N1C(=O)C2([H])C([H])([H])N3C4=[N+]([H])N([H])C([H])([H])C([H])(C42[H])C1([H])C3([H])C#N

$$$$
38:0:1
     RDKit          3D

 35 38  0  0  1  0  0  0  0  0999 V2000
    2.2161    1.8928    2.2477 C   0  0  0  0  0  0  0  0  0  0  0  0
    2.1835    0.6085    1.8531 C   0  0  0  0  0  0  0  0  0  0  0  0
    2.8064   -0.5458    2.6276 C   0  0  0  0  0  0  0  0  0  0  0  0
    3.7382   -1.3367    1.8095 N   0  0  0  0  0  0  0  0  0  0  0  0
    5.0731   -1.1129    1.8293 C   0  0  0  0  0  0  0  0  0  0  0  0
    5.6235   -0.3044    2.5651 O   0  0  0  0  0  0  0  0  0  0  0  0
    5.9129   -1.9614    0.8650 C   0  0  1  0  0  0  0  0  0  0  0  0
    6.0087   -3.3907    1.4121 C   0  0  0  0  0  0  0  0  0  0  0  0
    4.9519   -4.1057    0.7049 N   0  0  0  0  0  0  0  0  0  0  0  0
    5.0703   -3.6441   -0.5412 C   0  0  0  0  0  0  0  0  0  0  0  0
    4.6133   -4.2527   -1.6375 N   0  0  0  0  0  0  0  0  0  0  0  0
    3.9264   -3.4079   -2.5578 N   0  0  0  0  0  0  0  0  0  0  0  0
    3.0420   -2.5189   -1.8060 C   0  0  0  0  0  0  0  0  0  0  0  0
    3.7430   -1.8194   -0.5934 C   0  0  2  0  0  0  0  0  0  0  0  0
    5.2415   -2.1696   -0.5202 C   0  0  1  0  0  0  0  0  0  0  0  0
    3.2028   -2.2766    0.8052 C   0  0  1  0  0  0  0  0  0  0  0  0
    3.5785   -3.7727    1.1752 C   0  0  1  0  0  0  0  0  0  0  0  0
    2.6112   -4.7255    0.6028 C   0  0  0  0  0  0  0  0  0  0  0  0
    1.8510   -5.4662    0.1509 N   0  0  0  0  0  0  0  0  0  0  0  0
    2.7213    2.1874    3.1557 H   0  0  0  0  0  0  0  0  0  0  0  0
    1.7410    2.6775    1.6719 H   0  0  0  0  0  0  0  0  0  0  0  0
    1.6685    0.3659    0.9321 H   0  0  0  0  0  0  0  0  0  0  0  0
    3.2934   -0.1464    3.5196 H   0  0  0  0  0  0  0  0  0  0  0  0
    2.0051   -1.1830    3.0011 H   0  0  0  0  0  0  0  0  0  0  0  0
    6.9086   -1.5343    0.7612 H   0  0  0  0  0  0  0  0  0  0  0  0
    6.9585   -3.8363    1.1274 H   0  0  0  0  0  0  0  0  0  0  0  0
    5.9033   -3.4759    2.4978 H   0  0  0  0  0  0  0  0  0  0  0  0
    3.3555   -3.9843   -3.1655 H   0  0  0  0  0  0  0  0  0  0  0  0
    2.6338   -1.7773   -2.4921 H   0  0  0  0  0  0  0  0  0  0  0  0
    2.1748   -3.0876   -1.4744 H   0  0  0  0  0  0  0  0  0  0  0  0
    3.5976   -0.7495   -0.7017 H   0  0  0  0  0  0  0  0  0  0  0  0
    5.8293   -1.8096   -1.3673 H   0  0  0  0  0  0  0  0  0  0  0  0
    2.1150   -2.1825    0.8117 H   0  0  0  0  0  0  0  0  0  0  0  0
    3.5103   -3.9225    2.2500 H   0  0  0  0  0  0  0  0  0  0  0  0
    4.3561   -5.2332   -1.6614 H   0  0  0  0  0  0  0  0  0  0  0  0
  1  2  2  0
  1 20  1  0
  1 21  1  0
  2  3  1  0
  2 22  1  0
  3  4  1  0
  3 23  1  0
  3 24  1  0
  4 16  1  0
  4  5  1  0
  5  6  2  0
  5  7  1  0
  7 15  1  0
  7  8  1  0
  7 25  1  6
  8  9  1  0
  8 26  1  0
  8 27  1  0
  9 17  1  0
  9 10  1  0
 10 15  1  0
 10 11  2  0
 11 12  1  0
 11 35  1  0
 12 13  1  0
 12 28  1  0
 13 14  1  0
 13 29  1  0
 13 30  1  0
 14 15  1  0
 14 16  1  0
 14 31  1  6
 15 32  1  6
 16 17  1  0
 16 33  1  6
 17 18  1  0
 17 34  1  1
 18 19  3  0
M  CHG  1  11   1
M  END
>  <i_m_ct_stereo_status>  (163) 
1

>  <s_m_source_file>  (163) 
/var/tmp/pbs.5076255.sched01/tmpmtrcy7mx/460f9z2a7c.sdf

>  <i_m_source_file_index>  (163) 
26

>  <i_lp_mmshare_version>  (163) 
48012

>  <i_f3d_flags>  (163) 
0

>  <s_epik_input>  (163) 
W0NIMl09W0NIXVtDSDJdTihDMT1PKVtDQEBIXShbQ0BASF0yW0NIMl1bTkhdTjMpW0NAQEhdKEMjTilOKFtDSDJdNClDPTNbQ0BASF0yW0NAQEhdMTQ=

>  <s_epik_cmdline>  (163) 
J2VwaWtfcHl0aG9uJywgJy1waHQnLCAnMi4wJywgJy1waCcsICc3LjAnLCAnLXRuJywgJzgnLCAnLW1hJywgJzIwMCcsICctaW1hZScsICc8aW5maWxlLm1hZT4nLCAnLW9tYWUnLCAnPG91dGZpbGUubWFlPic=

>  <r_lp_tautomer_probability>  (163) 
1

>  <r_epik_Ionization_Penalty>  (163) 
3.12424e-05

>  <r_epik_Ionization_Penalty_Charging>  (163) 
1.9571e-05

>  <r_epik_Ionization_Penalty_Neutral>  (163) 
1.16714e-05

>  <r_epik_State_Penalty>  (163) 
-0

>  <r_epik_Charging_Adjusted_Penalty>  (163) 
1.9571e-05

>  <i_epik_Tot_Q>  (163) 
1

>  <i_epik_Tot_abs_Q>  (163) 
1

>  <s_epik_Chemistry_Notes>  (163) 
This compound has an imine and may undergo hydrolysis.

>  <s_lp_Force_Field>  (163) 
OPLS3e

>  <r_lp_Energy>  (163) 
71.7133

>  <b_lp_Chiralities_Consistent>  (163) 
1

>  <s_lp_Variant>  (163) 
38:0-1

>  <s_i_glide_gridfile>  (163) 
pfpi4k_grid

>  <i_i_glide_lignum>  (163) 
26

>  <i_i_glide_rotatable_bonds>  (163) 
3

>  <r_i_docking_score>  (163) 
-4.11948

>  <r_i_glide_ligand_efficiency>  (163) 
-0.216815

>  <r_i_glide_ligand_efficiency_sa>  (163) 
-0.578549

>  <r_i_glide_ligand_efficiency_ln>  (163) 
-1.04438

>  <r_i_glide_gscore>  (163) 
-4.11948

>  <r_i_glide_lipo>  (163) 
-0.201076

>  <r_i_glide_hbond>  (163) 
-0.286695

>  <r_i_glide_metal>  (163) 
-0

>  <r_i_glide_rewards>  (163) 
-1.92326

>  <r_i_glide_evdw>  (163) 
-17.6738

>  <r_i_glide_ecoul>  (163) 
-8.14056

>  <r_i_glide_erotb>  (163) 
0.529453

>  <r_i_glide_esite>  (163) 
-0.133137

>  <r_i_glide_emodel>  (163) 
-32.841

>  <r_i_glide_energy>  (163) 
-25.8143

>  <r_i_glide_einternal>  (163) 
0.0360473

>  <r_i_glide_intrahb_reward>  (163) 
-0

>  <i_i_glide_confnum>  (163) 
2

>  <i_i_glide_posenum>  (163) 
6

>  <r_i_glide_eff_state_penalty>  (163) 
0

>  <ligand_id>  (163) 
38

>  <original_smiles>  (163) 
C=CCN1C(=O)C2CN3C4=NNCC(C42)C1C3C#N

>  <smiles>  (163) 
[H]C([H])=C([H])C([H])([H])N1C(=O)C2([H])C([H])([H])N3C4=[N+]([H])N([H])C([H])([H])C([H])(C42[H])C1([H])C3([H])C#N

$$$$
38:0:2
     RDKit          3D

 35 38  0  0  1  0  0  0  0  0999 V2000
    3.4368   -1.0051   -4.7767 C   0  0  0  0  0  0  0  0  0  0  0  0
    3.2337   -2.1455   -4.0956 C   0  0  0  0  0  0  0  0  0  0  0  0
    4.3248   -2.9467   -3.4106 C   0  0  0  0  0  0  0  0  0  0  0  0
    4.4052   -2.6312   -1.9773 N   0  0  0  0  0  0  0  0  0  0  0  0
    4.7770   -1.4231   -1.5317 C   0  0  0  0  0  0  0  0  0  0  0  0
    5.0076   -0.4720   -2.2726 O   0  0  0  0  0  0  0  0  0  0  0  0
    4.9482   -1.2402   -0.0226 C   0  0  1  0  0  0  0  0  0  0  0  0
    3.5524   -1.2071    0.6210 C   0  0  0  0  0  0  0  0  0  0  0  0
    3.3255   -2.5845    1.0601 N   0  0  0  0  0  0  0  0  0  0  0  0
    4.5067   -2.9325    1.5578 C   0  0  0  0  0  0  0  0  0  0  0  0
    4.6824   -3.9501    2.4227 N   0  0  0  0  0  0  0  0  0  0  0  0
    5.8110   -4.7677    2.1299 N   0  0  0  0  0  0  0  0  0  0  0  0
    5.8641   -5.0278    0.6900 C   0  0  0  0  0  0  0  0  0  0  0  0
    5.6827   -3.7435   -0.1851 C   0  0  2  0  0  0  0  0  0  0  0  0
    5.6114   -2.4672    0.6700 C   0  0  1  0  0  0  0  0  0  0  0  0
    4.3395   -3.7167   -0.9890 C   0  0  1  0  0  0  0  0  0  0  0  0
    3.0594   -3.5123   -0.0838 C   0  0  1  0  0  0  0  0  0  0  0  0
    2.5995   -4.8076    0.4485 C   0  0  0  0  0  0  0  0  0  0  0  0
    2.2330   -5.8102    0.8838 N   0  0  0  0  0  0  0  0  0  0  0  0
    4.4231   -0.5737   -4.8787 H   0  0  0  0  0  0  0  0  0  0  0  0
    2.6126   -0.4698   -5.2282 H   0  0  0  0  0  0  0  0  0  0  0  0
    2.2280   -2.5305   -4.0050 H   0  0  0  0  0  0  0  0  0  0  0  0
    4.1379   -4.0014   -3.6046 H   0  0  0  0  0  0  0  0  0  0  0  0
    5.2881   -2.7345   -3.8728 H   0  0  0  0  0  0  0  0  0  0  0  0
    5.4844   -0.3167    0.2076 H   0  0  0  0  0  0  0  0  0  0  0  0
    3.5678   -0.5796    1.5079 H   0  0  0  0  0  0  0  0  0  0  0  0
    2.7584   -0.8367   -0.0323 H   0  0  0  0  0  0  0  0  0  0  0  0
    5.7727   -5.6484    2.6255 H   0  0  0  0  0  0  0  0  0  0  0  0
    6.8043   -5.5256    0.4515 H   0  0  0  0  0  0  0  0  0  0  0  0
    5.0945   -5.7608    0.4548 H   0  0  0  0  0  0  0  0  0  0  0  0
    6.5106   -3.6950   -0.8864 H   0  0  0  0  0  0  0  0  0  0  0  0
    6.5264   -2.2343    1.2172 H   0  0  0  0  0  0  0  0  0  0  0  0
    4.2416   -4.6614   -1.5109 H   0  0  0  0  0  0  0  0  0  0  0  0
    2.2178   -3.1463   -0.6867 H   0  0  0  0  0  0  0  0  0  0  0  0
    3.9404   -4.3403    2.9917 H   0  0  0  0  0  0  0  0  0  0  0  0
  1  2  2  0
  1 20  1  0
  1 21  1  0
  2  3  1  0
  2 22  1  0
  3  4  1  0
  3 23  1  0
  3 24  1  0
  4 16  1  0
  4  5  1  0
  5  6  2  0
  5  7  1  0
  7 15  1  0
  7  8  1  0
  7 25  1  6
  8  9  1  0
  8 26  1  0
  8 27  1  0
  9 17  1  0
  9 10  1  0
 10 15  1  0
 10 11  2  0
 11 12  1  0
 11 35  1  0
 12 13  1  0
 12 28  1  0
 13 14  1  0
 13 29  1  0
 13 30  1  0
 14 15  1  0
 14 16  1  0
 14 31  1  6
 15 32  1  1
 16 17  1  0
 16 33  1  6
 17 18  1  0
 17 34  1  6
 18 19  3  0
M  CHG  1  11   1
M  END
>  <i_m_ct_stereo_status>  (164) 
1

>  <s_m_source_file>  (164) 
/var/tmp/pbs.5076255.sched01/tmpmtrcy7mx/460f9z2a7c.sdf

>  <i_m_source_file_index>  (164) 
26

>  <i_lp_mmshare_version>  (164) 
48012

>  <i_f3d_flags>  (164) 
0

>  <s_epik_input>  (164) 
W0NIMl09W0NIXVtDSDJdTihDMT1PKVtDQEBIXShbQ0BASF0yW0NIMl1bTkhdTjMpW0NAQEhdKEMjTilOKFtDSDJdNClDPTNbQ0BASF0yW0NAQEhdMTQ=

>  <s_epik_cmdline>  (164) 
J2VwaWtfcHl0aG9uJywgJy1waHQnLCAnMi4wJywgJy1waCcsICc3LjAnLCAnLXRuJywgJzgnLCAnLW1hJywgJzIwMCcsICctaW1hZScsICc8aW5maWxlLm1hZT4nLCAnLW9tYWUnLCAnPG91dGZpbGUubWFlPic=

>  <r_lp_tautomer_probability>  (164) 
1

>  <r_epik_Ionization_Penalty>  (164) 
3.12424e-05

>  <r_epik_Ionization_Penalty_Charging>  (164) 
1.9571e-05

>  <r_epik_Ionization_Penalty_Neutral>  (164) 
1.16714e-05

>  <r_epik_State_Penalty>  (164) 
-0

>  <r_epik_Charging_Adjusted_Penalty>  (164) 
1.9571e-05

>  <i_epik_Tot_Q>  (164) 
1

>  <i_epik_Tot_abs_Q>  (164) 
1

>  <s_epik_Chemistry_Notes>  (164) 
This compound has an imine and may undergo hydrolysis.

>  <s_lp_Force_Field>  (164) 
OPLS3e

>  <r_lp_Energy>  (164) 
71.7133

>  <b_lp_Chiralities_Consistent>  (164) 
1

>  <s_lp_Variant>  (164) 
38:0-1

>  <s_i_glide_gridfile>  (164) 
pfpi4k_grid

>  <i_i_glide_lignum>  (164) 
26

>  <i_i_glide_rotatable_bonds>  (164) 
3

>  <r_i_docking_score>  (164) 
-3.65306

>  <r_i_glide_ligand_efficiency>  (164) 
-0.192266

>  <r_i_glide_ligand_efficiency_sa>  (164) 
-0.513043

>  <r_i_glide_ligand_efficiency_ln>  (164) 
-0.926129

>  <r_i_glide_gscore>  (164) 
-3.65306

>  <r_i_glide_lipo>  (164) 
-0.387692

>  <r_i_glide_hbond>  (164) 
0

>  <r_i_glide_metal>  (164) 
-0

>  <r_i_glide_rewards>  (164) 
-1.67352

>  <r_i_glide_evdw>  (164) 
-20.8453

>  <r_i_glide_ecoul>  (164) 
-6.49317

>  <r_i_glide_erotb>  (164) 
0.529453

>  <r_i_glide_esite>  (164) 
-0.105056

>  <r_i_glide_emodel>  (164) 
-32.4125

>  <r_i_glide_energy>  (164) 
-27.3385

>  <r_i_glide_einternal>  (164) 
1.62304

>  <r_i_glide_intrahb_reward>  (164) 
-0

>  <i_i_glide_confnum>  (164) 
4

>  <i_i_glide_posenum>  (164) 
27

>  <r_i_glide_eff_state_penalty>  (164) 
0

>  <ligand_id>  (164) 
38

>  <original_smiles>  (164) 
C=CCN1C(=O)C2CN3C4=NNCC(C42)C1C3C#N

>  <smiles>  (164) 
[H]C([H])=C([H])C([H])([H])N1C(=O)C2([H])C([H])([H])N3C4=[N+]([H])N([H])C([H])([H])C([H])(C42[H])C1([H])C3([H])C#N

$$$$
39:0:0
     RDKit          3D

 55 60  0  0  1  0  0  0  0  0999 V2000
   -0.8665   -7.1030    3.8212 C   0  0  0  0  0  0  0  0  0  0  0  0
   -1.0438   -7.3085    2.4879 N   0  0  0  0  0  0  0  0  0  0  0  0
    0.2177   -7.4545    2.1091 C   0  0  0  0  0  0  0  0  0  0  0  0
    1.0975   -7.2522    3.0929 N   0  0  0  0  0  0  0  0  0  0  0  0
    2.5553   -7.2699    3.1042 C   0  0  2  0  0  0  0  0  0  0  0  0
    3.1416   -5.9935    3.7721 C   0  0  0  0  0  0  0  0  0  0  0  0
    4.6559   -5.8175    3.4694 C   0  0  1  0  0  0  0  0  0  0  0  0
    5.4643   -7.0590    3.8710 C   0  0  0  0  0  0  0  0  0  0  0  0
    5.4514   -7.9563    2.6209 C   0  0  0  0  0  0  0  0  0  0  0  0
    4.6360   -7.1601    1.5925 C   0  0  1  0  0  0  0  0  0  0  0  0
    3.1304   -7.4895    1.6823 C   0  0  0  0  0  0  0  0  0  0  0  0
    4.8786   -5.7609    2.0095 N   0  0  1  0  0  0  0  0  0  0  0  0
    4.2172   -4.6660    1.2244 C   0  0  2  0  0  0  0  0  0  0  0  0
    4.5368   -4.8497   -0.2829 C   0  0  0  0  0  0  0  0  0  0  0  0
    4.8253   -3.6206   -1.1541 C   0  0  2  0  0  0  0  0  0  0  0  0
    6.2305   -3.0406   -0.8792 C   0  0  0  0  0  0  0  0  0  0  0  0
    6.2574   -2.0891    0.3288 C   0  0  1  0  0  0  0  0  0  0  0  0
    5.2398   -0.9604    0.1074 C   0  0  0  0  0  0  0  0  0  0  0  0
    3.8252   -1.5589    0.0395 C   0  0  1  0  0  0  0  0  0  0  0  0
    3.7133   -2.5498   -1.1380 C   0  0  0  0  0  0  0  0  0  0  0  0
    3.4839   -2.1988    1.3885 C   0  0  0  0  0  0  0  0  0  0  0  0
    4.5081   -3.2660    1.8302 C   0  0  2  0  0  0  0  0  0  0  0  0
    5.9714   -2.7998    1.6662 C   0  0  0  0  0  0  0  0  0  0  0  0
    0.3985   -7.0255    4.2357 N   0  0  0  0  0  0  0  0  0  0  0  0
   -1.6955   -6.9637    4.4932 H   0  0  0  0  0  0  0  0  0  0  0  0
    0.4984   -7.6990    1.0919 H   0  0  0  0  0  0  0  0  0  0  0  0
    2.8558   -8.1218    3.7186 H   0  0  0  0  0  0  0  0  0  0  0  0
    2.5925   -5.1126    3.4431 H   0  0  0  0  0  0  0  0  0  0  0  0
    2.9972   -6.0340    4.8520 H   0  0  0  0  0  0  0  0  0  0  0  0
    5.0618   -4.9492    3.9946 H   0  0  0  0  0  0  0  0  0  0  0  0
    6.4880   -6.7664    4.1040 H   0  0  0  0  0  0  0  0  0  0  0  0
    5.0535   -7.5459    4.7528 H   0  0  0  0  0  0  0  0  0  0  0  0
    6.4680   -8.0999    2.2533 H   0  0  0  0  0  0  0  0  0  0  0  0
    5.0269   -8.9403    2.8086 H   0  0  0  0  0  0  0  0  0  0  0  0
    4.9943   -7.3851    0.5846 H   0  0  0  0  0  0  0  0  0  0  0  0
    2.9636   -8.5219    1.3722 H   0  0  0  0  0  0  0  0  0  0  0  0
    2.6101   -6.8739    0.9504 H   0  0  0  0  0  0  0  0  0  0  0  0
    3.1342   -4.7692    1.2950 H   0  0  0  0  0  0  0  0  0  0  0  0
    5.4025   -5.4938   -0.4146 H   0  0  0  0  0  0  0  0  0  0  0  0
    3.7055   -5.3949   -0.7205 H   0  0  0  0  0  0  0  0  0  0  0  0
    4.8569   -4.0144   -2.1725 H   0  0  0  0  0  0  0  0  0  0  0  0
    6.9580   -3.8405   -0.7391 H   0  0  0  0  0  0  0  0  0  0  0  0
    6.5616   -2.4948   -1.7632 H   0  0  0  0  0  0  0  0  0  0  0  0
    7.2602   -1.6552    0.3954 H   0  0  0  0  0  0  0  0  0  0  0  0
    5.3040   -0.2328    0.9182 H   0  0  0  0  0  0  0  0  0  0  0  0
    5.4609   -0.4257   -0.8165 H   0  0  0  0  0  0  0  0  0  0  0  0
    3.1062   -0.7519   -0.1311 H   0  0  0  0  0  0  0  0  0  0  0  0
    3.7714   -1.9793   -2.0670 H   0  0  0  0  0  0  0  0  0  0  0  0
    2.7310   -3.0251   -1.1396 H   0  0  0  0  0  0  0  0  0  0  0  0
    3.4586   -1.4130    2.1433 H   0  0  0  0  0  0  0  0  0  0  0  0
    2.4757   -2.6101    1.3676 H   0  0  0  0  0  0  0  0  0  0  0  0
    4.3173   -3.3225    2.8983 H   0  0  0  0  0  0  0  0  0  0  0  0
    6.6582   -3.6356    1.8023 H   0  0  0  0  0  0  0  0  0  0  0  0
    6.1961   -2.1016    2.4714 H   0  0  0  0  0  0  0  0  0  0  0  0
    5.8687   -5.6069    1.8864 H   0  0  0  0  0  0  0  0  0  0  0  0
  1 24  2  0
  1  2  1  0
  1 25  1  0
  2  3  2  0
  3  4  1  0
  3 26  1  0
  4  5  1  0
  4 24  1  0
  5 11  1  0
  5  6  1  0
  5 27  1  1
  6  7  1  0
  6 28  1  0
  6 29  1  0
  7 12  1  0
  7  8  1  0
  7 30  1  1
  8  9  1  0
  8 31  1  0
  8 32  1  0
  9 10  1  0
  9 33  1  0
  9 34  1  0
 10 11  1  0
 10 12  1  0
 10 35  1  6
 11 36  1  0
 11 37  1  0
 12 13  1  0
 12 55  1  1
 13 22  1  0
 13 14  1  0
 13 38  1  6
 14 15  1  0
 14 39  1  0
 14 40  1  0
 15 20  1  0
 15 16  1  0
 15 41  1  6
 16 17  1  0
 16 42  1  0
 16 43  1  0
 17 23  1  0
 17 18  1  0
 17 44  1  1
 18 19  1  0
 18 45  1  0
 18 46  1  0
 19 20  1  0
 19 21  1  0
 19 47  1  6
 20 48  1  0
 20 49  1  0
 21 22  1  0
 21 50  1  0
 21 51  1  0
 22 23  1  0
 22 52  1  1
 23 53  1  0
 23 54  1  0
M  CHG  1  12   1
M  END
>  <i_m_ct_stereo_status>  (165) 
1

>  <s_m_source_file>  (165) 
/var/tmp/pbs.5076255.sched01/tmpmtrcy7mx/460f9z2a7c.sdf

>  <i_m_source_file_index>  (165) 
27

>  <i_lp_mmshare_version>  (165) 
48012

>  <i_f3d_flags>  (165) 
2

>  <s_epik_input>  (165) 
bjFbY0hdbltjSF1uMVtDQEhdKFtDSDJdW0NAQEhdMjMpW0NIMl1bQ0BIXShbQ0gyXVtDSDJdMilOM1tDQEhdKFtDSDJdW0NASF00NSlbQ0BASF02W0NIMl1bQ0BIXShbQ0gyXTUpW0NIMl1bQ0BIXShbQ0gyXTQpW0NIMl02

>  <s_epik_cmdline>  (165) 
J2VwaWtfcHl0aG9uJywgJy1waHQnLCAnMi4wJywgJy1waCcsICc3LjAnLCAnLXRuJywgJzgnLCAnLW1hJywgJzIwMCcsICctaW1hZScsICc8aW5maWxlLm1hZT4nLCAnLW9tYWUnLCAnPG91dGZpbGUubWFlPic=

>  <r_lp_tautomer_probability>  (165) 
1

>  <r_epik_Ionization_Penalty>  (165) 
0.000295113

>  <r_epik_Ionization_Penalty_Charging>  (165) 
0.000283848

>  <r_epik_Ionization_Penalty_Neutral>  (165) 
1.12649e-05

>  <r_epik_State_Penalty>  (165) 
-0

>  <r_epik_Charging_Adjusted_Penalty>  (165) 
0.000283848

>  <i_epik_Tot_Q>  (165) 
1

>  <i_epik_Tot_abs_Q>  (165) 
1

>  <s_lp_Force_Field>  (165) 
OPLS3e

>  <r_lp_Energy>  (165) 
36.8811

>  <b_lp_Chiralities_Consistent>  (165) 
0

>  <s_lp_Variant>  (165) 
39:0-1

>  <s_i_glide_gridfile>  (165) 
pfpi4k_grid

>  <i_i_glide_lignum>  (165) 
27

>  <i_i_glide_rotatable_bonds>  (165) 
2

>  <r_i_docking_score>  (165) 
-3.2913

>  <r_i_glide_ligand_efficiency>  (165) 
-0.137138

>  <r_i_glide_ligand_efficiency_sa>  (165) 
-0.395573

>  <r_i_glide_ligand_efficiency_ln>  (165) 
-0.787759

>  <r_i_glide_gscore>  (165) 
-3.2913

>  <r_i_glide_lipo>  (165) 
-0.397311

>  <r_i_glide_hbond>  (165) 
-0.108195

>  <r_i_glide_metal>  (165) 
-0

>  <r_i_glide_rewards>  (165) 
-1.17623

>  <r_i_glide_evdw>  (165) 
-26.5581

>  <r_i_glide_ecoul>  (165) 
-3.1621

>  <r_i_glide_erotb>  (165) 
0.350009

>  <r_i_glide_esite>  (165) 
-0.157357

>  <r_i_glide_emodel>  (165) 
-34.9112

>  <r_i_glide_energy>  (165) 
-29.7202

>  <r_i_glide_einternal>  (165) 
1.79568

>  <r_i_glide_intrahb_reward>  (165) 
-0

>  <i_i_glide_confnum>  (165) 
4

>  <i_i_glide_posenum>  (165) 
6

>  <r_i_glide_eff_state_penalty>  (165) 
0

>  <ligand_id>  (165) 
39

>  <original_smiles>  (165) 
c1ncn(C2CC3CCC(C2)N3C2CC3CC4CC(C3)CC2C4)n1

>  <smiles>  (165) 
[H]c1nc([H])n(C2([H])C([H])([H])C3([H])C([H])([H])C([H])([H])C([H])(C2([H])[H])[N+]3([H])C2([H])C([H])([H])C3([H])C([H])([H])C4([H])C([H])([H])C([H])(C3([H])[H])C([H])([H])C2([H])C4([H])[H])n1

$$$$
39:0:1
     RDKit          3D

 55 60  0  0  1  0  0  0  0  0999 V2000
   -0.6167   -7.7925    2.0794 C   0  0  0  0  0  0  0  0  0  0  0  0
   -0.9946   -7.0634    3.1777 N   0  0  0  0  0  0  0  0  0  0  0  0
    0.2109   -6.7482    3.6442 C   0  0  0  0  0  0  0  0  0  0  0  0
    1.2174   -7.1505    2.8942 N   0  0  0  0  0  0  0  0  0  0  0  0
    2.6632   -7.0268    3.0732 C   0  0  2  0  0  0  0  0  0  0  0  0
    3.0242   -5.6116    3.5937 C   0  0  0  0  0  0  0  0  0  0  0  0
    4.5444   -5.3160    3.4870 C   0  0  1  0  0  0  0  0  0  0  0  0
    5.3798   -6.3848    4.2025 C   0  0  0  0  0  0  0  0  0  0  0  0
    5.6462   -7.4486    3.1252 C   0  0  0  0  0  0  0  0  0  0  0  0
    4.9385   -6.9092    1.8701 C   0  0  1  0  0  0  0  0  0  0  0  0
    3.4716   -7.3994    1.7968 C   0  0  0  0  0  0  0  0  0  0  0  0
    4.9781   -5.4412    2.0807 N   0  0  1  0  0  0  0  0  0  0  0  0
    4.3541   -4.5591    1.0356 C   0  0  2  0  0  0  0  0  0  0  0  0
    4.9886   -4.8804   -0.3373 C   0  0  0  0  0  0  0  0  0  0  0  0
    5.2932   -3.7375   -1.3102 C   0  0  2  0  0  0  0  0  0  0  0  0
    6.5338   -2.9291   -0.8764 C   0  0  0  0  0  0  0  0  0  0  0  0
    6.2018   -1.8461    0.1634 C   0  0  1  0  0  0  0  0  0  0  0  0
    5.1149   -0.9212   -0.4008 C   0  0  0  0  0  0  0  0  0  0  0  0
    3.8331   -1.7287   -0.6366 C   0  0  1  0  0  0  0  0  0  0  0  0
    4.0804   -2.8556   -1.6566 C   0  0  0  0  0  0  0  0  0  0  0  0
    3.3098   -2.2371    0.7036 C   0  0  0  0  0  0  0  0  0  0  0  0
    4.3464   -3.0727    1.4675 C   0  0  2  0  0  0  0  0  0  0  0  0
    5.7462   -2.4207    1.5193 C   0  0  0  0  0  0  0  0  0  0  0  0
    0.6970   -7.8509    1.8530 N   0  0  0  0  0  0  0  0  0  0  0  0
   -1.3260   -8.2398    1.3857 H   0  0  0  0  0  0  0  0  0  0  0  0
    0.3392   -6.1715    4.5479 H   0  0  0  0  0  0  0  0  0  0  0  0
    2.9382   -7.7408    3.8507 H   0  0  0  0  0  0  0  0  0  0  0  0
    2.4607   -4.8589    3.0418 H   0  0  0  0  0  0  0  0  0  0  0  0
    2.7124   -5.5002    4.6330 H   0  0  0  0  0  0  0  0  0  0  0  0
    4.7876   -4.3486    3.9359 H   0  0  0  0  0  0  0  0  0  0  0  0
    6.3193   -5.9381    4.5259 H   0  0  0  0  0  0  0  0  0  0  0  0
    4.8760   -6.7720    5.0856 H   0  0  0  0  0  0  0  0  0  0  0  0
    6.7170   -7.5201    2.9378 H   0  0  0  0  0  0  0  0  0  0  0  0
    5.2907   -8.4383    3.4093 H   0  0  0  0  0  0  0  0  0  0  0  0
    5.4718   -7.2372    0.9743 H   0  0  0  0  0  0  0  0  0  0  0  0
    3.4558   -8.4808    1.6481 H   0  0  0  0  0  0  0  0  0  0  0  0
    3.0056   -6.9898    0.9014 H   0  0  0  0  0  0  0  0  0  0  0  0
    3.2985   -4.8040    0.9235 H   0  0  0  0  0  0  0  0  0  0  0  0
    5.9336   -5.4018   -0.2054 H   0  0  0  0  0  0  0  0  0  0  0  0
    4.3444   -5.6075   -0.8316 H   0  0  0  0  0  0  0  0  0  0  0  0
    5.5750   -4.2422   -2.2340 H   0  0  0  0  0  0  0  0  0  0  0  0
    7.3151   -3.5862   -0.4917 H   0  0  0  0  0  0  0  0  0  0  0  0
    6.9619   -2.4493   -1.7572 H   0  0  0  0  0  0  0  0  0  0  0  0
    7.1058   -1.2597    0.3476 H   0  0  0  0  0  0  0  0  0  0  0  0
    4.9233   -0.1003    0.2936 H   0  0  0  0  0  0  0  0  0  0  0  0
    5.4446   -0.4733   -1.3375 H   0  0  0  0  0  0  0  0  0  0  0  0
    3.0728   -1.0642   -1.0486 H   0  0  0  0  0  0  0  0  0  0  0  0
    4.2563   -2.4001   -2.6317 H   0  0  0  0  0  0  0  0  0  0  0  0
    3.1873   -3.4712   -1.7666 H   0  0  0  0  0  0  0  0  0  0  0  0
    3.0337   -1.3781    1.3160 H   0  0  0  0  0  0  0  0  0  0  0  0
    2.3864   -2.7948    0.5631 H   0  0  0  0  0  0  0  0  0  0  0  0
    3.9445   -3.0048    2.4710 H   0  0  0  0  0  0  0  0  0  0  0  0
    6.4938   -3.1193    1.9003 H   0  0  0  0  0  0  0  0  0  0  0  0
    5.7207   -1.6047    2.2450 H   0  0  0  0  0  0  0  0  0  0  0  0
    5.9644   -5.2091    2.0920 H   0  0  0  0  0  0  0  0  0  0  0  0
  1 24  2  0
  1  2  1  0
  1 25  1  0
  2  3  2  0
  3  4  1  0
  3 26  1  0
  4  5  1  0
  4 24  1  0
  5 11  1  0
  5  6  1  0
  5 27  1  1
  6  7  1  0
  6 28  1  0
  6 29  1  0
  7 12  1  0
  7  8  1  0
  7 30  1  1
  8  9  1  0
  8 31  1  0
  8 32  1  0
  9 10  1  0
  9 33  1  0
  9 34  1  0
 10 11  1  0
 10 12  1  0
 10 35  1  6
 11 36  1  0
 11 37  1  0
 12 13  1  0
 12 55  1  1
 13 22  1  0
 13 14  1  0
 13 38  1  6
 14 15  1  0
 14 39  1  0
 14 40  1  0
 15 20  1  0
 15 16  1  0
 15 41  1  6
 16 17  1  0
 16 42  1  0
 16 43  1  0
 17 23  1  0
 17 18  1  0
 17 44  1  1
 18 19  1  0
 18 45  1  0
 18 46  1  0
 19 20  1  0
 19 21  1  0
 19 47  1  6
 20 48  1  0
 20 49  1  0
 21 22  1  0
 21 50  1  0
 21 51  1  0
 22 23  1  0
 22 52  1  1
 23 53  1  0
 23 54  1  0
M  CHG  1  12   1
M  END
>  <i_m_ct_stereo_status>  (166) 
1

>  <s_m_source_file>  (166) 
/var/tmp/pbs.5076255.sched01/tmpmtrcy7mx/460f9z2a7c.sdf

>  <i_m_source_file_index>  (166) 
27

>  <i_lp_mmshare_version>  (166) 
48012

>  <i_f3d_flags>  (166) 
2

>  <s_epik_input>  (166) 
bjFbY0hdbltjSF1uMVtDQEhdKFtDSDJdW0NAQEhdMjMpW0NIMl1bQ0BIXShbQ0gyXVtDSDJdMilOM1tDQEhdKFtDSDJdW0NASF00NSlbQ0BASF02W0NIMl1bQ0BIXShbQ0gyXTUpW0NIMl1bQ0BIXShbQ0gyXTQpW0NIMl02

>  <s_epik_cmdline>  (166) 
J2VwaWtfcHl0aG9uJywgJy1waHQnLCAnMi4wJywgJy1waCcsICc3LjAnLCAnLXRuJywgJzgnLCAnLW1hJywgJzIwMCcsICctaW1hZScsICc8aW5maWxlLm1hZT4nLCAnLW9tYWUnLCAnPG91dGZpbGUubWFlPic=

>  <r_lp_tautomer_probability>  (166) 
1

>  <r_epik_Ionization_Penalty>  (166) 
0.000295113

>  <r_epik_Ionization_Penalty_Charging>  (166) 
0.000283848

>  <r_epik_Ionization_Penalty_Neutral>  (166) 
1.12649e-05

>  <r_epik_State_Penalty>  (166) 
-0

>  <r_epik_Charging_Adjusted_Penalty>  (166) 
0.000283848

>  <i_epik_Tot_Q>  (166) 
1

>  <i_epik_Tot_abs_Q>  (166) 
1

>  <s_lp_Force_Field>  (166) 
OPLS3e

>  <r_lp_Energy>  (166) 
36.8811

>  <b_lp_Chiralities_Consistent>  (166) 
0

>  <s_lp_Variant>  (166) 
39:0-1

>  <s_i_glide_gridfile>  (166) 
pfpi4k_grid

>  <i_i_glide_lignum>  (166) 
27

>  <i_i_glide_rotatable_bonds>  (166) 
2

>  <r_i_docking_score>  (166) 
-3.24553

>  <r_i_glide_ligand_efficiency>  (166) 
-0.13523

>  <r_i_glide_ligand_efficiency_sa>  (166) 
-0.390072

>  <r_i_glide_ligand_efficiency_ln>  (166) 
-0.776804

>  <r_i_glide_gscore>  (166) 
-3.24553

>  <r_i_glide_lipo>  (166) 
-0.286857

>  <r_i_glide_hbond>  (166) 
-0.141213

>  <r_i_glide_metal>  (166) 
-0

>  <r_i_glide_rewards>  (166) 
-1.17623

>  <r_i_glide_evdw>  (166) 
-26.8128

>  <r_i_glide_ecoul>  (166) 
-3.35919

>  <r_i_glide_erotb>  (166) 
0.350009

>  <r_i_glide_esite>  (166) 
-0.146723

>  <r_i_glide_emodel>  (166) 
-35.3847

>  <r_i_glide_energy>  (166) 
-30.172

>  <r_i_glide_einternal>  (166) 
1.51807

>  <r_i_glide_intrahb_reward>  (166) 
-0

>  <i_i_glide_confnum>  (166) 
5

>  <i_i_glide_posenum>  (166) 
23

>  <r_i_glide_eff_state_penalty>  (166) 
0

>  <ligand_id>  (166) 
39

>  <original_smiles>  (166) 
c1ncn(C2CC3CCC(C2)N3C2CC3CC4CC(C3)CC2C4)n1

>  <smiles>  (166) 
[H]c1nc([H])n(C2([H])C([H])([H])C3([H])C([H])([H])C([H])([H])C([H])(C2([H])[H])[N+]3([H])C2([H])C([H])([H])C3([H])C([H])([H])C4([H])C([H])([H])C([H])(C3([H])[H])C([H])([H])C2([H])C4([H])[H])n1

$$$$
39:0:2
     RDKit          3D

 55 60  0  0  1  0  0  0  0  0999 V2000
   -0.1949   -7.4900    1.6839 C   0  0  0  0  0  0  0  0  0  0  0  0
   -0.3609   -8.3576    2.7195 N   0  0  0  0  0  0  0  0  0  0  0  0
    0.8636   -8.3603    3.2214 C   0  0  0  0  0  0  0  0  0  0  0  0
    1.6984   -7.5384    2.5797 N   0  0  0  0  0  0  0  0  0  0  0  0
    3.0966   -7.2361    2.8192 C   0  0  2  0  0  0  0  0  0  0  0  0
    3.2727   -5.8143    3.4086 C   0  0  0  0  0  0  0  0  0  0  0  0
    4.7540   -5.3569    3.3640 C   0  0  1  0  0  0  0  0  0  0  0  0
    5.6846   -6.3639    4.0556 C   0  0  0  0  0  0  0  0  0  0  0  0
    6.0899   -7.3448    2.9428 C   0  0  0  0  0  0  0  0  0  0  0  0
    5.3590   -6.8289    1.6917 C   0  0  1  0  0  0  0  0  0  0  0  0
    3.9534   -7.4601    1.5459 C   0  0  0  0  0  0  0  0  0  0  0  0
    5.2467   -5.3775    1.9695 N   0  0  1  0  0  0  0  0  0  0  0  0
    4.5645   -4.5164    0.9508 C   0  0  2  0  0  0  0  0  0  0  0  0
    5.2273   -4.7355   -0.4340 C   0  0  0  0  0  0  0  0  0  0  0  0
    5.4567   -3.5377   -1.3602 C   0  0  2  0  0  0  0  0  0  0  0  0
    6.6282   -2.6521   -0.8839 C   0  0  0  0  0  0  0  0  0  0  0  0
    6.2074   -1.6296    0.1866 C   0  0  1  0  0  0  0  0  0  0  0  0
    5.0553   -0.7726   -0.3590 C   0  0  0  0  0  0  0  0  0  0  0  0
    3.8382   -1.6680   -0.6351 C   0  0  1  0  0  0  0  0  0  0  0  0
    4.1806   -2.7392   -1.6898 C   0  0  0  0  0  0  0  0  0  0  0  0
    3.3508   -2.2654    0.6862 C   0  0  0  0  0  0  0  0  0  0  0  0
    4.4449   -3.0462    1.4371 C   0  0  2  0  0  0  0  0  0  0  0  0
    5.7900   -2.2854    1.5165 C   0  0  0  0  0  0  0  0  0  0  0  0
    1.0052   -6.9237    1.5894 N   0  0  0  0  0  0  0  0  0  0  0  0
   -0.9755   -7.2578    0.9917 H   0  0  0  0  0  0  0  0  0  0  0  0
    1.1631   -8.9601    4.0714 H   0  0  0  0  0  0  0  0  0  0  0  0
    3.4454   -7.9462    3.5700 H   0  0  0  0  0  0  0  0  0  0  0  0
    2.6459   -5.0999    2.8768 H   0  0  0  0  0  0  0  0  0  0  0  0
    2.9117   -5.7976    4.4375 H   0  0  0  0  0  0  0  0  0  0  0  0
    4.8766   -4.3840    3.8461 H   0  0  0  0  0  0  0  0  0  0  0  0
    6.5642   -5.8447    4.4346 H   0  0  0  0  0  0  0  0  0  0  0  0
    5.2013   -6.8512    4.9010 H   0  0  0  0  0  0  0  0  0  0  0  0
    7.1676   -7.3050    2.7840 H   0  0  0  0  0  0  0  0  0  0  0  0
    5.8295   -8.3768    3.1738 H   0  0  0  0  0  0  0  0  0  0  0  0
    5.9522   -7.0521    0.8031 H   0  0  0  0  0  0  0  0  0  0  0  0
    4.0440   -8.5295    1.3473 H   0  0  0  0  0  0  0  0  0  0  0  0
    3.4670   -7.0520    0.6608 H   0  0  0  0  0  0  0  0  0  0  0  0
    3.5338   -4.8548    0.8313 H   0  0  0  0  0  0  0  0  0  0  0  0
    6.2100   -5.1820   -0.3085 H   0  0  0  0  0  0  0  0  0  0  0  0
    4.6451   -5.4842   -0.9751 H   0  0  0  0  0  0  0  0  0  0  0  0
    5.7871   -3.9822   -2.2996 H   0  0  0  0  0  0  0  0  0  0  0  0
    7.4562   -3.2600   -0.5170 H   0  0  0  0  0  0  0  0  0  0  0  0
    7.0224   -2.1191   -1.7485 H   0  0  0  0  0  0  0  0  0  0  0  0
    7.0620   -0.9808    0.3954 H   0  0  0  0  0  0  0  0  0  0  0  0
    4.7946    0.0096    0.3566 H   0  0  0  0  0  0  0  0  0  0  0  0
    5.3587   -0.2691   -1.2775 H   0  0  0  0  0  0  0  0  0  0  0  0
    3.0288   -1.0519   -1.0346 H   0  0  0  0  0  0  0  0  0  0  0  0
    4.3280   -2.2391   -2.6486 H   0  0  0  0  0  0  0  0  0  0  0  0
    3.3390   -3.4190   -1.8296 H   0  0  0  0  0  0  0  0  0  0  0  0
    3.0046   -1.4515    1.3227 H   0  0  0  0  0  0  0  0  0  0  0  0
    2.4751   -2.8899    0.5171 H   0  0  0  0  0  0  0  0  0  0  0  0
    4.0414   -3.0589    2.4451 H   0  0  0  0  0  0  0  0  0  0  0  0
    6.5863   -2.9349    1.8810 H   0  0  0  0  0  0  0  0  0  0  0  0
    5.6935   -1.4982    2.2646 H   0  0  0  0  0  0  0  0  0  0  0  0
    6.1953   -5.0355    2.0125 H   0  0  0  0  0  0  0  0  0  0  0  0
  1 24  2  0
  1  2  1  0
  1 25  1  0
  2  3  2  0
  3  4  1  0
  3 26  1  0
  4  5  1  0
  4 24  1  0
  5 11  1  0
  5  6  1  0
  5 27  1  1
  6  7  1  0
  6 28  1  0
  6 29  1  0
  7 12  1  0
  7  8  1  0
  7 30  1  1
  8  9  1  0
  8 31  1  0
  8 32  1  0
  9 10  1  0
  9 33  1  0
  9 34  1  0
 10 11  1  0
 10 12  1  0
 10 35  1  6
 11 36  1  0
 11 37  1  0
 12 13  1  0
 12 55  1  1
 13 22  1  0
 13 14  1  0
 13 38  1  6
 14 15  1  0
 14 39  1  0
 14 40  1  0
 15 20  1  0
 15 16  1  0
 15 41  1  6
 16 17  1  0
 16 42  1  0
 16 43  1  0
 17 23  1  0
 17 18  1  0
 17 44  1  1
 18 19  1  0
 18 45  1  0
 18 46  1  0
 19 20  1  0
 19 21  1  0
 19 47  1  6
 20 48  1  0
 20 49  1  0
 21 22  1  0
 21 50  1  0
 21 51  1  0
 22 23  1  0
 22 52  1  1
 23 53  1  0
 23 54  1  0
M  CHG  1  12   1
M  END
>  <i_m_ct_stereo_status>  (167) 
1

>  <s_m_source_file>  (167) 
/var/tmp/pbs.5076255.sched01/tmpmtrcy7mx/460f9z2a7c.sdf

>  <i_m_source_file_index>  (167) 
27

>  <i_lp_mmshare_version>  (167) 
48012

>  <i_f3d_flags>  (167) 
2

>  <s_epik_input>  (167) 
bjFbY0hdbltjSF1uMVtDQEhdKFtDSDJdW0NAQEhdMjMpW0NIMl1bQ0BIXShbQ0gyXVtDSDJdMilOM1tDQEhdKFtDSDJdW0NASF00NSlbQ0BASF02W0NIMl1bQ0BIXShbQ0gyXTUpW0NIMl1bQ0BIXShbQ0gyXTQpW0NIMl02

>  <s_epik_cmdline>  (167) 
J2VwaWtfcHl0aG9uJywgJy1waHQnLCAnMi4wJywgJy1waCcsICc3LjAnLCAnLXRuJywgJzgnLCAnLW1hJywgJzIwMCcsICctaW1hZScsICc8aW5maWxlLm1hZT4nLCAnLW9tYWUnLCAnPG91dGZpbGUubWFlPic=

>  <r_lp_tautomer_probability>  (167) 
1

>  <r_epik_Ionization_Penalty>  (167) 
0.000295113

>  <r_epik_Ionization_Penalty_Charging>  (167) 
0.000283848

>  <r_epik_Ionization_Penalty_Neutral>  (167) 
1.12649e-05

>  <r_epik_State_Penalty>  (167) 
-0

>  <r_epik_Charging_Adjusted_Penalty>  (167) 
0.000283848

>  <i_epik_Tot_Q>  (167) 
1

>  <i_epik_Tot_abs_Q>  (167) 
1

>  <s_lp_Force_Field>  (167) 
OPLS3e

>  <r_lp_Energy>  (167) 
36.8811

>  <b_lp_Chiralities_Consistent>  (167) 
0

>  <s_lp_Variant>  (167) 
39:0-1

>  <s_i_glide_gridfile>  (167) 
pfpi4k_grid

>  <i_i_glide_lignum>  (167) 
27

>  <i_i_glide_rotatable_bonds>  (167) 
2

>  <r_i_docking_score>  (167) 
-2.97292

>  <r_i_glide_ligand_efficiency>  (167) 
-0.123872

>  <r_i_glide_ligand_efficiency_sa>  (167) 
-0.357307

>  <r_i_glide_ligand_efficiency_ln>  (167) 
-0.711556

>  <r_i_glide_gscore>  (167) 
-2.97292

>  <r_i_glide_lipo>  (167) 
-0.395507

>  <r_i_glide_hbond>  (167) 
0

>  <r_i_glide_metal>  (167) 
-0

>  <r_i_glide_rewards>  (167) 
-1.17623

>  <r_i_glide_evdw>  (167) 
-27.32

>  <r_i_glide_ecoul>  (167) 
-1.74277

>  <r_i_glide_erotb>  (167) 
0.350009

>  <r_i_glide_esite>  (167) 
-0.123777

>  <r_i_glide_emodel>  (167) 
-34.5156

>  <r_i_glide_energy>  (167) 
-29.0628

>  <r_i_glide_einternal>  (167) 
0.113602

>  <r_i_glide_intrahb_reward>  (167) 
-0

>  <i_i_glide_confnum>  (167) 
1

>  <i_i_glide_posenum>  (167) 
1

>  <r_i_glide_eff_state_penalty>  (167) 
0

>  <ligand_id>  (167) 
39

>  <original_smiles>  (167) 
c1ncn(C2CC3CCC(C2)N3C2CC3CC4CC(C3)CC2C4)n1

>  <smiles>  (167) 
[H]c1nc([H])n(C2([H])C([H])([H])C3([H])C([H])([H])C([H])([H])C([H])(C2([H])[H])[N+]3([H])C2([H])C([H])([H])C3([H])C([H])([H])C4([H])C([H])([H])C([H])(C3([H])[H])C([H])([H])C2([H])C4([H])[H])n1

$$$$
39:1:0
     RDKit          3D

 55 60  0  0  1  0  0  0  0  0999 V2000
   -1.2121    2.3494    5.4427 C   0  0  0  0  0  0  0  0  0  0  0  0
   -0.8711    3.4954    4.8476 N   0  0  0  0  0  0  0  0  0  0  0  0
   -0.4082    2.9946    3.6975 C   0  0  0  0  0  0  0  0  0  0  0  0
   -0.4100    1.6606    3.6564 N   0  0  0  0  0  0  0  0  0  0  0  0
    0.0865    0.7157    2.6421 C   0  0  1  0  0  0  0  0  0  0  0  0
    1.2628    1.3376    1.8403 C   0  0  0  0  0  0  0  0  0  0  0  0
    2.6357    1.2110    2.5587 C   0  0  1  0  0  0  0  0  0  0  0  0
    2.6466    1.7805    3.9915 C   0  0  0  0  0  0  0  0  0  0  0  0
    2.2125    0.5920    4.8747 C   0  0  0  0  0  0  0  0  0  0  0  0
    2.0012   -0.5650    3.8732 C   0  0  1  0  0  0  0  0  0  0  0  0
    0.5589   -0.6266    3.2879 C   0  0  0  0  0  0  0  0  0  0  0  0
    2.9562   -0.1993    2.8148 N   0  0  1  0  0  0  0  0  0  0  0  0
    3.0898   -1.1381    1.6300 C   0  0  2  0  0  0  0  0  0  0  0  0
    3.2612   -2.5900    2.1430 C   0  0  0  0  0  0  0  0  0  0  0  0
    4.2655   -3.5183    1.4431 C   0  0  2  0  0  0  0  0  0  0  0  0
    5.7228   -3.1479    1.7895 C   0  0  0  0  0  0  0  0  0  0  0  0
    6.2965   -2.0302    0.8999 C   0  0  1  0  0  0  0  0  0  0  0  0
    6.1677   -2.4470   -0.5727 C   0  0  0  0  0  0  0  0  0  0  0  0
    4.6833   -2.5956   -0.9324 C   0  0  1  0  0  0  0  0  0  0  0  0
    4.0202   -3.6911   -0.0679 C   0  0  0  0  0  0  0  0  0  0  0  0
    4.0029   -1.2297   -0.7821 C   0  0  0  0  0  0  0  0  0  0  0  0
    4.1542   -0.6166    0.6279 C   0  0  2  0  0  0  0  0  0  0  0  0
    5.6104   -0.6687    1.1379 C   0  0  0  0  0  0  0  0  0  0  0  0
   -1.0435    1.2200    4.7832 N   0  0  0  0  0  0  0  0  0  0  0  0
   -1.5961    2.3410    6.4961 H   0  0  0  0  0  0  0  0  0  0  0  0
   -0.0124    3.6193    2.9014 H   0  0  0  0  0  0  0  0  0  0  0  0
   -0.7400    0.5159    1.9577 H   0  0  0  0  0  0  0  0  0  0  0  0
    1.3075    0.8358    0.8680 H   0  0  0  0  0  0  0  0  0  0  0  0
    1.0789    2.3762    1.5757 H   0  0  0  0  0  0  0  0  0  0  0  0
    3.3985    1.7204    1.9754 H   0  0  0  0  0  0  0  0  0  0  0  0
    3.6607    2.0867    4.2522 H   0  0  0  0  0  0  0  0  0  0  0  0
    2.0041    2.6562    4.0855 H   0  0  0  0  0  0  0  0  0  0  0  0
    3.0230    0.3296    5.5572 H   0  0  0  0  0  0  0  0  0  0  0  0
    1.3167    0.7856    5.4665 H   0  0  0  0  0  0  0  0  0  0  0  0
    2.2344   -1.5140    4.3617 H   0  0  0  0  0  0  0  0  0  0  0  0
   -0.1316   -0.9943    4.0504 H   0  0  0  0  0  0  0  0  0  0  0  0
    0.5296   -1.4117    2.5236 H   0  0  0  0  0  0  0  0  0  0  0  0
    2.1604   -1.1388    1.0752 H   0  0  0  0  0  0  0  0  0  0  0  0
    3.5739   -2.5920    3.1835 H   0  0  0  0  0  0  0  0  0  0  0  0
    2.2829   -3.0756    2.1351 H   0  0  0  0  0  0  0  0  0  0  0  0
    4.0875   -4.4950    1.9012 H   0  0  0  0  0  0  0  0  0  0  0  0
    5.8144   -2.8736    2.8405 H   0  0  0  0  0  0  0  0  0  0  0  0
    6.3452   -4.0354    1.6647 H   0  0  0  0  0  0  0  0  0  0  0  0
    7.3544   -1.9125    1.1434 H   0  0  0  0  0  0  0  0  0  0  0  0
    6.6261   -1.6992   -1.2190 H   0  0  0  0  0  0  0  0  0  0  0  0
    6.6948   -3.3872   -0.7476 H   0  0  0  0  0  0  0  0  0  0  0  0
    4.5954   -2.8968   -1.9779 H   0  0  0  0  0  0  0  0  0  0  0  0
    4.4343   -4.6565   -0.3695 H   0  0  0  0  0  0  0  0  0  0  0  0
    2.9504   -3.7429   -0.2733 H   0  0  0  0  0  0  0  0  0  0  0  0
    4.4312   -0.5409   -1.5142 H   0  0  0  0  0  0  0  0  0  0  0  0
    2.9568   -1.3150   -1.0536 H   0  0  0  0  0  0  0  0  0  0  0  0
    3.9414    0.4342    0.4499 H   0  0  0  0  0  0  0  0  0  0  0  0
    5.6633   -0.3923    2.1905 H   0  0  0  0  0  0  0  0  0  0  0  0
    6.1818    0.0948    0.6066 H   0  0  0  0  0  0  0  0  0  0  0  0
    3.8712   -0.2189    3.2295 H   0  0  0  0  0  0  0  0  0  0  0  0
  1 24  2  0
  1  2  1  0
  1 25  1  0
  2  3  2  0
  3  4  1  0
  3 26  1  0
  4  5  1  0
  4 24  1  0
  5 11  1  0
  5  6  1  0
  5 27  1  6
  6  7  1  0
  6 28  1  0
  6 29  1  0
  7 12  1  0
  7  8  1  0
  7 30  1  6
  8  9  1  0
  8 31  1  0
  8 32  1  0
  9 10  1  0
  9 33  1  0
  9 34  1  0
 10 11  1  0
 10 12  1  0
 10 35  1  1
 11 36  1  0
 11 37  1  0
 12 13  1  0
 12 55  1  1
 13 22  1  0
 13 14  1  0
 13 38  1  6
 14 15  1  0
 14 39  1  0
 14 40  1  0
 15 20  1  0
 15 16  1  0
 15 41  1  1
 16 17  1  0
 16 42  1  0
 16 43  1  0
 17 23  1  0
 17 18  1  0
 17 44  1  1
 18 19  1  0
 18 45  1  0
 18 46  1  0
 19 20  1  0
 19 21  1  0
 19 47  1  6
 20 48  1  0
 20 49  1  0
 21 22  1  0
 21 50  1  0
 21 51  1  0
 22 23  1  0
 22 52  1  6
 23 53  1  0
 23 54  1  0
M  CHG  1  12   1
M  END
>  <i_m_ct_stereo_status>  (168) 
1

>  <s_m_source_file>  (168) 
/var/tmp/pbs.5076255.sched01/tmpmtrcy7mx/460f9z2a7c.sdf

>  <i_m_source_file_index>  (168) 
28

>  <i_lp_mmshare_version>  (168) 
48012

>  <i_f3d_flags>  (168) 
2

>  <s_epik_input>  (168) 
bjFbY0hdbltjSF1uMVtDQEhdKFtDSDJdW0NAQEhdMjMpW0NIMl1bQ0BIXShbQ0gyXVtDSDJdMilOM1tDQEhdKFtDSDJdW0NASF00NSlbQ0BASF02W0NIMl1bQ0BIXShbQ0gyXTUpW0NIMl1bQ0BIXShbQ0gyXTQpW0NIMl02

>  <s_epik_cmdline>  (168) 
J2VwaWtfcHl0aG9uJywgJy1waHQnLCAnMi4wJywgJy1waCcsICc3LjAnLCAnLXRuJywgJzgnLCAnLW1hJywgJzIwMCcsICctaW1hZScsICc8aW5maWxlLm1hZT4nLCAnLW9tYWUnLCAnPG91dGZpbGUubWFlPic=

>  <r_lp_tautomer_probability>  (168) 
1

>  <r_epik_Ionization_Penalty>  (168) 
0.000295113

>  <r_epik_Ionization_Penalty_Charging>  (168) 
0.000283848

>  <r_epik_Ionization_Penalty_Neutral>  (168) 
1.12649e-05

>  <r_epik_State_Penalty>  (168) 
-0

>  <r_epik_Charging_Adjusted_Penalty>  (168) 
0.000283848

>  <i_epik_Tot_Q>  (168) 
1

>  <i_epik_Tot_abs_Q>  (168) 
1

>  <s_lp_Force_Field>  (168) 
OPLS3e

>  <r_lp_Energy>  (168) 
44.1212

>  <b_lp_Chiralities_Consistent>  (168) 
0

>  <s_lp_Variant>  (168) 
39:0-2

>  <s_i_glide_gridfile>  (168) 
pfpi4k_grid

>  <i_i_glide_lignum>  (168) 
28

>  <i_i_glide_rotatable_bonds>  (168) 
2

>  <r_i_docking_score>  (168) 
-3.42654

>  <r_i_glide_ligand_efficiency>  (168) 
-0.142773

>  <r_i_glide_ligand_efficiency_sa>  (168) 
-0.411828

>  <r_i_glide_ligand_efficiency_ln>  (168) 
-0.820129

>  <r_i_glide_gscore>  (168) 
-3.42654

>  <r_i_glide_lipo>  (168) 
-0.375367

>  <r_i_glide_hbond>  (168) 
0

>  <r_i_glide_metal>  (168) 
-0

>  <r_i_glide_rewards>  (168) 
-1.17623

>  <r_i_glide_evdw>  (168) 
-26.8211

>  <r_i_glide_ecoul>  (168) 
-5.24312

>  <r_i_glide_erotb>  (168) 
0.350009

>  <r_i_glide_esite>  (168) 
-0.0974355

>  <r_i_glide_emodel>  (168) 
-38.0656

>  <r_i_glide_energy>  (168) 
-32.0643

>  <r_i_glide_einternal>  (168) 
0.550831

>  <r_i_glide_intrahb_reward>  (168) 
-0

>  <i_i_glide_confnum>  (168) 
1

>  <i_i_glide_posenum>  (168) 
4

>  <r_i_glide_eff_state_penalty>  (168) 
0

>  <ligand_id>  (168) 
39

>  <original_smiles>  (168) 
c1ncn(C2CC3CCC(C2)N3C2CC3CC4CC(C3)CC2C4)n1

>  <smiles>  (168) 
[H]c1nc([H])n(C2([H])C([H])([H])C3([H])C([H])([H])C([H])([H])C([H])(C2([H])[H])[N+]3([H])C2([H])C([H])([H])C3([H])C([H])([H])C4([H])C([H])([H])C([H])(C3([H])[H])C([H])([H])C2([H])C4([H])[H])n1

$$$$
39:1:1
     RDKit          3D

 55 60  0  0  1  0  0  0  0  0999 V2000
    1.7806   -8.1111    5.0564 C   0  0  0  0  0  0  0  0  0  0  0  0
    3.0036   -8.7264    5.0504 N   0  0  0  0  0  0  0  0  0  0  0  0
    3.3265   -8.5608    3.8007 C   0  0  0  0  0  0  0  0  0  0  0  0
    2.4667   -7.8804    3.0814 N   0  0  0  0  0  0  0  0  0  0  0  0
    2.5040   -7.3259    1.7078 C   0  0  1  0  0  0  0  0  0  0  0  0
    1.8086   -5.9415    1.6129 C   0  0  0  0  0  0  0  0  0  0  0  0
    2.6966   -4.7595    2.1265 C   0  0  1  0  0  0  0  0  0  0  0  0
    3.2464   -4.9773    3.5523 C   0  0  0  0  0  0  0  0  0  0  0  0
    4.5894   -5.7371    3.3275 C   0  0  0  0  0  0  0  0  0  0  0  0
    4.6763   -5.8870    1.7858 C   0  0  1  0  0  0  0  0  0  0  0  0
    3.9968   -7.1800    1.2422 C   0  0  0  0  0  0  0  0  0  0  0  0
    3.9409   -4.6898    1.3386 N   0  0  1  0  0  0  0  0  0  0  0  0
    3.8432   -4.4485   -0.1142 C   0  0  2  0  0  0  0  0  0  0  0  0
    5.2644   -4.4613   -0.7409 C   0  0  0  0  0  0  0  0  0  0  0  0
    5.6317   -3.4382   -1.8265 C   0  0  2  0  0  0  0  0  0  0  0  0
    5.8204   -2.0313   -1.2330 C   0  0  0  0  0  0  0  0  0  0  0  0
    4.5018   -1.2575   -1.0824 C   0  0  1  0  0  0  0  0  0  0  0  0
    3.7980   -1.1866   -2.4432 C   0  0  0  0  0  0  0  0  0  0  0  0
    3.4383   -2.6098   -2.9024 C   0  0  1  0  0  0  0  0  0  0  0  0
    4.7138   -3.4552   -3.0650 C   0  0  0  0  0  0  0  0  0  0  0  0
    2.4446   -3.2233   -1.9115 C   0  0  0  0  0  0  0  0  0  0  0  0
    2.9577   -3.2135   -0.4584 C   0  0  2  0  0  0  0  0  0  0  0  0
    3.5726   -1.8660   -0.0232 C   0  0  0  0  0  0  0  0  0  0  0  0
    1.3996   -7.6080    3.8890 N   0  0  0  0  0  0  0  0  0  0  0  0
    1.2395   -7.9459    5.9620 H   0  0  0  0  0  0  0  0  0  0  0  0
    4.2783   -8.9513    3.3755 H   0  0  0  0  0  0  0  0  0  0  0  0
    1.9962   -8.0401    1.0572 H   0  0  0  0  0  0  0  0  0  0  0  0
    1.5201   -5.7666    0.5816 H   0  0  0  0  0  0  0  0  0  0  0  0
    0.8523   -5.9269    2.1444 H   0  0  0  0  0  0  0  0  0  0  0  0
    2.1358   -3.8188    2.1087 H   0  0  0  0  0  0  0  0  0  0  0  0
    3.4462   -3.9929    4.0165 H   0  0  0  0  0  0  0  0  0  0  0  0
    2.5376   -5.5388    4.1758 H   0  0  0  0  0  0  0  0  0  0  0  0
    5.4321   -5.0894    3.6770 H   0  0  0  0  0  0  0  0  0  0  0  0
    4.6471   -6.6761    3.8518 H   0  0  0  0  0  0  0  0  0  0  0  0
    5.7278   -5.8866    1.4850 H   0  0  0  0  0  0  0  0  0  0  0  0
    4.5954   -8.0577    1.4963 H   0  0  0  0  0  0  0  0  0  0  0  0
    4.0271   -7.1863    0.1546 H   0  0  0  0  0  0  0  0  0  0  0  0
    3.3166   -5.2864   -0.5948 H   0  0  0  0  0  0  0  0  0  0  0  0
    6.0106   -4.3339    0.0282 H   0  0  0  0  0  0  0  0  0  0  0  0
    5.4166   -5.4638   -1.1257 H   0  0  0  0  0  0  0  0  0  0  0  0
    6.6158   -3.7530   -2.1690 H   0  0  0  0  0  0  0  0  0  0  0  0
    6.3504   -2.0724   -0.2742 H   0  0  0  0  0  0  0  0  0  0  0  0
    6.4654   -1.4704   -1.9073 H   0  0  0  0  0  0  0  0  0  0  0  0
    4.7490   -0.2512   -0.7525 H   0  0  0  0  0  0  0  0  0  0  0  0
    2.8920   -0.5903   -2.3647 H   0  0  0  0  0  0  0  0  0  0  0  0
    4.4386   -0.7001   -3.1778 H   0  0  0  0  0  0  0  0  0  0  0  0
    2.9380   -2.5539   -3.8696 H   0  0  0  0  0  0  0  0  0  0  0  0
    5.2799   -3.0680   -3.9138 H   0  0  0  0  0  0  0  0  0  0  0  0
    4.4641   -4.4840   -3.3236 H   0  0  0  0  0  0  0  0  0  0  0  0
    1.5122   -2.6701   -1.9530 H   0  0  0  0  0  0  0  0  0  0  0  0
    2.1503   -4.2249   -2.2073 H   0  0  0  0  0  0  0  0  0  0  0  0
    2.0351   -3.3198    0.1035 H   0  0  0  0  0  0  0  0  0  0  0  0
    4.0881   -1.9591    0.9402 H   0  0  0  0  0  0  0  0  0  0  0  0
    2.7610   -1.1680    0.1604 H   0  0  0  0  0  0  0  0  0  0  0  0
    4.4472   -3.8979    1.6870 H   0  0  0  0  0  0  0  0  0  0  0  0
  1 24  2  0
  1  2  1  0
  1 25  1  0
  2  3  2  0
  3  4  1  0
  3 26  1  0
  4  5  1  0
  4 24  1  0
  5 11  1  0
  5  6  1  0
  5 27  1  6
  6  7  1  0
  6 28  1  0
  6 29  1  0
  7 12  1  0
  7  8  1  0
  7 30  1  1
  8  9  1  0
  8 31  1  0
  8 32  1  0
  9 10  1  0
  9 33  1  0
  9 34  1  0
 10 11  1  0
 10 12  1  0
 10 35  1  6
 11 36  1  0
 11 37  1  0
 12 13  1  0
 12 55  1  1
 13 22  1  0
 13 14  1  0
 13 38  1  6
 14 15  1  0
 14 39  1  0
 14 40  1  0
 15 20  1  0
 15 16  1  0
 15 41  1  6
 16 17  1  0
 16 42  1  0
 16 43  1  0
 17 23  1  0
 17 18  1  0
 17 44  1  1
 18 19  1  0
 18 45  1  0
 18 46  1  0
 19 20  1  0
 19 21  1  0
 19 47  1  6
 20 48  1  0
 20 49  1  0
 21 22  1  0
 21 50  1  0
 21 51  1  0
 22 23  1  0
 22 52  1  1
 23 53  1  0
 23 54  1  0
M  CHG  1  12   1
M  END
>  <i_m_ct_stereo_status>  (169) 
1

>  <s_m_source_file>  (169) 
/var/tmp/pbs.5076255.sched01/tmpmtrcy7mx/460f9z2a7c.sdf

>  <i_m_source_file_index>  (169) 
28

>  <i_lp_mmshare_version>  (169) 
48012

>  <i_f3d_flags>  (169) 
2

>  <s_epik_input>  (169) 
bjFbY0hdbltjSF1uMVtDQEhdKFtDSDJdW0NAQEhdMjMpW0NIMl1bQ0BIXShbQ0gyXVtDSDJdMilOM1tDQEhdKFtDSDJdW0NASF00NSlbQ0BASF02W0NIMl1bQ0BIXShbQ0gyXTUpW0NIMl1bQ0BIXShbQ0gyXTQpW0NIMl02

>  <s_epik_cmdline>  (169) 
J2VwaWtfcHl0aG9uJywgJy1waHQnLCAnMi4wJywgJy1waCcsICc3LjAnLCAnLXRuJywgJzgnLCAnLW1hJywgJzIwMCcsICctaW1hZScsICc8aW5maWxlLm1hZT4nLCAnLW9tYWUnLCAnPG91dGZpbGUubWFlPic=

>  <r_lp_tautomer_probability>  (169) 
1

>  <r_epik_Ionization_Penalty>  (169) 
0.000295113

>  <r_epik_Ionization_Penalty_Charging>  (169) 
0.000283848

>  <r_epik_Ionization_Penalty_Neutral>  (169) 
1.12649e-05

>  <r_epik_State_Penalty>  (169) 
-0

>  <r_epik_Charging_Adjusted_Penalty>  (169) 
0.000283848

>  <i_epik_Tot_Q>  (169) 
1

>  <i_epik_Tot_abs_Q>  (169) 
1

>  <s_lp_Force_Field>  (169) 
OPLS3e

>  <r_lp_Energy>  (169) 
44.1212

>  <b_lp_Chiralities_Consistent>  (169) 
0

>  <s_lp_Variant>  (169) 
39:0-2

>  <s_i_glide_gridfile>  (169) 
pfpi4k_grid

>  <i_i_glide_lignum>  (169) 
28

>  <i_i_glide_rotatable_bonds>  (169) 
2

>  <r_i_docking_score>  (169) 
-2.94634

>  <r_i_glide_ligand_efficiency>  (169) 
-0.122764

>  <r_i_glide_ligand_efficiency_sa>  (169) 
-0.354113

>  <r_i_glide_ligand_efficiency_ln>  (169) 
-0.705194

>  <r_i_glide_gscore>  (169) 
-2.94634

>  <r_i_glide_lipo>  (169) 
-0.547479

>  <r_i_glide_hbond>  (169) 
0

>  <r_i_glide_metal>  (169) 
-0

>  <r_i_glide_rewards>  (169) 
-1.17623

>  <r_i_glide_evdw>  (169) 
-24.9625

>  <r_i_glide_ecoul>  (169) 
-2.06052

>  <r_i_glide_erotb>  (169) 
0.350009

>  <r_i_glide_esite>  (169) 
-0.0154406

>  <r_i_glide_emodel>  (169) 
-30.1715

>  <r_i_glide_energy>  (169) 
-27.023

>  <r_i_glide_einternal>  (169) 
2.28168

>  <r_i_glide_intrahb_reward>  (169) 
-0

>  <i_i_glide_confnum>  (169) 
4

>  <i_i_glide_posenum>  (169) 
27

>  <r_i_glide_eff_state_penalty>  (169) 
0

>  <ligand_id>  (169) 
39

>  <original_smiles>  (169) 
c1ncn(C2CC3CCC(C2)N3C2CC3CC4CC(C3)CC2C4)n1

>  <smiles>  (169) 
[H]c1nc([H])n(C2([H])C([H])([H])C3([H])C([H])([H])C([H])([H])C([H])(C2([H])[H])[N+]3([H])C2([H])C([H])([H])C3([H])C([H])([H])C4([H])C([H])([H])C([H])(C3([H])[H])C([H])([H])C2([H])C4([H])[H])n1

$$$$
39:1:2
     RDKit          3D

 55 60  0  0  1  0  0  0  0  0999 V2000
    2.1282    1.0498    6.8498 C   0  0  0  0  0  0  0  0  0  0  0  0
    2.8865    2.1115    6.4984 N   0  0  0  0  0  0  0  0  0  0  0  0
    2.8125    2.0457    5.1838 C   0  0  0  0  0  0  0  0  0  0  0  0
    2.1322    0.9543    4.7452 N   0  0  0  0  0  0  0  0  0  0  0  0
    1.9027    0.4467    3.3891 C   0  0  1  0  0  0  0  0  0  0  0  0
    3.0345    0.8822    2.4168 C   0  0  0  0  0  0  0  0  0  0  0  0
    4.3095   -0.0231    2.5105 C   0  0  1  0  0  0  0  0  0  0  0  0
    4.8827   -0.1685    3.9359 C   0  0  0  0  0  0  0  0  0  0  0  0
    4.1196   -1.3788    4.5249 C   0  0  0  0  0  0  0  0  0  0  0  0
    3.1832   -1.8300    3.3846 C   0  0  1  0  0  0  0  0  0  0  0  0
    1.7942   -1.1152    3.3781 C   0  0  0  0  0  0  0  0  0  0  0  0
    3.9616   -1.4215    2.1933 N   0  0  1  0  0  0  0  0  0  0  0  0
    3.4072   -1.7263    0.8362 C   0  0  2  0  0  0  0  0  0  0  0  0
    2.9176   -3.1921    0.8106 C   0  0  0  0  0  0  0  0  0  0  0  0
    3.1721   -4.0419   -0.4393 C   0  0  2  0  0  0  0  0  0  0  0  0
    4.6540   -4.4618   -0.5465 C   0  0  0  0  0  0  0  0  0  0  0  0
    5.5369   -3.3984   -1.2199 C   0  0  1  0  0  0  0  0  0  0  0  0
    4.9577   -3.0602   -2.6036 C   0  0  0  0  0  0  0  0  0  0  0  0
    3.5625   -2.4410   -2.4324 C   0  0  1  0  0  0  0  0  0  0  0  0
    2.6004   -3.4322   -1.7375 C   0  0  0  0  0  0  0  0  0  0  0  0
    3.7061   -1.1182   -1.6622 C   0  0  0  0  0  0  0  0  0  0  0  0
    4.3880   -1.2814   -0.2908 C   0  0  2  0  0  0  0  0  0  0  0  0
    5.6864   -2.1200   -0.3707 C   0  0  0  0  0  0  0  0  0  0  0  0
    1.5999    0.3528    5.8309 N   0  0  0  0  0  0  0  0  0  0  0  0
    2.0072    0.7388    7.8751 H   0  0  0  0  0  0  0  0  0  0  0  0
    3.3043    2.7382    4.5252 H   0  0  0  0  0  0  0  0  0  0  0  0
    0.9509    0.8658    3.0418 H   0  0  0  0  0  0  0  0  0  0  0  0
    2.6488    0.8925    1.3957 H   0  0  0  0  0  0  0  0  0  0  0  0
    3.3196    1.9223    2.5750 H   0  0  0  0  0  0  0  0  0  0  0  0
    5.0919    0.3560    1.8531 H   0  0  0  0  0  0  0  0  0  0  0  0
    5.9525   -0.3924    3.8813 H   0  0  0  0  0  0  0  0  0  0  0  0
    4.7758    0.7410    4.5168 H   0  0  0  0  0  0  0  0  0  0  0  0
    4.8257   -2.1819    4.7546 H   0  0  0  0  0  0  0  0  0  0  0  0
    3.5712   -1.1505    5.4342 H   0  0  0  0  0  0  0  0  0  0  0  0
    3.0329   -2.9109    3.4531 H   0  0  0  0  0  0  0  0  0  0  0  0
    1.1886   -1.4959    4.2003 H   0  0  0  0  0  0  0  0  0  0  0  0
    1.2303   -1.4139    2.4927 H   0  0  0  0  0  0  0  0  0  0  0  0
    2.5151   -1.1215    0.6886 H   0  0  0  0  0  0  0  0  0  0  0  0
    3.3685   -3.7655    1.6133 H   0  0  0  0  0  0  0  0  0  0  0  0
    1.8497   -3.1951    1.0176 H   0  0  0  0  0  0  0  0  0  0  0  0
    2.6106   -4.9582   -0.2596 H   0  0  0  0  0  0  0  0  0  0  0  0
    5.0599   -4.7266    0.4270 H   0  0  0  0  0  0  0  0  0  0  0  0
    4.7051   -5.3782   -1.1358 H   0  0  0  0  0  0  0  0  0  0  0  0
    6.5333   -3.8273   -1.3532 H   0  0  0  0  0  0  0  0  0  0  0  0
    5.6140   -2.3673   -3.1203 H   0  0  0  0  0  0  0  0  0  0  0  0
    4.8942   -3.9612   -3.2174 H   0  0  0  0  0  0  0  0  0  0  0  0
    3.1474   -2.2061   -3.4120 H   0  0  0  0  0  0  0  0  0  0  0  0
    2.3716   -4.2233   -2.4386 H   0  0  0  0  0  0  0  0  0  0  0  0
    1.6321   -2.9761   -1.5420 H   0  0  0  0  0  0  0  0  0  0  0  0
    4.2772   -0.4167   -2.2672 H   0  0  0  0  0  0  0  0  0  0  0  0
    2.7275   -0.6645   -1.5509 H   0  0  0  0  0  0  0  0  0  0  0  0
    4.6946   -0.2592   -0.0750 H   0  0  0  0  0  0  0  0  0  0  0  0
    6.0544   -2.3656    0.6264 H   0  0  0  0  0  0  0  0  0  0  0  0
    6.4610   -1.5016   -0.8212 H   0  0  0  0  0  0  0  0  0  0  0  0
    4.8242   -1.9433    2.2225 H   0  0  0  0  0  0  0  0  0  0  0  0
  1 24  2  0
  1  2  1  0
  1 25  1  0
  2  3  2  0
  3  4  1  0
  3 26  1  0
  4  5  1  0
  4 24  1  0
  5 11  1  0
  5  6  1  0
  5 27  1  6
  6  7  1  0
  6 28  1  0
  6 29  1  0
  7 12  1  0
  7  8  1  0
  7 30  1  6
  8  9  1  0
  8 31  1  0
  8 32  1  0
  9 10  1  0
  9 33  1  0
  9 34  1  0
 10 11  1  0
 10 12  1  0
 10 35  1  6
 11 36  1  0
 11 37  1  0
 12 13  1  0
 12 55  1  1
 13 22  1  0
 13 14  1  0
 13 38  1  6
 14 15  1  0
 14 39  1  0
 14 40  1  0
 15 20  1  0
 15 16  1  0
 15 41  1  1
 16 17  1  0
 16 42  1  0
 16 43  1  0
 17 23  1  0
 17 18  1  0
 17 44  1  6
 18 19  1  0
 18 45  1  0
 18 46  1  0
 19 20  1  0
 19 21  1  0
 19 47  1  6
 20 48  1  0
 20 49  1  0
 21 22  1  0
 21 50  1  0
 21 51  1  0
 22 23  1  0
 22 52  1  1
 23 53  1  0
 23 54  1  0
M  CHG  1  12   1
M  END
>  <i_m_ct_stereo_status>  (170) 
1

>  <s_m_source_file>  (170) 
/var/tmp/pbs.5076255.sched01/tmpmtrcy7mx/460f9z2a7c.sdf

>  <i_m_source_file_index>  (170) 
28

>  <i_lp_mmshare_version>  (170) 
48012

>  <i_f3d_flags>  (170) 
2

>  <s_epik_input>  (170) 
bjFbY0hdbltjSF1uMVtDQEhdKFtDSDJdW0NAQEhdMjMpW0NIMl1bQ0BIXShbQ0gyXVtDSDJdMilOM1tDQEhdKFtDSDJdW0NASF00NSlbQ0BASF02W0NIMl1bQ0BIXShbQ0gyXTUpW0NIMl1bQ0BIXShbQ0gyXTQpW0NIMl02

>  <s_epik_cmdline>  (170) 
J2VwaWtfcHl0aG9uJywgJy1waHQnLCAnMi4wJywgJy1waCcsICc3LjAnLCAnLXRuJywgJzgnLCAnLW1hJywgJzIwMCcsICctaW1hZScsICc8aW5maWxlLm1hZT4nLCAnLW9tYWUnLCAnPG91dGZpbGUubWFlPic=

>  <r_lp_tautomer_probability>  (170) 
1

>  <r_epik_Ionization_Penalty>  (170) 
0.000295113

>  <r_epik_Ionization_Penalty_Charging>  (170) 
0.000283848

>  <r_epik_Ionization_Penalty_Neutral>  (170) 
1.12649e-05

>  <r_epik_State_Penalty>  (170) 
-0

>  <r_epik_Charging_Adjusted_Penalty>  (170) 
0.000283848

>  <i_epik_Tot_Q>  (170) 
1

>  <i_epik_Tot_abs_Q>  (170) 
1

>  <s_lp_Force_Field>  (170) 
OPLS3e

>  <r_lp_Energy>  (170) 
44.1212

>  <b_lp_Chiralities_Consistent>  (170) 
0

>  <s_lp_Variant>  (170) 
39:0-2

>  <s_i_glide_gridfile>  (170) 
pfpi4k_grid

>  <i_i_glide_lignum>  (170) 
28

>  <i_i_glide_rotatable_bonds>  (170) 
2

>  <r_i_docking_score>  (170) 
-2.89939

>  <r_i_glide_ligand_efficiency>  (170) 
-0.120808

>  <r_i_glide_ligand_efficiency_sa>  (170) 
-0.34847

>  <r_i_glide_ligand_efficiency_ln>  (170) 
-0.693956

>  <r_i_glide_gscore>  (170) 
-2.89939

>  <r_i_glide_lipo>  (170) 
-0.550993

>  <r_i_glide_hbond>  (170) 
0

>  <r_i_glide_metal>  (170) 
-0

>  <r_i_glide_rewards>  (170) 
-1.17623

>  <r_i_glide_evdw>  (170) 
-20.0616

>  <r_i_glide_ecoul>  (170) 
-3.43998

>  <r_i_glide_erotb>  (170) 
0.350009

>  <r_i_glide_esite>  (170) 
-0.00309902

>  <r_i_glide_emodel>  (170) 
-28.2685

>  <r_i_glide_energy>  (170) 
-23.5016

>  <r_i_glide_einternal>  (170) 
1.07713

>  <r_i_glide_intrahb_reward>  (170) 
-0

>  <i_i_glide_confnum>  (170) 
1

>  <i_i_glide_posenum>  (170) 
5

>  <r_i_glide_eff_state_penalty>  (170) 
0

>  <ligand_id>  (170) 
39

>  <original_smiles>  (170) 
c1ncn(C2CC3CCC(C2)N3C2CC3CC4CC(C3)CC2C4)n1

>  <smiles>  (170) 
[H]c1nc([H])n(C2([H])C([H])([H])C3([H])C([H])([H])C([H])([H])C([H])(C2([H])[H])[N+]3([H])C2([H])C([H])([H])C3([H])C([H])([H])C4([H])C([H])([H])C([H])(C3([H])[H])C([H])([H])C2([H])C4([H])[H])n1

$$$$
40:0:0
     RDKit          3D

 35 38  0  0  1  0  0  0  0  0999 V2000
    2.4899   -0.3525    3.0221 C   0  0  0  0  0  0  0  0  0  0  0  0
    3.1135   -1.4010    2.1154 C   0  0  0  0  0  0  0  0  0  0  0  0
    3.4180   -1.2546    0.9056 N   0  0  0  0  0  0  0  0  0  0  0  0
    3.9668   -2.5416    0.4990 C   0  0  1  0  0  0  0  0  0  0  0  0
    3.3206   -3.1232   -0.7641 C   0  0  0  0  0  0  0  0  0  0  0  0
    4.4567   -2.4855   -1.5812 C   0  0  1  0  0  0  0  0  0  0  0  0
    4.9214   -3.1400   -2.8910 C   0  0  0  0  0  0  0  0  0  0  0  0
    4.0252   -2.1354   -3.6266 C   0  0  0  0  0  0  0  0  0  0  0  0
    4.1629   -1.2245   -2.4063 C   0  0  0  0  0  0  0  0  0  0  0  0
    5.2971   -2.4446   -0.2778 C   0  0  1  0  0  0  0  0  0  0  0  0
    6.3264   -1.3385    0.0097 C   0  0  0  0  0  0  0  0  0  0  0  0
    7.4157   -2.3114   -0.4522 C   0  0  0  0  0  0  0  0  0  0  0  0
    6.4527   -3.4398   -0.0702 C   0  0  0  0  0  0  0  0  0  0  0  0
    3.9567   -3.4486    1.6377 N   0  0  0  0  0  0  0  0  0  0  0  0
    3.4447   -2.7584    2.5884 C   0  0  0  0  0  0  0  0  0  0  0  0
    3.2226   -3.1908    3.8810 N   0  0  0  0  0  0  0  0  0  0  0  0
    2.2619   -0.7370    4.0123 H   0  0  0  0  0  0  0  0  0  0  0  0
    1.5650    0.0164    2.5786 H   0  0  0  0  0  0  0  0  0  0  0  0
    3.1700    0.4918    3.1282 H   0  0  0  0  0  0  0  0  0  0  0  0
    3.3585   -4.2139   -0.8010 H   0  0  0  0  0  0  0  0  0  0  0  0
    2.3233   -2.7552   -0.9998 H   0  0  0  0  0  0  0  0  0  0  0  0
    5.9798   -2.9858   -3.1032 H   0  0  0  0  0  0  0  0  0  0  0  0
    4.6297   -4.1838   -3.0100 H   0  0  0  0  0  0  0  0  0  0  0  0
    4.4379   -1.7236   -4.5458 H   0  0  0  0  0  0  0  0  0  0  0  0
    3.0036   -2.5002   -3.7595 H   0  0  0  0  0  0  0  0  0  0  0  0
    3.2539   -0.6951   -2.1218 H   0  0  0  0  0  0  0  0  0  0  0  0
    5.0130   -0.5496   -2.4930 H   0  0  0  0  0  0  0  0  0  0  0  0
    6.2123   -0.4319   -0.5784 H   0  0  0  0  0  0  0  0  0  0  0  0
    6.4069   -1.1090    1.0750 H   0  0  0  0  0  0  0  0  0  0  0  0
    7.6057   -2.2686   -1.5245 H   0  0  0  0  0  0  0  0  0  0  0  0
    8.3378   -2.2824    0.1270 H   0  0  0  0  0  0  0  0  0  0  0  0
    6.5771   -3.7538    0.9686 H   0  0  0  0  0  0  0  0  0  0  0  0
    6.4425   -4.2902   -0.7469 H   0  0  0  0  0  0  0  0  0  0  0  0
    3.4785   -4.1175    4.1864 H   0  0  0  0  0  0  0  0  0  0  0  0
    2.8419   -2.6187    4.6215 H   0  0  0  0  0  0  0  0  0  0  0  0
  1  2  1  0
  1 17  1  0
  1 18  1  0
  1 19  1  0
  2 15  1  0
  2  3  2  0
  3  4  1  0
  4 10  1  0
  4  5  1  6
  4 14  1  0
  6  5  1  1
  5 20  1  0
  5 21  1  0
  6  9  1  0
  6  7  1  0
  6 10  1  0
  7  8  1  0
  7 22  1  0
  7 23  1  0
  8  9  1  0
  8 24  1  0
  8 25  1  0
  9 26  1  0
  9 27  1  0
 10 13  1  6
 10 11  1  0
 11 12  1  0
 11 28  1  0
 11 29  1  0
 12 13  1  0
 12 30  1  0
 12 31  1  0
 13 32  1  0
 13 33  1  0
 14 15  2  0
 15 16  1  0
 16 34  1  0
 16 35  1  0
M  END
>  <i_m_ct_stereo_status>  (171) 
1

>  <s_m_source_file>  (171) 
/var/tmp/pbs.5076255.sched01/tmpmtrcy7mx/460f9z2a7c.sdf

>  <i_m_source_file_index>  (171) 
29

>  <i_lp_mmshare_version>  (171) 
48012

>  <i_f3d_flags>  (171) 
0

>  <s_epik_input>  (171) 
TjE9QyhbTkgyXSlDKFtDSDNdKT1OW0NAQF0xMkMzKFtDSDJdW0NIMl1bQ0gyXTMpQzQoW0NIMl0yKVtDSDJdW0NIMl1bQ0gyXTQ=

>  <s_epik_cmdline>  (171) 
J2VwaWtfcHl0aG9uJywgJy1waHQnLCAnMi4wJywgJy1waCcsICc3LjAnLCAnLXRuJywgJzgnLCAnLW1hJywgJzIwMCcsICctaW1hZScsICc8aW5maWxlLm1hZT4nLCAnLW9tYWUnLCAnPG91dGZpbGUubWFlPic=

>  <r_lp_tautomer_probability>  (171) 
0.992711

>  <r_epik_Ionization_Penalty>  (171) 
0.684696

>  <r_epik_Ionization_Penalty_Charging>  (171) 
0

>  <r_epik_Ionization_Penalty_Neutral>  (171) 
0.684696

>  <r_epik_State_Penalty>  (171) 
0.0424453

>  <r_epik_Charging_Adjusted_Penalty>  (171) 
0.0424453

>  <i_epik_Tot_Q>  (171) 
0

>  <i_epik_Tot_abs_Q>  (171) 
0

>  <s_epik_Chemistry_Notes>  (171) 
This compound has an imine and may undergo hydrolysis.

>  <s_lp_Force_Field>  (171) 
OPLS3e

>  <r_lp_Energy>  (171) 
2.49089

>  <b_lp_Chiralities_Consistent>  (171) 
1

>  <s_lp_Variant>  (171) 
40:0-1

>  <s_i_glide_gridfile>  (171) 
pfpi4k_grid

>  <i_i_glide_lignum>  (171) 
29

>  <i_i_glide_rotatable_bonds>  (171) 
0

>  <r_i_docking_score>  (171) 
-3.28279

>  <r_i_glide_ligand_efficiency>  (171) 
-0.205175

>  <r_i_glide_ligand_efficiency_sa>  (171) 
-0.517008

>  <r_i_glide_ligand_efficiency_ln>  (171) 
-0.87017

>  <r_i_glide_gscore>  (171) 
-3.28279

>  <r_i_glide_lipo>  (171) 
-0.494499

>  <r_i_glide_hbond>  (171) 
0

>  <r_i_glide_metal>  (171) 
-0

>  <r_i_glide_rewards>  (171) 
-1.92783

>  <r_i_glide_evdw>  (171) 
-17.9343

>  <r_i_glide_ecoul>  (171) 
0.391281

>  <r_i_glide_erotb>  (171) 
0

>  <r_i_glide_esite>  (171) 
-0.022438

>  <r_i_glide_emodel>  (171) 
-20.8509

>  <r_i_glide_energy>  (171) 
-17.543

>  <r_i_glide_einternal>  (171) 
0

>  <r_i_glide_intrahb_reward>  (171) 
-0

>  <i_i_glide_confnum>  (171) 
1

>  <i_i_glide_posenum>  (171) 
2

>  <r_i_glide_eff_state_penalty>  (171) 
0

>  <ligand_id>  (171) 
40

>  <original_smiles>  (171) 
CC1=NC2(CC3(CCC3)C23CCC3)N=C1N

>  <smiles>  (171) 
[H]N([H])C1=NC2(N=C1C([H])([H])[H])C([H])([H])C1(C([H])([H])C([H])([H])C1([H])[H])C21C([H])([H])C([H])([H])C1([H])[H]

$$$$
40:0:1
     RDKit          3D

 35 38  0  0  1  0  0  0  0  0999 V2000
    3.0366   -0.8033    2.7774 C   0  0  0  0  0  0  0  0  0  0  0  0
    3.2763   -1.8344    1.6855 C   0  0  0  0  0  0  0  0  0  0  0  0
    3.4205   -1.5997    0.4624 N   0  0  0  0  0  0  0  0  0  0  0  0
    3.6130   -2.9118   -0.1477 C   0  0  1  0  0  0  0  0  0  0  0  0
    2.6862   -3.2072   -1.3287 C   0  0  0  0  0  0  0  0  0  0  0  0
    3.7778   -2.7002   -2.2698 C   0  0  1  0  0  0  0  0  0  0  0  0
    3.8874   -3.2691   -3.6958 C   0  0  0  0  0  0  0  0  0  0  0  0
    3.1199   -2.0252   -4.1644 C   0  0  0  0  0  0  0  0  0  0  0  0
    3.6347   -1.3151   -2.9133 C   0  0  0  0  0  0  0  0  0  0  0  0
    4.7960   -2.9794   -1.1346 C   0  0  1  0  0  0  0  0  0  0  0  0
    6.0672   -2.1404   -0.9361 C   0  0  0  0  0  0  0  0  0  0  0  0
    6.8332   -3.2498   -1.6602 C   0  0  0  0  0  0  0  0  0  0  0  0
    5.7143   -4.2031   -1.2155 C   0  0  0  0  0  0  0  0  0  0  0  0
    3.5794   -3.9362    0.8938 N   0  0  0  0  0  0  0  0  0  0  0  0
    3.3746   -3.2738    1.9728 C   0  0  0  0  0  0  0  0  0  0  0  0
    3.2580   -3.8122    3.2411 N   0  0  0  0  0  0  0  0  0  0  0  0
    2.8850   -1.2509    3.7559 H   0  0  0  0  0  0  0  0  0  0  0  0
    2.1551   -0.2087    2.5343 H   0  0  0  0  0  0  0  0  0  0  0  0
    3.8882   -0.1246    2.8357 H   0  0  0  0  0  0  0  0  0  0  0  0
    2.4900   -4.2594   -1.4646 H   0  0  0  0  0  0  0  0  0  0  0  0
    1.7602   -2.6748   -1.3892 H   0  0  0  0  0  0  0  0  0  0  0  0
    4.9084   -3.3015   -4.0700 H   0  0  0  0  0  0  0  0  0  0  0  0
    3.3572   -4.2068   -3.8654 H   0  0  0  0  0  0  0  0  0  0  0  0
    3.4558   -1.5829   -5.1006 H   0  0  0  0  0  0  0  0  0  0  0  0
    2.0368   -2.1727   -4.1474 H   0  0  0  0  0  0  0  0  0  0  0  0
    2.9097   -0.6630   -2.4263 H   0  0  0  0  0  0  0  0  0  0  0  0
    4.5834   -0.8158   -3.0940 H   0  0  0  0  0  0  0  0  0  0  0  0
    6.0600   -1.1733   -1.4305 H   0  0  0  0  0  0  0  0  0  0  0  0
    6.3542   -2.0618    0.1143 H   0  0  0  0  0  0  0  0  0  0  0  0
    6.8606   -3.1057   -2.7383 H   0  0  0  0  0  0  0  0  0  0  0  0
    7.8192   -3.4695   -1.2524 H   0  0  0  0  0  0  0  0  0  0  0  0
    5.9263   -4.6663   -0.2499 H   0  0  0  0  0  0  0  0  0  0  0  0
    5.3827   -4.9321   -1.9542 H   0  0  0  0  0  0  0  0  0  0  0  0
    3.3651   -4.8010    3.4177 H   0  0  0  0  0  0  0  0  0  0  0  0
    3.1330   -3.2758    4.0853 H   0  0  0  0  0  0  0  0  0  0  0  0
  1  2  1  0
  1 17  1  0
  1 18  1  0
  1 19  1  0
  2 15  1  0
  2  3  2  0
  3  4  1  0
  4 10  1  0
  4  5  1  6
  4 14  1  0
  6  5  1  1
  5 20  1  0
  5 21  1  0
  6  9  1  0
  6  7  1  0
  6 10  1  0
  7  8  1  0
  7 22  1  0
  7 23  1  0
  8  9  1  0
  8 24  1  0
  8 25  1  0
  9 26  1  0
  9 27  1  0
 10 13  1  6
 10 11  1  0
 11 12  1  0
 11 28  1  0
 11 29  1  0
 12 13  1  0
 12 30  1  0
 12 31  1  0
 13 32  1  0
 13 33  1  0
 14 15  2  0
 15 16  1  0
 16 34  1  0
 16 35  1  0
M  END
>  <i_m_ct_stereo_status>  (172) 
1

>  <s_m_source_file>  (172) 
/var/tmp/pbs.5076255.sched01/tmpmtrcy7mx/460f9z2a7c.sdf

>  <i_m_source_file_index>  (172) 
29

>  <i_lp_mmshare_version>  (172) 
48012

>  <i_f3d_flags>  (172) 
0

>  <s_epik_input>  (172) 
TjE9QyhbTkgyXSlDKFtDSDNdKT1OW0NAQF0xMkMzKFtDSDJdW0NIMl1bQ0gyXTMpQzQoW0NIMl0yKVtDSDJdW0NIMl1bQ0gyXTQ=

>  <s_epik_cmdline>  (172) 
J2VwaWtfcHl0aG9uJywgJy1waHQnLCAnMi4wJywgJy1waCcsICc3LjAnLCAnLXRuJywgJzgnLCAnLW1hJywgJzIwMCcsICctaW1hZScsICc8aW5maWxlLm1hZT4nLCAnLW9tYWUnLCAnPG91dGZpbGUubWFlPic=

>  <r_lp_tautomer_probability>  (172) 
0.992711

>  <r_epik_Ionization_Penalty>  (172) 
0.684696

>  <r_epik_Ionization_Penalty_Charging>  (172) 
0

>  <r_epik_Ionization_Penalty_Neutral>  (172) 
0.684696

>  <r_epik_State_Penalty>  (172) 
0.0424453

>  <r_epik_Charging_Adjusted_Penalty>  (172) 
0.0424453

>  <i_epik_Tot_Q>  (172) 
0

>  <i_epik_Tot_abs_Q>  (172) 
0

>  <s_epik_Chemistry_Notes>  (172) 
This compound has an imine and may undergo hydrolysis.

>  <s_lp_Force_Field>  (172) 
OPLS3e

>  <r_lp_Energy>  (172) 
2.49089

>  <b_lp_Chiralities_Consistent>  (172) 
1

>  <s_lp_Variant>  (172) 
40:0-1

>  <s_i_glide_gridfile>  (172) 
pfpi4k_grid

>  <i_i_glide_lignum>  (172) 
29

>  <i_i_glide_rotatable_bonds>  (172) 
0

>  <r_i_docking_score>  (172) 
-3.06629

>  <r_i_glide_ligand_efficiency>  (172) 
-0.191643

>  <r_i_glide_ligand_efficiency_sa>  (172) 
-0.48291

>  <r_i_glide_ligand_efficiency_ln>  (172) 
-0.81278

>  <r_i_glide_gscore>  (172) 
-3.06629

>  <r_i_glide_lipo>  (172) 
-0.330126

>  <r_i_glide_hbond>  (172) 
0

>  <r_i_glide_metal>  (172) 
-0

>  <r_i_glide_rewards>  (172) 
-1.92798

>  <r_i_glide_evdw>  (172) 
-16.8245

>  <r_i_glide_ecoul>  (172) 
0.414601

>  <r_i_glide_erotb>  (172) 
0

>  <r_i_glide_esite>  (172) 
-0.029143

>  <r_i_glide_emodel>  (172) 
-19.4497

>  <r_i_glide_energy>  (172) 
-16.4099

>  <r_i_glide_einternal>  (172) 
0

>  <r_i_glide_intrahb_reward>  (172) 
-0

>  <i_i_glide_confnum>  (172) 
1

>  <i_i_glide_posenum>  (172) 
17

>  <r_i_glide_eff_state_penalty>  (172) 
0

>  <ligand_id>  (172) 
40

>  <original_smiles>  (172) 
CC1=NC2(CC3(CCC3)C23CCC3)N=C1N

>  <smiles>  (172) 
[H]N([H])C1=NC2(N=C1C([H])([H])[H])C([H])([H])C1(C([H])([H])C([H])([H])C1([H])[H])C21C([H])([H])C([H])([H])C1([H])[H]

$$$$
40:0:2
     RDKit          3D

 35 38  0  0  1  0  0  0  0  0999 V2000
    2.2261   -2.4941    3.0017 C   0  0  0  0  0  0  0  0  0  0  0  0
    1.8912   -1.0396    2.7206 C   0  0  0  0  0  0  0  0  0  0  0  0
    0.9714   -0.3758    3.2612 N   0  0  0  0  0  0  0  0  0  0  0  0
    1.0644    0.9446    2.6499 C   0  0  1  0  0  0  0  0  0  0  0  0
   -0.2659    1.4561    2.0849 C   0  0  0  0  0  0  0  0  0  0  0  0
   -0.4862    2.2024    3.4144 C   0  0  1  0  0  0  0  0  0  0  0  0
   -1.2958    3.5093    3.4449 C   0  0  0  0  0  0  0  0  0  0  0  0
   -2.4999    2.6705    3.8816 C   0  0  0  0  0  0  0  0  0  0  0  0
   -1.5021    1.6469    4.4227 C   0  0  0  0  0  0  0  0  0  0  0  0
    1.0427    2.1229    3.6505 C   0  0  1  0  0  0  0  0  0  0  0  0
    1.6576    2.0120    5.0546 C   0  0  0  0  0  0  0  0  0  0  0  0
    1.9278    3.5172    4.9961 C   0  0  0  0  0  0  0  0  0  0  0  0
    1.9128    3.3819    3.4705 C   0  0  0  0  0  0  0  0  0  0  0  0
    2.1620    0.9532    1.6955 N   0  0  0  0  0  0  0  0  0  0  0  0
    2.6480   -0.2314    1.7505 C   0  0  0  0  0  0  0  0  0  0  0  0
    3.7205   -0.7086    1.0247 N   0  0  0  0  0  0  0  0  0  0  0  0
    3.0157   -2.8717    2.3569 H   0  0  0  0  0  0  0  0  0  0  0  0
    1.3436   -3.1162    2.8616 H   0  0  0  0  0  0  0  0  0  0  0  0
    2.5495   -2.5978    4.0367 H   0  0  0  0  0  0  0  0  0  0  0  0
   -0.1257    2.1350    1.2451 H   0  0  0  0  0  0  0  0  0  0  0  0
   -1.0064    0.6889    1.8558 H   0  0  0  0  0  0  0  0  0  0  0  0
   -0.9686    4.1988    4.2217 H   0  0  0  0  0  0  0  0  0  0  0  0
   -1.4134    3.9989    2.4788 H   0  0  0  0  0  0  0  0  0  0  0  0
   -3.1430    3.1290    4.6319 H   0  0  0  0  0  0  0  0  0  0  0  0
   -3.0628    2.2922    3.0280 H   0  0  0  0  0  0  0  0  0  0  0  0
   -1.7772    0.6059    4.2614 H   0  0  0  0  0  0  0  0  0  0  0  0
   -1.2378    1.8482    5.4594 H   0  0  0  0  0  0  0  0  0  0  0  0
    0.9834    1.6931    5.8470 H   0  0  0  0  0  0  0  0  0  0  0  0
    2.5812    1.4322    5.0581 H   0  0  0  0  0  0  0  0  0  0  0  0
    1.0946    4.1065    5.3766 H   0  0  0  0  0  0  0  0  0  0  0  0
    2.8789    3.8320    5.4225 H   0  0  0  0  0  0  0  0  0  0  0  0
    2.9077    3.1718    3.0723 H   0  0  0  0  0  0  0  0  0  0  0  0
    1.4356    4.2031    2.9378 H   0  0  0  0  0  0  0  0  0  0  0  0
    4.1823   -0.1406    0.3301 H   0  0  0  0  0  0  0  0  0  0  0  0
    4.0544   -1.6634    1.0501 H   0  0  0  0  0  0  0  0  0  0  0  0
  1  2  1  0
  1 17  1  0
  1 18  1  0
  1 19  1  0
  2 15  1  0
  2  3  2  0
  3  4  1  0
  4 10  1  0
  4  5  1  6
  4 14  1  0
  6  5  1  6
  5 20  1  0
  5 21  1  0
  6  9  1  0
  6  7  1  0
  6 10  1  0
  7  8  1  0
  7 22  1  0
  7 23  1  0
  8  9  1  0
  8 24  1  0
  8 25  1  0
  9 26  1  0
  9 27  1  0
 10 13  1  6
 10 11  1  0
 11 12  1  0
 11 28  1  0
 11 29  1  0
 12 13  1  0
 12 30  1  0
 12 31  1  0
 13 32  1  0
 13 33  1  0
 14 15  2  0
 15 16  1  0
 16 34  1  0
 16 35  1  0
M  END
>  <i_m_ct_stereo_status>  (173) 
1

>  <s_m_source_file>  (173) 
/var/tmp/pbs.5076255.sched01/tmpmtrcy7mx/460f9z2a7c.sdf

>  <i_m_source_file_index>  (173) 
29

>  <i_lp_mmshare_version>  (173) 
48012

>  <i_f3d_flags>  (173) 
0

>  <s_epik_input>  (173) 
TjE9QyhbTkgyXSlDKFtDSDNdKT1OW0NAQF0xMkMzKFtDSDJdW0NIMl1bQ0gyXTMpQzQoW0NIMl0yKVtDSDJdW0NIMl1bQ0gyXTQ=

>  <s_epik_cmdline>  (173) 
J2VwaWtfcHl0aG9uJywgJy1waHQnLCAnMi4wJywgJy1waCcsICc3LjAnLCAnLXRuJywgJzgnLCAnLW1hJywgJzIwMCcsICctaW1hZScsICc8aW5maWxlLm1hZT4nLCAnLW9tYWUnLCAnPG91dGZpbGUubWFlPic=

>  <r_lp_tautomer_probability>  (173) 
0.992711

>  <r_epik_Ionization_Penalty>  (173) 
0.684696

>  <r_epik_Ionization_Penalty_Charging>  (173) 
0

>  <r_epik_Ionization_Penalty_Neutral>  (173) 
0.684696

>  <r_epik_State_Penalty>  (173) 
0.0424453

>  <r_epik_Charging_Adjusted_Penalty>  (173) 
0.0424453

>  <i_epik_Tot_Q>  (173) 
0

>  <i_epik_Tot_abs_Q>  (173) 
0

>  <s_epik_Chemistry_Notes>  (173) 
This compound has an imine and may undergo hydrolysis.

>  <s_lp_Force_Field>  (173) 
OPLS3e

>  <r_lp_Energy>  (173) 
2.49089

>  <b_lp_Chiralities_Consistent>  (173) 
1

>  <s_lp_Variant>  (173) 
40:0-1

>  <s_i_glide_gridfile>  (173) 
pfpi4k_grid

>  <i_i_glide_lignum>  (173) 
29

>  <i_i_glide_rotatable_bonds>  (173) 
0

>  <r_i_docking_score>  (173) 
-2.93033

>  <r_i_glide_ligand_efficiency>  (173) 
-0.183146

>  <r_i_glide_ligand_efficiency_sa>  (173) 
-0.461498

>  <r_i_glide_ligand_efficiency_ln>  (173) 
-0.776742

>  <r_i_glide_gscore>  (173) 
-2.93033

>  <r_i_glide_lipo>  (173) 
0

>  <r_i_glide_hbond>  (173) 
0

>  <r_i_glide_metal>  (173) 
-0

>  <r_i_glide_rewards>  (173) 
-1.92743

>  <r_i_glide_evdw>  (173) 
-16.8325

>  <r_i_glide_ecoul>  (173) 
-0.374715

>  <r_i_glide_erotb>  (173) 
0

>  <r_i_glide_esite>  (173) 
-0.105066

>  <r_i_glide_emodel>  (173) 
-20.1604

>  <r_i_glide_energy>  (173) 
-17.2072

>  <r_i_glide_einternal>  (173) 
0

>  <r_i_glide_intrahb_reward>  (173) 
-0

>  <i_i_glide_confnum>  (173) 
2

>  <i_i_glide_posenum>  (173) 
33

>  <r_i_glide_eff_state_penalty>  (173) 
0

>  <ligand_id>  (173) 
40

>  <original_smiles>  (173) 
CC1=NC2(CC3(CCC3)C23CCC3)N=C1N

>  <smiles>  (173) 
[H]N([H])C1=NC2(N=C1C([H])([H])[H])C([H])([H])C1(C([H])([H])C([H])([H])C1([H])[H])C21C([H])([H])C([H])([H])C1([H])[H]

$$$$
41:0:0
     RDKit          3D

 62 67  0  0  1  0  0  0  0  0999 V2000
    1.0943   -3.0914    3.7189 C   0  0  0  0  0  0  0  0  0  0  0  0
    2.6082   -2.8706    3.5514 C   0  0  0  0  0  0  0  0  0  0  0  0
    3.3533   -3.8207    3.3305 O   0  0  0  0  0  0  0  0  0  0  0  0
    3.0874   -1.6047    3.6728 O   0  0  0  0  0  0  0  0  0  0  0  0
    2.2736   -0.4470    3.8532 C   0  0  2  0  0  0  0  0  0  0  0  0
    2.9426    0.8720    3.3075 C   0  0  1  0  0  0  0  0  0  0  0  0
    2.2522    1.4041    2.1942 O   0  0  0  0  0  0  0  0  0  0  0  0
    3.0582    1.9013    4.4872 C   0  0  2  0  0  0  0  0  0  0  0  0
    4.0580    1.1729    5.4591 C   0  0  0  0  0  0  0  0  0  0  0  0
    5.2850    0.3919    4.8719 C   0  0  0  0  0  0  0  0  0  0  0  0
    4.8126    2.2661    6.2916 C   0  0  0  0  0  0  0  0  0  0  0  0
    3.1364    0.1976    6.1938 C   0  0  0  0  0  0  0  0  0  0  0  0
    3.1586    0.2279    7.5347 C   0  0  0  0  0  0  0  0  0  0  0  0
    2.0252    0.8757    8.2711 C   0  0  0  0  0  0  0  0  0  0  0  0
    2.1121    2.3835    7.9077 C   0  0  0  0  0  0  0  0  0  0  0  0
    2.6101    3.1617    8.7197 O   0  0  0  0  0  0  0  0  0  0  0  0
    1.5107    2.9411    6.5715 C   0  0  1  0  0  0  0  0  0  0  0  0
    0.1578    3.1516    6.9799 O   0  0  0  0  0  0  0  0  0  0  0  0
    2.0536    4.1914    6.2943 O   0  0  0  0  0  0  0  0  0  0  0  0
    1.6679    4.5846    4.9724 C   0  0  0  0  0  0  0  0  0  0  0  0
    0.9529    3.3878    4.2876 C   0  0  2  0  0  0  0  0  0  0  0  0
   -0.5882    3.6722    4.1605 C   0  0  1  0  0  0  0  0  0  0  0  0
   -0.8005    4.7686    3.2668 O   0  0  0  0  0  0  0  0  0  0  0  0
   -1.5288    2.5312    3.7106 C   0  0  1  0  0  0  0  0  0  0  0  0
   -1.0174    1.7660    2.4975 C   0  0  0  0  0  0  0  0  0  0  0  0
   -0.2049    0.7320    3.0399 O   0  0  0  0  0  0  0  0  0  0  0  0
   -0.4410    0.5410    4.4277 C   0  0  2  0  0  0  0  0  0  0  0  0
   -1.6920    1.3748    4.6915 C   0  0  1  0  0  0  0  0  0  0  0  0
   -1.9607    1.6899    6.0477 O   0  0  0  0  0  0  0  0  0  0  0  0
    0.8058    0.8567    5.3246 C   0  0  1  0  0  0  0  0  0  0  0  0
    1.8927   -0.2390    5.3586 C   0  0  1  0  0  0  0  0  0  0  0  0
    1.5600    2.2143    5.1343 C   0  0  1  0  0  0  0  0  0  0  0  0
    0.7464   -2.7919    4.6970 H   0  0  0  0  0  0  0  0  0  0  0  0
    0.8586   -4.1437    3.6046 H   0  0  0  0  0  0  0  0  0  0  0  0
    0.5357   -2.5548    2.9520 H   0  0  0  0  0  0  0  0  0  0  0  0
    1.4395   -0.6354    3.2042 H   0  0  0  0  0  0  0  0  0  0  0  0
    3.9058    0.6518    2.8668 H   0  0  0  0  0  0  0  0  0  0  0  0
    1.3344    1.4641    2.4075 H   0  0  0  0  0  0  0  0  0  0  0  0
    3.5357    2.8112    4.1043 H   0  0  0  0  0  0  0  0  0  0  0  0
    5.8095    0.9573    4.0989 H   0  0  0  0  0  0  0  0  0  0  0  0
    5.0444   -0.5744    4.4404 H   0  0  0  0  0  0  0  0  0  0  0  0
    6.0130    0.1720    5.6612 H   0  0  0  0  0  0  0  0  0  0  0  0
    5.5881    2.7435    5.6831 H   0  0  0  0  0  0  0  0  0  0  0  0
    5.3442    1.8699    7.1553 H   0  0  0  0  0  0  0  0  0  0  0  0
    4.1837    3.1040    6.5949 H   0  0  0  0  0  0  0  0  0  0  0  0
    4.0811    0.5027    8.0100 H   0  0  0  0  0  0  0  0  0  0  0  0
    1.0492    0.4493    8.0884 H   0  0  0  0  0  0  0  0  0  0  0  0
    2.2089    0.7761    9.3374 H   0  0  0  0  0  0  0  0  0  0  0  0
    0.2162    3.6973    7.7493 H   0  0  0  0  0  0  0  0  0  0  0  0
    1.0436    5.4839    5.0096 H   0  0  0  0  0  0  0  0  0  0  0  0
    2.5867    4.8453    4.4295 H   0  0  0  0  0  0  0  0  0  0  0  0
    1.3192    3.3471    3.2651 H   0  0  0  0  0  0  0  0  0  0  0  0
   -0.9815    4.0387    5.1035 H   0  0  0  0  0  0  0  0  0  0  0  0
   -0.4408    4.5582    2.3945 H   0  0  0  0  0  0  0  0  0  0  0  0
   -2.5119    2.9515    3.5004 H   0  0  0  0  0  0  0  0  0  0  0  0
   -1.8385    1.3110    1.9341 H   0  0  0  0  0  0  0  0  0  0  0  0
   -0.4302    2.3750    1.8030 H   0  0  0  0  0  0  0  0  0  0  0  0
   -0.6930   -0.5105    4.5947 H   0  0  0  0  0  0  0  0  0  0  0  0
   -2.5487    0.7802    4.3562 H   0  0  0  0  0  0  0  0  0  0  0  0
   -1.2774    2.2612    6.3639 H   0  0  0  0  0  0  0  0  0  0  0  0
    0.3502    0.8116    6.2940 H   0  0  0  0  0  0  0  0  0  0  0  0
    1.4976   -1.1208    5.8596 H   0  0  0  0  0  0  0  0  0  0  0  0
  1  2  1  0
  1 33  1  0
  1 34  1  0
  1 35  1  0
  2  3  2  0
  2  4  1  0
  4  5  1  0
  5 31  1  0
  5  6  1  0
  5 36  1  6
  6  7  1  0
  6  8  1  0
  6 37  1  6
  7 38  1  0
  8 32  1  0
  8  9  1  0
  8 39  1  6
  9 10  1  0
  9 11  1  0
  9 12  1  0
 10 40  1  0
 10 41  1  0
 10 42  1  0
 11 43  1  0
 11 44  1  0
 11 45  1  0
 12 31  1  0
 12 13  2  3
 13 14  1  0
 13 46  1  0
 14 15  1  0
 14 47  1  0
 14 48  1  0
 15 16  2  0
 15 17  1  0
 32 17  1  1
 17 18  1  1
 17 19  1  0
 18 49  1  0
 19 20  1  0
 20 21  1  0
 20 50  1  0
 20 51  1  0
 21 32  1  0
 21 22  1  0
 21 52  1  6
 22 23  1  0
 22 24  1  0
 22 53  1  1
 23 54  1  0
 24 28  1  0
 24 25  1  0
 24 55  1  6
 25 26  1  0
 25 56  1  0
 25 57  1  0
 26 27  1  0
 27 28  1  0
 27 30  1  0
 27 58  1  6
 28 29  1  0
 28 59  1  6
 29 60  1  0
 30 31  1  0
 30 32  1  0
 30 61  1  1
 31 62  1  1
M  END
>  <i_m_ct_stereo_status>  (174) 
1

>  <s_m_source_file>  (174) 
/var/tmp/pbs.5076255.sched01/tmpmtrcy7mx/460f9z2a7c.sdf

>  <i_m_source_file_index>  (174) 
31

>  <i_lp_mmshare_version>  (174) 
48012

>  <i_f3d_flags>  (174) 
0

>  <s_epik_input>  (174) 
W0NIM11DKD1PKU9bQ0BIXShbQ0BASF0oW09IXSlbQ0BIXTFbQ0BAXTIzNClbQ0BIXTVDKFxDMShbQ0gzXSlbQ0gzXSk9W0NIXS9bQ0gyXUMoPU8pW0NAQF0yKFtPSF0pT1tDSDJdW0NAQEhdM1tDQEBIXShbT0hdKVtDQEhdNltDSDJdT1tDQEBIXShbQ0BIXTQ1KVtDQEhdNltPSF0=

>  <s_epik_cmdline>  (174) 
J2VwaWtfcHl0aG9uJywgJy1waHQnLCAnMi4wJywgJy1waCcsICc3LjAnLCAnLXRuJywgJzgnLCAnLW1hJywgJzIwMCcsICctaW1hZScsICc8aW5maWxlLm1hZT4nLCAnLW9tYWUnLCAnPG91dGZpbGUubWFlPic=

>  <r_lp_tautomer_probability>  (174) 
1

>  <r_epik_Ionization_Penalty>  (174) 
9.49355e-07

>  <r_epik_Ionization_Penalty_Charging>  (174) 
0

>  <r_epik_Ionization_Penalty_Neutral>  (174) 
9.49355e-07

>  <r_epik_State_Penalty>  (174) 
-0

>  <r_epik_Charging_Adjusted_Penalty>  (174) 
0

>  <i_epik_Tot_Q>  (174) 
0

>  <i_epik_Tot_abs_Q>  (174) 
0

>  <s_epik_Chemistry_Notes>  (174) 
This compound has an ester and may undergo hydrolysis at high or low pH.

>  <s_lp_Force_Field>  (174) 
OPLS3e

>  <r_lp_Energy>  (174) 
120.211

>  <b_lp_Chiralities_Consistent>  (174) 
1

>  <s_lp_Variant>  (174) 
41:0-1

>  <s_i_glide_gridfile>  (174) 
pfpi4k_grid

>  <i_i_glide_lignum>  (174) 
31

>  <i_i_glide_rotatable_bonds>  (174) 
6

>  <r_i_docking_score>  (174) 
-3.90542

>  <r_i_glide_ligand_efficiency>  (174) 
-0.122044

>  <r_i_glide_ligand_efficiency_sa>  (174) 
-0.387467

>  <r_i_glide_ligand_efficiency_ln>  (174) 
-0.87453

>  <r_i_glide_gscore>  (174) 
-3.90542

>  <r_i_glide_lipo>  (174) 
-0.137783

>  <r_i_glide_hbond>  (174) 
-0.193505

>  <r_i_glide_metal>  (174) 
-0

>  <r_i_glide_rewards>  (174) 
-1.33888

>  <r_i_glide_evdw>  (174) 
-22.7236

>  <r_i_glide_ecoul>  (174) 
-7.9858

>  <r_i_glide_erotb>  (174) 
0.0987986

>  <r_i_glide_esite>  (174) 
0

>  <r_i_glide_emodel>  (174) 
-46.283

>  <r_i_glide_energy>  (174) 
-30.7094

>  <r_i_glide_einternal>  (174) 
6.68486

>  <r_i_glide_intrahb_reward>  (174) 
-1

>  <i_i_glide_confnum>  (174) 
3

>  <i_i_glide_posenum>  (174) 
34

>  <r_i_glide_eff_state_penalty>  (174) 
0

>  <ligand_id>  (174) 
41

>  <original_smiles>  (174) 
CC(=O)OC1C(O)C2C(C)(C)C3=CCC(=O)C4(O)OCC5C(O)C6COC(C6O)C(C31)C524

>  <smiles>  (174) 
[H]OC12OC([H])([H])C3([H])C([H])(O[H])C4([H])C([H])([H])OC([H])(C4([H])O[H])C4([H])C5([H])C(=C([H])C([H])([H])C1=O)C(C([H])([H])[H])(C([H])([H])[H])C([H])(C([H])(O[H])C5([H])OC(=O)C([H])([H])[H])C234

$$$$
41:0:1
     RDKit          3D

 62 67  0  0  1  0  0  0  0  0999 V2000
    0.2345   -4.3333    5.3404 C   0  0  0  0  0  0  0  0  0  0  0  0
   -0.1819   -2.8762    5.5154 C   0  0  0  0  0  0  0  0  0  0  0  0
   -0.9941   -2.5351    6.3767 O   0  0  0  0  0  0  0  0  0  0  0  0
    0.4287   -2.0612    4.6362 O   0  0  0  0  0  0  0  0  0  0  0  0
    0.1957   -0.6560    4.6261 C   0  0  2  0  0  0  0  0  0  0  0  0
    0.7501    0.0336    3.3309 C   0  0  1  0  0  0  0  0  0  0  0  0
   -0.2570    0.5595    2.4916 O   0  0  0  0  0  0  0  0  0  0  0  0
    1.8497    1.0876    3.7368 C   0  0  2  0  0  0  0  0  0  0  0  0
    2.9612    0.1812    4.3882 C   0  0  0  0  0  0  0  0  0  0  0  0
    3.3190   -1.1917    3.7392 C   0  0  0  0  0  0  0  0  0  0  0  0
    4.3310    0.9037    4.2118 C   0  0  0  0  0  0  0  0  0  0  0  0
    2.3995   -0.0341    5.8055 C   0  0  0  0  0  0  0  0  0  0  0  0
    3.2120    0.2826    6.8256 C   0  0  0  0  0  0  0  0  0  0  0  0
    3.0200    1.5731    7.5745 C   0  0  0  0  0  0  0  0  0  0  0  0
    3.3350    2.7071    6.5693 C   0  0  0  0  0  0  0  0  0  0  0  0
    4.4302    3.2580    6.6261 O   0  0  0  0  0  0  0  0  0  0  0  0
    2.2531    3.2045    5.5306 C   0  0  1  0  0  0  0  0  0  0  0  0
    1.5698    4.1502    6.3238 O   0  0  0  0  0  0  0  0  0  0  0  0
    2.8792    3.8812    4.4941 O   0  0  0  0  0  0  0  0  0  0  0  0
    1.9189    4.1490    3.4668 C   0  0  0  0  0  0  0  0  0  0  0  0
    0.6278    3.3575    3.8013 C   0  0  2  0  0  0  0  0  0  0  0  0
   -0.5226    4.3251    4.2637 C   0  0  1  0  0  0  0  0  0  0  0  0
   -0.9483    5.1324    3.1783 O   0  0  0  0  0  0  0  0  0  0  0  0
   -1.8338    3.7353    4.8114 C   0  0  1  0  0  0  0  0  0  0  0  0
   -2.3765    2.5906    3.9697 C   0  0  0  0  0  0  0  0  0  0  0  0
   -1.8089    1.4217    4.5490 O   0  0  0  0  0  0  0  0  0  0  0  0
   -1.2115    1.6806    5.8127 C   0  0  2  0  0  0  0  0  0  0  0  0
   -1.7615    3.0599    6.1647 C   0  0  1  0  0  0  0  0  0  0  0  0
   -1.0795    3.7642    7.1834 O   0  0  0  0  0  0  0  0  0  0  0  0
    0.3438    1.5226    5.8181 C   0  0  1  0  0  0  0  0  0  0  0  0
    0.8349    0.0504    5.8670 C   0  0  1  0  0  0  0  0  0  0  0  0
    1.2228    2.2467    4.7392 C   0  0  1  0  0  0  0  0  0  0  0  0
   -0.0534   -4.7028    4.3561 H   0  0  0  0  0  0  0  0  0  0  0  0
   -0.2427   -4.9631    6.0904 H   0  0  0  0  0  0  0  0  0  0  0  0
    1.3147   -4.4430    5.4419 H   0  0  0  0  0  0  0  0  0  0  0  0
   -0.8862   -0.5791    4.6386 H   0  0  0  0  0  0  0  0  0  0  0  0
    1.1618   -0.7288    2.6712 H   0  0  0  0  0  0  0  0  0  0  0  0
    0.1171    0.8006    1.6530 H   0  0  0  0  0  0  0  0  0  0  0  0
    2.2622    1.5258    2.8276 H   0  0  0  0  0  0  0  0  0  0  0  0
    3.4359   -1.1048    2.6575 H   0  0  0  0  0  0  0  0  0  0  0  0
    2.6122   -1.9873    3.9308 H   0  0  0  0  0  0  0  0  0  0  0  0
    4.2617   -1.5718    4.1404 H   0  0  0  0  0  0  0  0  0  0  0  0
    4.6647    0.7739    3.1856 H   0  0  0  0  0  0  0  0  0  0  0  0
    5.1376    0.5085    4.8301 H   0  0  0  0  0  0  0  0  0  0  0  0
    4.3003    1.9769    4.3222 H   0  0  0  0  0  0  0  0  0  0  0  0
    4.2686    0.1651    6.6562 H   0  0  0  0  0  0  0  0  0  0  0  0
    2.0533    1.6694    8.0521 H   0  0  0  0  0  0  0  0  0  0  0  0
    3.7590    1.6169    8.3761 H   0  0  0  0  0  0  0  0  0  0  0  0
    1.0072    3.6878    6.9303 H   0  0  0  0  0  0  0  0  0  0  0  0
    1.7378    5.2204    3.3600 H   0  0  0  0  0  0  0  0  0  0  0  0
    2.3576    3.8090    2.5267 H   0  0  0  0  0  0  0  0  0  0  0  0
    0.2721    2.9139    2.8728 H   0  0  0  0  0  0  0  0  0  0  0  0
   -0.1561    5.0506    4.9827 H   0  0  0  0  0  0  0  0  0  0  0  0
   -0.5545    4.8127    2.3615 H   0  0  0  0  0  0  0  0  0  0  0  0
   -2.5673    4.5372    4.8635 H   0  0  0  0  0  0  0  0  0  0  0  0
   -3.4616    2.5422    4.0776 H   0  0  0  0  0  0  0  0  0  0  0  0
   -2.1544    2.6711    2.9034 H   0  0  0  0  0  0  0  0  0  0  0  0
   -1.6113    0.9640    6.5295 H   0  0  0  0  0  0  0  0  0  0  0  0
   -2.7887    2.9291    6.5143 H   0  0  0  0  0  0  0  0  0  0  0  0
   -1.2332    3.3223    8.0075 H   0  0  0  0  0  0  0  0  0  0  0  0
    0.5734    1.9126    6.7950 H   0  0  0  0  0  0  0  0  0  0  0  0
    0.5012   -0.4050    6.7964 H   0  0  0  0  0  0  0  0  0  0  0  0
  1  2  1  0
  1 33  1  0
  1 34  1  0
  1 35  1  0
  2  3  2  0
  2  4  1  0
  4  5  1  0
  5 31  1  0
  5  6  1  0
  5 36  1  1
  6  7  1  0
  6  8  1  0
  6 37  1  6
  7 38  1  0
  8 32  1  0
  8  9  1  0
  8 39  1  6
  9 10  1  0
  9 11  1  0
  9 12  1  0
 10 40  1  0
 10 41  1  0
 10 42  1  0
 11 43  1  0
 11 44  1  0
 11 45  1  0
 12 31  1  0
 12 13  2  3
 13 14  1  0
 13 46  1  0
 14 15  1  0
 14 47  1  0
 14 48  1  0
 15 16  2  0
 15 17  1  0
 32 17  1  1
 17 18  1  1
 17 19  1  0
 18 49  1  0
 19 20  1  0
 20 21  1  0
 20 50  1  0
 20 51  1  0
 21 32  1  0
 21 22  1  0
 21 52  1  6
 22 23  1  0
 22 24  1  0
 22 53  1  1
 23 54  1  0
 24 28  1  0
 24 25  1  0
 24 55  1  1
 25 26  1  0
 25 56  1  0
 25 57  1  0
 26 27  1  0
 27 28  1  0
 27 30  1  0
 27 58  1  1
 28 29  1  0
 28 59  1  1
 29 60  1  0
 30 31  1  0
 30 32  1  0
 30 61  1  1
 31 62  1  1
M  END
>  <i_m_ct_stereo_status>  (175) 
1

>  <s_m_source_file>  (175) 
/var/tmp/pbs.5076255.sched01/tmpmtrcy7mx/460f9z2a7c.sdf

>  <i_m_source_file_index>  (175) 
31

>  <i_lp_mmshare_version>  (175) 
48012

>  <i_f3d_flags>  (175) 
0

>  <s_epik_input>  (175) 
W0NIM11DKD1PKU9bQ0BIXShbQ0BASF0oW09IXSlbQ0BIXTFbQ0BAXTIzNClbQ0BIXTVDKFxDMShbQ0gzXSlbQ0gzXSk9W0NIXS9bQ0gyXUMoPU8pW0NAQF0yKFtPSF0pT1tDSDJdW0NAQEhdM1tDQEBIXShbT0hdKVtDQEhdNltDSDJdT1tDQEBIXShbQ0BIXTQ1KVtDQEhdNltPSF0=

>  <s_epik_cmdline>  (175) 
J2VwaWtfcHl0aG9uJywgJy1waHQnLCAnMi4wJywgJy1waCcsICc3LjAnLCAnLXRuJywgJzgnLCAnLW1hJywgJzIwMCcsICctaW1hZScsICc8aW5maWxlLm1hZT4nLCAnLW9tYWUnLCAnPG91dGZpbGUubWFlPic=

>  <r_lp_tautomer_probability>  (175) 
1

>  <r_epik_Ionization_Penalty>  (175) 
9.49355e-07

>  <r_epik_Ionization_Penalty_Charging>  (175) 
0

>  <r_epik_Ionization_Penalty_Neutral>  (175) 
9.49355e-07

>  <r_epik_State_Penalty>  (175) 
-0

>  <r_epik_Charging_Adjusted_Penalty>  (175) 
0

>  <i_epik_Tot_Q>  (175) 
0

>  <i_epik_Tot_abs_Q>  (175) 
0

>  <s_epik_Chemistry_Notes>  (175) 
This compound has an ester and may undergo hydrolysis at high or low pH.

>  <s_lp_Force_Field>  (175) 
OPLS3e

>  <r_lp_Energy>  (175) 
120.211

>  <b_lp_Chiralities_Consistent>  (175) 
1

>  <s_lp_Variant>  (175) 
41:0-1

>  <s_i_glide_gridfile>  (175) 
pfpi4k_grid

>  <i_i_glide_lignum>  (175) 
31

>  <i_i_glide_rotatable_bonds>  (175) 
6

>  <r_i_docking_score>  (175) 
-3.39269

>  <r_i_glide_ligand_efficiency>  (175) 
-0.106022

>  <r_i_glide_ligand_efficiency_sa>  (175) 
-0.336598

>  <r_i_glide_ligand_efficiency_ln>  (175) 
-0.759717

>  <r_i_glide_gscore>  (175) 
-3.39269

>  <r_i_glide_lipo>  (175) 
-0.0548851

>  <r_i_glide_hbond>  (175) 
-0.317149

>  <r_i_glide_metal>  (175) 
-0

>  <r_i_glide_rewards>  (175) 
-0.837644

>  <r_i_glide_evdw>  (175) 
-24.247

>  <r_i_glide_ecoul>  (175) 
-7.04663

>  <r_i_glide_erotb>  (175) 
0.0987986

>  <r_i_glide_esite>  (175) 
-0.012471

>  <r_i_glide_emodel>  (175) 
-41.202

>  <r_i_glide_energy>  (175) 
-31.2936

>  <r_i_glide_einternal>  (175) 
5.5474

>  <r_i_glide_intrahb_reward>  (175) 
-0.5

>  <i_i_glide_confnum>  (175) 
1

>  <i_i_glide_posenum>  (175) 
36

>  <r_i_glide_eff_state_penalty>  (175) 
0

>  <ligand_id>  (175) 
41

>  <original_smiles>  (175) 
CC(=O)OC1C(O)C2C(C)(C)C3=CCC(=O)C4(O)OCC5C(O)C6COC(C6O)C(C31)C524

>  <smiles>  (175) 
[H]OC12OC([H])([H])C3([H])C([H])(O[H])C4([H])C([H])([H])OC([H])(C4([H])O[H])C4([H])C5([H])C(=C([H])C([H])([H])C1=O)C(C([H])([H])[H])(C([H])([H])[H])C([H])(C([H])(O[H])C5([H])OC(=O)C([H])([H])[H])C234

$$$$
41:0:2
     RDKit          3D

 62 67  0  0  1  0  0  0  0  0999 V2000
    3.7223   -3.8778    3.2303 C   0  0  0  0  0  0  0  0  0  0  0  0
    2.6333   -2.8446    3.5128 C   0  0  0  0  0  0  0  0  0  0  0  0
    1.4482   -3.1665    3.5983 O   0  0  0  0  0  0  0  0  0  0  0  0
    3.1247   -1.5965    3.6463 O   0  0  0  0  0  0  0  0  0  0  0  0
    2.2612   -0.4752    3.8277 C   0  0  2  0  0  0  0  0  0  0  0  0
    2.8909    0.8539    3.2962 C   0  0  1  0  0  0  0  0  0  0  0  0
    2.2269    1.3869    2.1734 O   0  0  0  0  0  0  0  0  0  0  0  0
    3.0283    1.8764    4.4835 C   0  0  2  0  0  0  0  0  0  0  0  0
    4.0395    1.1569    5.4500 C   0  0  0  0  0  0  0  0  0  0  0  0
    5.2652    0.3902    4.8601 C   0  0  0  0  0  0  0  0  0  0  0  0
    4.7897    2.2552    6.2775 C   0  0  0  0  0  0  0  0  0  0  0  0
    3.1167    0.1633    6.1775 C   0  0  0  0  0  0  0  0  0  0  0  0
    3.1338    0.2110    7.5172 C   0  0  0  0  0  0  0  0  0  0  0  0
    2.0250    0.8972    8.2687 C   0  0  0  0  0  0  0  0  0  0  0  0
    2.1317    2.3957    7.9074 C   0  0  0  0  0  0  0  0  0  0  0  0
    2.6602    3.1672    8.7151 O   0  0  0  0  0  0  0  0  0  0  0  0
    1.5209    2.9607    6.5740 C   0  0  1  0  0  0  0  0  0  0  0  0
    0.1987    3.1761    7.0102 O   0  0  0  0  0  0  0  0  0  0  0  0
    2.0836    4.1932    6.2775 O   0  0  0  0  0  0  0  0  0  0  0  0
    1.6714    4.5893    4.9652 C   0  0  0  0  0  0  0  0  0  0  0  0
    0.9482    3.3913    4.2936 C   0  0  2  0  0  0  0  0  0  0  0  0
   -0.5926    3.6717    4.1633 C   0  0  1  0  0  0  0  0  0  0  0  0
   -0.7838    4.7659    3.2811 O   0  0  0  0  0  0  0  0  0  0  0  0
   -1.5423    2.5403    3.7066 C   0  0  1  0  0  0  0  0  0  0  0  0
   -1.0251    1.7717    2.4987 C   0  0  0  0  0  0  0  0  0  0  0  0
   -0.2181    0.7398    3.0457 O   0  0  0  0  0  0  0  0  0  0  0  0
   -0.4603    0.5432    4.4356 C   0  0  2  0  0  0  0  0  0  0  0  0
   -1.7129    1.3870    4.6791 C   0  0  1  0  0  0  0  0  0  0  0  0
   -2.0084    1.7285    6.0160 O   0  0  0  0  0  0  0  0  0  0  0  0
    0.7840    0.8553    5.3260 C   0  0  1  0  0  0  0  0  0  0  0  0
    1.8692   -0.2636    5.3258 C   0  0  1  0  0  0  0  0  0  0  0  0
    1.5474    2.2118    5.1426 C   0  0  1  0  0  0  0  0  0  0  0  0
    4.2418   -3.6517    2.2983 H   0  0  0  0  0  0  0  0  0  0  0  0
    3.2938   -4.8765    3.1412 H   0  0  0  0  0  0  0  0  0  0  0  0
    4.4546   -3.8946    4.0371 H   0  0  0  0  0  0  0  0  0  0  0  0
    1.3898   -0.7164    3.2232 H   0  0  0  0  0  0  0  0  0  0  0  0
    3.8635    0.6356    2.8612 H   0  0  0  0  0  0  0  0  0  0  0  0
    1.3114    1.5221    2.4039 H   0  0  0  0  0  0  0  0  0  0  0  0
    3.5049    2.7751    4.1005 H   0  0  0  0  0  0  0  0  0  0  0  0
    5.7842    0.9517    4.0835 H   0  0  0  0  0  0  0  0  0  0  0  0
    5.0322   -0.5768    4.4316 H   0  0  0  0  0  0  0  0  0  0  0  0
    5.9964    0.1704    5.6430 H   0  0  0  0  0  0  0  0  0  0  0  0
    5.5652    2.7360    5.6825 H   0  0  0  0  0  0  0  0  0  0  0  0
    5.3245    1.8784    7.1464 H   0  0  0  0  0  0  0  0  0  0  0  0
    4.1865    3.0972    6.5782 H   0  0  0  0  0  0  0  0  0  0  0  0
    4.0601    0.5030    7.9809 H   0  0  0  0  0  0  0  0  0  0  0  0
    1.0398    0.4775    8.0961 H   0  0  0  0  0  0  0  0  0  0  0  0
    2.2144    0.7913    9.3341 H   0  0  0  0  0  0  0  0  0  0  0  0
   -0.2993    3.4825    6.2714 H   0  0  0  0  0  0  0  0  0  0  0  0
    1.0585    5.4929    5.0027 H   0  0  0  0  0  0  0  0  0  0  0  0
    2.5754    4.8612    4.4182 H   0  0  0  0  0  0  0  0  0  0  0  0
    1.3118    3.3441    3.2701 H   0  0  0  0  0  0  0  0  0  0  0  0
   -0.9975    4.0587    5.0927 H   0  0  0  0  0  0  0  0  0  0  0  0
   -0.4318    4.5515    2.4030 H   0  0  0  0  0  0  0  0  0  0  0  0
   -2.5222    2.9718    3.4953 H   0  0  0  0  0  0  0  0  0  0  0  0
   -1.8522    1.3214    1.9454 H   0  0  0  0  0  0  0  0  0  0  0  0
   -0.4501    2.3821    1.8058 H   0  0  0  0  0  0  0  0  0  0  0  0
   -0.7179   -0.5032    4.5989 H   0  0  0  0  0  0  0  0  0  0  0  0
   -2.5627    0.7907    4.3433 H   0  0  0  0  0  0  0  0  0  0  0  0
   -2.8118    2.2337    6.0153 H   0  0  0  0  0  0  0  0  0  0  0  0
    0.3334    0.8154    6.3064 H   0  0  0  0  0  0  0  0  0  0  0  0
    1.4561   -1.1819    5.7391 H   0  0  0  0  0  0  0  0  0  0  0  0
  1  2  1  0
  1 33  1  0
  1 34  1  0
  1 35  1  0
  2  3  2  0
  2  4  1  0
  4  5  1  0
  5 31  1  0
  5  6  1  0
  5 36  1  6
  6  7  1  0
  6  8  1  0
  6 37  1  6
  7 38  1  0
  8 32  1  0
  8  9  1  0
  8 39  1  6
  9 10  1  0
  9 11  1  0
  9 12  1  0
 10 40  1  0
 10 41  1  0
 10 42  1  0
 11 43  1  0
 11 44  1  0
 11 45  1  0
 12 31  1  0
 12 13  2  3
 13 14  1  0
 13 46  1  0
 14 15  1  0
 14 47  1  0
 14 48  1  0
 15 16  2  0
 15 17  1  0
 32 17  1  1
 17 18  1  1
 17 19  1  0
 18 49  1  0
 19 20  1  0
 20 21  1  0
 20 50  1  0
 20 51  1  0
 21 32  1  0
 21 22  1  0
 21 52  1  6
 22 23  1  0
 22 24  1  0
 22 53  1  1
 23 54  1  0
 24 28  1  0
 24 25  1  0
 24 55  1  6
 25 26  1  0
 25 56  1  0
 25 57  1  0
 26 27  1  0
 27 28  1  0
 27 30  1  0
 27 58  1  6
 28 29  1  0
 28 59  1  6
 29 60  1  0
 30 31  1  0
 30 32  1  0
 30 61  1  1
 31 62  1  1
M  END
>  <i_m_ct_stereo_status>  (176) 
1

>  <s_m_source_file>  (176) 
/var/tmp/pbs.5076255.sched01/tmpmtrcy7mx/460f9z2a7c.sdf

>  <i_m_source_file_index>  (176) 
31

>  <i_lp_mmshare_version>  (176) 
48012

>  <i_f3d_flags>  (176) 
0

>  <s_epik_input>  (176) 
W0NIM11DKD1PKU9bQ0BIXShbQ0BASF0oW09IXSlbQ0BIXTFbQ0BAXTIzNClbQ0BIXTVDKFxDMShbQ0gzXSlbQ0gzXSk9W0NIXS9bQ0gyXUMoPU8pW0NAQF0yKFtPSF0pT1tDSDJdW0NAQEhdM1tDQEBIXShbT0hdKVtDQEhdNltDSDJdT1tDQEBIXShbQ0BIXTQ1KVtDQEhdNltPSF0=

>  <s_epik_cmdline>  (176) 
J2VwaWtfcHl0aG9uJywgJy1waHQnLCAnMi4wJywgJy1waCcsICc3LjAnLCAnLXRuJywgJzgnLCAnLW1hJywgJzIwMCcsICctaW1hZScsICc8aW5maWxlLm1hZT4nLCAnLW9tYWUnLCAnPG91dGZpbGUubWFlPic=

>  <r_lp_tautomer_probability>  (176) 
1

>  <r_epik_Ionization_Penalty>  (176) 
9.49355e-07

>  <r_epik_Ionization_Penalty_Charging>  (176) 
0

>  <r_epik_Ionization_Penalty_Neutral>  (176) 
9.49355e-07

>  <r_epik_State_Penalty>  (176) 
-0

>  <r_epik_Charging_Adjusted_Penalty>  (176) 
0

>  <i_epik_Tot_Q>  (176) 
0

>  <i_epik_Tot_abs_Q>  (176) 
0

>  <s_epik_Chemistry_Notes>  (176) 
This compound has an ester and may undergo hydrolysis at high or low pH.

>  <s_lp_Force_Field>  (176) 
OPLS3e

>  <r_lp_Energy>  (176) 
120.211

>  <b_lp_Chiralities_Consistent>  (176) 
1

>  <s_lp_Variant>  (176) 
41:0-1

>  <s_i_glide_gridfile>  (176) 
pfpi4k_grid

>  <i_i_glide_lignum>  (176) 
31

>  <i_i_glide_rotatable_bonds>  (176) 
6

>  <r_i_docking_score>  (176) 
-2.99211

>  <r_i_glide_ligand_efficiency>  (176) 
-0.0935034

>  <r_i_glide_ligand_efficiency_sa>  (176) 
-0.296855

>  <r_i_glide_ligand_efficiency_ln>  (176) 
-0.670015

>  <r_i_glide_gscore>  (176) 
-2.99211

>  <r_i_glide_lipo>  (176) 
-0.0905799

>  <r_i_glide_hbond>  (176) 
-0.189629

>  <r_i_glide_metal>  (176) 
-0

>  <r_i_glide_rewards>  (176) 
-0.838809

>  <r_i_glide_evdw>  (176) 
-22.9765

>  <r_i_glide_ecoul>  (176) 
-5.48709

>  <r_i_glide_erotb>  (176) 
0.0987986

>  <r_i_glide_esite>  (176) 
0

>  <r_i_glide_emodel>  (176) 
-40.3067

>  <r_i_glide_energy>  (176) 
-28.4636

>  <r_i_glide_einternal>  (176) 
0.435183

>  <r_i_glide_intrahb_reward>  (176) 
-0.5

>  <i_i_glide_confnum>  (176) 
1

>  <i_i_glide_posenum>  (176) 
22

>  <r_i_glide_eff_state_penalty>  (176) 
0

>  <ligand_id>  (176) 
41

>  <original_smiles>  (176) 
CC(=O)OC1C(O)C2C(C)(C)C3=CCC(=O)C4(O)OCC5C(O)C6COC(C6O)C(C31)C524

>  <smiles>  (176) 
[H]OC12OC([H])([H])C3([H])C([H])(O[H])C4([H])C([H])([H])OC([H])(C4([H])O[H])C4([H])C5([H])C(=C([H])C([H])([H])C1=O)C(C([H])([H])[H])(C([H])([H])[H])C([H])(C([H])(O[H])C5([H])OC(=O)C([H])([H])[H])C234

$$$$
41:1:0
     RDKit          3D

 62 67  0  0  1  0  0  0  0  0999 V2000
   -3.8325    3.8751    2.3894 C   0  0  0  0  0  0  0  0  0  0  0  0
   -2.4856    3.5891    3.0035 C   0  0  0  0  0  0  0  0  0  0  0  0
   -1.7079    4.5070    3.3439 O   0  0  0  0  0  0  0  0  0  0  0  0
   -2.2989    2.2509    3.1994 O   0  0  0  0  0  0  0  0  0  0  0  0
   -1.1551    1.5847    3.7588 C   0  0  2  0  0  0  0  0  0  0  0  0
   -1.4031    0.7316    5.0550 C   0  0  1  0  0  0  0  0  0  0  0  0
   -1.3728   -0.6725    4.8286 O   0  0  0  0  0  0  0  0  0  0  0  0
   -0.4137    1.1780    6.2010 C   0  0  2  0  0  0  0  0  0  0  0  0
   -0.7947    2.6936    6.4097 C   0  0  0  0  0  0  0  0  0  0  0  0
   -2.3082    3.1218    6.3217 C   0  0  0  0  0  0  0  0  0  0  0  0
   -0.5378    3.0732    7.9164 C   0  0  0  0  0  0  0  0  0  0  0  0
   -0.0055    3.3561    5.2510 C   0  0  0  0  0  0  0  0  0  0  0  0
    1.0421    4.2001    5.3309 C   0  0  0  0  0  0  0  0  0  0  0  0
    1.8683    4.4554    6.5562 C   0  0  0  0  0  0  0  0  0  0  0  0
    2.3450    3.1631    7.2840 C   0  0  0  0  0  0  0  0  0  0  0  0
    2.8633    3.3476    8.3886 O   0  0  0  0  0  0  0  0  0  0  0  0
    2.2485    1.6760    6.7419 C   0  0  1  0  0  0  0  0  0  0  0  0
    3.5551    1.5206    6.1874 O   0  0  0  0  0  0  0  0  0  0  0  0
    2.1442    0.8788    7.8739 O   0  0  0  0  0  0  0  0  0  0  0  0
    1.8025   -0.4581    7.5588 C   0  0  0  0  0  0  0  0  0  0  0  0
    1.5571   -0.5212    6.0410 C   0  0  2  0  0  0  0  0  0  0  0  0
    2.7720   -1.2310    5.3298 C   0  0  1  0  0  0  0  0  0  0  0  0
    2.8003   -2.5730    5.7934 O   0  0  0  0  0  0  0  0  0  0  0  0
    2.7933   -1.3613    3.7880 C   0  0  1  0  0  0  0  0  0  0  0  0
    1.4520   -1.7924    3.2093 C   0  0  0  0  0  0  0  0  0  0  0  0
    0.7236   -0.5789    3.0931 O   0  0  0  0  0  0  0  0  0  0  0  0
    1.6009    0.5472    3.0790 C   0  0  2  0  0  0  0  0  0  0  0  0
    2.9972   -0.0680    3.0341 C   0  0  1  0  0  0  0  0  0  0  0  0
    4.0452    0.7452    3.5266 O   0  0  0  0  0  0  0  0  0  0  0  0
    1.3103    1.5291    4.2683 C   0  0  1  0  0  0  0  0  0  0  0  0
    0.0993    2.4565    3.9795 C   0  0  1  0  0  0  0  0  0  0  0  0
    1.1634    0.9734    5.7548 C   0  0  1  0  0  0  0  0  0  0  0  0
   -3.9250    3.4628    1.3656 H   0  0  0  0  0  0  0  0  0  0  0  0
   -3.9302    4.9550    2.3281 H   0  0  0  0  0  0  0  0  0  0  0  0
   -4.6374    3.4915    3.0164 H   0  0  0  0  0  0  0  0  0  0  0  0
   -0.9453    0.8831    2.9628 H   0  0  0  0  0  0  0  0  0  0  0  0
   -2.4293    0.8575    5.3812 H   0  0  0  0  0  0  0  0  0  0  0  0
   -0.5718   -0.8771    4.3770 H   0  0  0  0  0  0  0  0  0  0  0  0
   -0.6438    0.6155    7.1047 H   0  0  0  0  0  0  0  0  0  0  0  0
   -2.9284    2.4374    6.9325 H   0  0  0  0  0  0  0  0  0  0  0  0
   -2.6991    3.1978    5.3593 H   0  0  0  0  0  0  0  0  0  0  0  0
   -2.4081    4.1011    6.8221 H   0  0  0  0  0  0  0  0  0  0  0  0
   -1.4174    2.8761    8.5191 H   0  0  0  0  0  0  0  0  0  0  0  0
   -0.3449    4.1344    8.0302 H   0  0  0  0  0  0  0  0  0  0  0  0
    0.2099    2.4766    8.4278 H   0  0  0  0  0  0  0  0  0  0  0  0
    1.5891    4.4219    4.4275 H   0  0  0  0  0  0  0  0  0  0  0  0
    2.7639    4.9956    6.2486 H   0  0  0  0  0  0  0  0  0  0  0  0
    1.3404    5.1203    7.2358 H   0  0  0  0  0  0  0  0  0  0  0  0
    3.5552    1.9098    5.3414 H   0  0  0  0  0  0  0  0  0  0  0  0
    2.5628   -1.1493    7.9152 H   0  0  0  0  0  0  0  0  0  0  0  0
    0.8903   -0.6901    8.1062 H   0  0  0  0  0  0  0  0  0  0  0  0
    0.7155   -1.1924    5.8865 H   0  0  0  0  0  0  0  0  0  0  0  0
    3.7183   -0.8084    5.6586 H   0  0  0  0  0  0  0  0  0  0  0  0
    3.5837   -2.9779    5.4797 H   0  0  0  0  0  0  0  0  0  0  0  0
    3.5833   -2.0609    3.5078 H   0  0  0  0  0  0  0  0  0  0  0  0
    1.5988   -2.2258    2.2180 H   0  0  0  0  0  0  0  0  0  0  0  0
    0.9143   -2.5156    3.8249 H   0  0  0  0  0  0  0  0  0  0  0  0
    1.4621    1.1037    2.1482 H   0  0  0  0  0  0  0  0  0  0  0  0
    3.2378   -0.3190    1.9965 H   0  0  0  0  0  0  0  0  0  0  0  0
    4.1836    1.4566    2.9183 H   0  0  0  0  0  0  0  0  0  0  0  0
    2.1778    2.1863    4.2276 H   0  0  0  0  0  0  0  0  0  0  0  0
    0.3300    3.0397    3.0787 H   0  0  0  0  0  0  0  0  0  0  0  0
  1  2  1  0
  1 33  1  0
  1 34  1  0
  1 35  1  0
  2  3  2  0
  2  4  1  0
  4  5  1  0
  5 31  1  0
  5  6  1  0
  5 36  1  6
  6  7  1  0
  6  8  1  0
  6 37  1  1
  7 38  1  0
  8 32  1  0
  8  9  1  0
  8 39  1  1
  9 10  1  0
  9 11  1  0
  9 12  1  0
 10 40  1  0
 10 41  1  0
 10 42  1  0
 11 43  1  0
 11 44  1  0
 11 45  1  0
 12 31  1  0
 12 13  2  3
 13 14  1  0
 13 46  1  0
 14 15  1  0
 14 47  1  0
 14 48  1  0
 15 16  2  0
 15 17  1  0
 32 17  1  1
 17 18  1  6
 17 19  1  0
 18 49  1  0
 19 20  1  0
 20 21  1  0
 20 50  1  0
 20 51  1  0
 21 32  1  0
 21 22  1  0
 21 52  1  1
 22 23  1  0
 22 24  1  0
 22 53  1  1
 23 54  1  0
 24 28  1  0
 24 25  1  0
 24 55  1  1
 25 26  1  0
 25 56  1  0
 25 57  1  0
 26 27  1  0
 27 28  1  0
 27 30  1  0
 27 58  1  6
 28 29  1  0
 28 59  1  6
 29 60  1  0
 30 31  1  0
 30 32  1  0
 30 61  1  1
 31 62  1  6
M  END
>  <i_m_ct_stereo_status>  (177) 
1

>  <s_m_source_file>  (177) 
/var/tmp/pbs.5076255.sched01/tmpmtrcy7mx/460f9z2a7c.sdf

>  <i_m_source_file_index>  (177) 
32

>  <i_lp_mmshare_version>  (177) 
48012

>  <i_f3d_flags>  (177) 
0

>  <s_epik_input>  (177) 
W0NIM11DKD1PKU9bQ0BIXShbQ0BASF0oW09IXSlbQ0BIXTFbQ0BAXTIzNClbQ0BIXTVDKFxDMShbQ0gzXSlbQ0gzXSk9W0NIXS9bQ0gyXUMoPU8pW0NAQF0yKFtPSF0pT1tDSDJdW0NAQEhdM1tDQEBIXShbT0hdKVtDQEhdNltDSDJdT1tDQEBIXShbQ0BIXTQ1KVtDQEhdNltPSF0=

>  <s_epik_cmdline>  (177) 
J2VwaWtfcHl0aG9uJywgJy1waHQnLCAnMi4wJywgJy1waCcsICc3LjAnLCAnLXRuJywgJzgnLCAnLW1hJywgJzIwMCcsICctaW1hZScsICc8aW5maWxlLm1hZT4nLCAnLW9tYWUnLCAnPG91dGZpbGUubWFlPic=

>  <r_lp_tautomer_probability>  (177) 
1

>  <r_epik_Ionization_Penalty>  (177) 
9.49355e-07

>  <r_epik_Ionization_Penalty_Charging>  (177) 
0

>  <r_epik_Ionization_Penalty_Neutral>  (177) 
9.49355e-07

>  <r_epik_State_Penalty>  (177) 
-0

>  <r_epik_Charging_Adjusted_Penalty>  (177) 
0

>  <i_epik_Tot_Q>  (177) 
0

>  <i_epik_Tot_abs_Q>  (177) 
0

>  <s_epik_Chemistry_Notes>  (177) 
This compound has an ester and may undergo hydrolysis at high or low pH.

>  <s_lp_Force_Field>  (177) 
OPLS3e

>  <r_lp_Energy>  (177) 
111.205

>  <b_lp_Chiralities_Consistent>  (177) 
1

>  <s_lp_Variant>  (177) 
41:0-2

>  <s_i_glide_gridfile>  (177) 
pfpi4k_grid

>  <i_i_glide_lignum>  (177) 
32

>  <i_i_glide_rotatable_bonds>  (177) 
6

>  <r_i_docking_score>  (177) 
-3.58987

>  <r_i_glide_ligand_efficiency>  (177) 
-0.112184

>  <r_i_glide_ligand_efficiency_sa>  (177) 
-0.356161

>  <r_i_glide_ligand_efficiency_ln>  (177) 
-0.803871

>  <r_i_glide_gscore>  (177) 
-3.58987

>  <r_i_glide_lipo>  (177) 
-0.313347

>  <r_i_glide_hbond>  (177) 
-0.157599

>  <r_i_glide_metal>  (177) 
-0

>  <r_i_glide_rewards>  (177) 
-1.33764

>  <r_i_glide_evdw>  (177) 
-23.193

>  <r_i_glide_ecoul>  (177) 
-4.36544

>  <r_i_glide_erotb>  (177) 
0.0987986

>  <r_i_glide_esite>  (177) 
-0.0656163

>  <r_i_glide_emodel>  (177) 
-38.3932

>  <r_i_glide_energy>  (177) 
-27.5584

>  <r_i_glide_einternal>  (177) 
12.7522

>  <r_i_glide_intrahb_reward>  (177) 
-1

>  <i_i_glide_confnum>  (177) 
3

>  <i_i_glide_posenum>  (177) 
3

>  <r_i_glide_eff_state_penalty>  (177) 
0

>  <ligand_id>  (177) 
41

>  <original_smiles>  (177) 
CC(=O)OC1C(O)C2C(C)(C)C3=CCC(=O)C4(O)OCC5C(O)C6COC(C6O)C(C31)C524

>  <smiles>  (177) 
[H]OC12OC([H])([H])C3([H])C([H])(O[H])C4([H])C([H])([H])OC([H])(C4([H])O[H])C4([H])C5([H])C(=C([H])C([H])([H])C1=O)C(C([H])([H])[H])(C([H])([H])[H])C([H])(C([H])(O[H])C5([H])OC(=O)C([H])([H])[H])C234

$$$$
41:1:1
     RDKit          3D

 62 67  0  0  1  0  0  0  0  0999 V2000
    1.6078   -4.5193    3.2288 C   0  0  0  0  0  0  0  0  0  0  0  0
    1.3898   -3.2076    4.0046 C   0  0  0  0  0  0  0  0  0  0  0  0
    1.4423   -3.1656    5.2310 O   0  0  0  0  0  0  0  0  0  0  0  0
    1.0842   -2.1959    3.1376 O   0  0  0  0  0  0  0  0  0  0  0  0
    0.8395   -0.8064    3.4743 C   0  0  2  0  0  0  0  0  0  0  0  0
    1.6447    0.1969    2.5763 C   0  0  1  0  0  0  0  0  0  0  0  0
    0.8259    0.9211    1.6817 O   0  0  0  0  0  0  0  0  0  0  0  0
    2.5120    1.1622    3.4775 C   0  0  2  0  0  0  0  0  0  0  0  0
    3.4641    0.1543    4.2300 C   0  0  0  0  0  0  0  0  0  0  0  0
    4.0449   -1.0683    3.4562 C   0  0  0  0  0  0  0  0  0  0  0  0
    4.8236    0.8582    4.5234 C   0  0  0  0  0  0  0  0  0  0  0  0
    2.5198   -0.3281    5.3751 C   0  0  0  0  0  0  0  0  0  0  0  0
    2.6557   -0.1076    6.6935 C   0  0  0  0  0  0  0  0  0  0  0  0
    3.5680    0.8947    7.3246 C   0  0  0  0  0  0  0  0  0  0  0  0
    3.4689    2.3178    6.7159 C   0  0  0  0  0  0  0  0  0  0  0  0
    4.3122    3.1277    7.1040 O   0  0  0  0  0  0  0  0  0  0  0  0
    2.3791    2.8417    5.6760 C   0  0  1  0  0  0  0  0  0  0  0  0
    1.4730    3.4600    6.5618 O   0  0  0  0  0  0  0  0  0  0  0  0
    3.0355    3.8277    4.9509 O   0  0  0  0  0  0  0  0  0  0  0  0
    2.3016    4.2129    3.8006 C   0  0  0  0  0  0  0  0  0  0  0  0
    1.0545    3.3193    3.7330 C   0  0  2  0  0  0  0  0  0  0  0  0
   -0.2097    4.1409    4.1970 C   0  0  1  0  0  0  0  0  0  0  0  0
   -0.4067    5.2216    3.2961 O   0  0  0  0  0  0  0  0  0  0  0  0
   -1.5783    3.4368    4.2923 C   0  0  1  0  0  0  0  0  0  0  0  0
   -1.8697    2.5347    3.0978 C   0  0  0  0  0  0  0  0  0  0  0  0
   -1.2877    1.2858    3.4451 O   0  0  0  0  0  0  0  0  0  0  0  0
   -1.0059    1.2140    4.8398 C   0  0  2  0  0  0  0  0  0  0  0  0
   -1.7115    2.4417    5.4203 C   0  0  1  0  0  0  0  0  0  0  0  0
   -1.2877    2.8801    6.6969 O   0  0  0  0  0  0  0  0  0  0  0  0
    0.5143    1.0690    5.1541 C   0  0  1  0  0  0  0  0  0  0  0  0
    1.0277   -0.3924    4.9597 C   0  0  1  0  0  0  0  0  0  0  0  0
    1.5825    2.0490    4.5092 C   0  0  1  0  0  0  0  0  0  0  0  0
    0.6842   -4.9133    2.7765 H   0  0  0  0  0  0  0  0  0  0  0  0
    1.9888   -5.2534    3.9283 H   0  0  0  0  0  0  0  0  0  0  0  0
    2.3597   -4.3467    2.4546 H   0  0  0  0  0  0  0  0  0  0  0  0
   -0.2056   -0.6757    3.2332 H   0  0  0  0  0  0  0  0  0  0  0  0
    2.2876   -0.3613    1.8904 H   0  0  0  0  0  0  0  0  0  0  0  0
    0.6276    0.3989    0.9086 H   0  0  0  0  0  0  0  0  0  0  0  0
    3.1034    1.8150    2.8284 H   0  0  0  0  0  0  0  0  0  0  0  0
    4.4236   -0.7683    2.4692 H   0  0  0  0  0  0  0  0  0  0  0  0
    3.3678   -1.8884    3.3418 H   0  0  0  0  0  0  0  0  0  0  0  0
    4.9186   -1.4514    4.0037 H   0  0  0  0  0  0  0  0  0  0  0  0
    5.5060    0.7344    3.6843 H   0  0  0  0  0  0  0  0  0  0  0  0
    5.3341    0.4178    5.3748 H   0  0  0  0  0  0  0  0  0  0  0  0
    4.7574    1.9388    4.5967 H   0  0  0  0  0  0  0  0  0  0  0  0
    1.8144   -0.3441    7.3322 H   0  0  0  0  0  0  0  0  0  0  0  0
    3.2905    0.9761    8.3754 H   0  0  0  0  0  0  0  0  0  0  0  0
    4.5946    0.5203    7.3239 H   0  0  0  0  0  0  0  0  0  0  0  0
    1.9896    4.0471    7.0881 H   0  0  0  0  0  0  0  0  0  0  0  0
    2.0791    5.2756    3.8404 H   0  0  0  0  0  0  0  0  0  0  0  0
    2.9462    4.0551    2.9398 H   0  0  0  0  0  0  0  0  0  0  0  0
    0.8822    3.0778    2.6851 H   0  0  0  0  0  0  0  0  0  0  0  0
   -0.0277    4.6343    5.1474 H   0  0  0  0  0  0  0  0  0  0  0  0
   -0.2034    4.9252    2.4127 H   0  0  0  0  0  0  0  0  0  0  0  0
   -2.3543    4.1959    4.4031 H   0  0  0  0  0  0  0  0  0  0  0  0
   -2.9483    2.4035    3.0032 H   0  0  0  0  0  0  0  0  0  0  0  0
   -1.4807    2.9128    2.1508 H   0  0  0  0  0  0  0  0  0  0  0  0
   -1.5063    0.3328    5.2311 H   0  0  0  0  0  0  0  0  0  0  0  0
   -2.7695    2.2078    5.5211 H   0  0  0  0  0  0  0  0  0  0  0  0
   -0.3599    3.0918    6.6523 H   0  0  0  0  0  0  0  0  0  0  0  0
    0.5226    1.2285    6.2331 H   0  0  0  0  0  0  0  0  0  0  0  0
    0.4281   -1.0113    5.6348 H   0  0  0  0  0  0  0  0  0  0  0  0
  1  2  1  0
  1 33  1  0
  1 34  1  0
  1 35  1  0
  2  3  2  0
  2  4  1  0
  4  5  1  0
  5 31  1  0
  5  6  1  0
  5 36  1  6
  6  7  1  0
  6  8  1  0
  6 37  1  6
  7 38  1  0
  8 32  1  0
  8  9  1  0
  8 39  1  6
  9 10  1  0
  9 11  1  0
  9 12  1  0
 10 40  1  0
 10 41  1  0
 10 42  1  0
 11 43  1  0
 11 44  1  0
 11 45  1  0
 12 31  1  0
 12 13  2  3
 13 14  1  0
 13 46  1  0
 14 15  1  0
 14 47  1  0
 14 48  1  0
 15 16  2  0
 15 17  1  0
 32 17  1  1
 17 18  1  1
 17 19  1  0
 18 49  1  0
 19 20  1  0
 20 21  1  0
 20 50  1  0
 20 51  1  0
 21 32  1  0
 21 22  1  0
 21 52  1  6
 22 23  1  0
 22 24  1  0
 22 53  1  1
 23 54  1  0
 24 28  1  0
 24 25  1  0
 24 55  1  1
 25 26  1  0
 25 56  1  0
 25 57  1  0
 26 27  1  0
 27 28  1  0
 27 30  1  0
 27 58  1  1
 28 29  1  0
 28 59  1  1
 29 60  1  0
 30 31  1  0
 30 32  1  0
 30 61  1  1
 31 62  1  1
M  END
>  <i_m_ct_stereo_status>  (178) 
1

>  <s_m_source_file>  (178) 
/var/tmp/pbs.5076255.sched01/tmpmtrcy7mx/460f9z2a7c.sdf

>  <i_m_source_file_index>  (178) 
32

>  <i_lp_mmshare_version>  (178) 
48012

>  <i_f3d_flags>  (178) 
0

>  <s_epik_input>  (178) 
W0NIM11DKD1PKU9bQ0BIXShbQ0BASF0oW09IXSlbQ0BIXTFbQ0BAXTIzNClbQ0BIXTVDKFxDMShbQ0gzXSlbQ0gzXSk9W0NIXS9bQ0gyXUMoPU8pW0NAQF0yKFtPSF0pT1tDSDJdW0NAQEhdM1tDQEBIXShbT0hdKVtDQEhdNltDSDJdT1tDQEBIXShbQ0BIXTQ1KVtDQEhdNltPSF0=

>  <s_epik_cmdline>  (178) 
J2VwaWtfcHl0aG9uJywgJy1waHQnLCAnMi4wJywgJy1waCcsICc3LjAnLCAnLXRuJywgJzgnLCAnLW1hJywgJzIwMCcsICctaW1hZScsICc8aW5maWxlLm1hZT4nLCAnLW9tYWUnLCAnPG91dGZpbGUubWFlPic=

>  <r_lp_tautomer_probability>  (178) 
1

>  <r_epik_Ionization_Penalty>  (178) 
9.49355e-07

>  <r_epik_Ionization_Penalty_Charging>  (178) 
0

>  <r_epik_Ionization_Penalty_Neutral>  (178) 
9.49355e-07

>  <r_epik_State_Penalty>  (178) 
-0

>  <r_epik_Charging_Adjusted_Penalty>  (178) 
0

>  <i_epik_Tot_Q>  (178) 
0

>  <i_epik_Tot_abs_Q>  (178) 
0

>  <s_epik_Chemistry_Notes>  (178) 
This compound has an ester and may undergo hydrolysis at high or low pH.

>  <s_lp_Force_Field>  (178) 
OPLS3e

>  <r_lp_Energy>  (178) 
111.205

>  <b_lp_Chiralities_Consistent>  (178) 
1

>  <s_lp_Variant>  (178) 
41:0-2

>  <s_i_glide_gridfile>  (178) 
pfpi4k_grid

>  <i_i_glide_lignum>  (178) 
32

>  <i_i_glide_rotatable_bonds>  (178) 
6

>  <r_i_docking_score>  (178) 
-3.28887

>  <r_i_glide_ligand_efficiency>  (178) 
-0.102777

>  <r_i_glide_ligand_efficiency_sa>  (178) 
-0.326298

>  <r_i_glide_ligand_efficiency_ln>  (178) 
-0.736468

>  <r_i_glide_gscore>  (178) 
-3.28887

>  <r_i_glide_lipo>  (178) 
-0.0850351

>  <r_i_glide_hbond>  (178) 
-0.168303

>  <r_i_glide_metal>  (178) 
-0

>  <r_i_glide_rewards>  (178) 
-0.873481

>  <r_i_glide_evdw>  (178) 
-25.7453

>  <r_i_glide_ecoul>  (178) 
-6.4906

>  <r_i_glide_erotb>  (178) 
0.0987986

>  <r_i_glide_esite>  (178) 
0

>  <r_i_glide_emodel>  (178) 
-37.8998

>  <r_i_glide_energy>  (178) 
-32.2359

>  <r_i_glide_einternal>  (178) 
11.721

>  <r_i_glide_intrahb_reward>  (178) 
-0.5

>  <i_i_glide_confnum>  (178) 
1

>  <i_i_glide_posenum>  (178) 
30

>  <r_i_glide_eff_state_penalty>  (178) 
0

>  <ligand_id>  (178) 
41

>  <original_smiles>  (178) 
CC(=O)OC1C(O)C2C(C)(C)C3=CCC(=O)C4(O)OCC5C(O)C6COC(C6O)C(C31)C524

>  <smiles>  (178) 
[H]OC12OC([H])([H])C3([H])C([H])(O[H])C4([H])C([H])([H])OC([H])(C4([H])O[H])C4([H])C5([H])C(=C([H])C([H])([H])C1=O)C(C([H])([H])[H])(C([H])([H])[H])C([H])(C([H])(O[H])C5([H])OC(=O)C([H])([H])[H])C234

$$$$
41:1:2
     RDKit          3D

 62 67  0  0  1  0  0  0  0  0999 V2000
    1.9275   -3.5415    4.7892 C   0  0  0  0  0  0  0  0  0  0  0  0
    1.1371   -2.2371    4.8518 C   0  0  0  0  0  0  0  0  0  0  0  0
   -0.0835   -2.2317    5.0274 O   0  0  0  0  0  0  0  0  0  0  0  0
    1.9206   -1.1504    4.6966 O   0  0  0  0  0  0  0  0  0  0  0  0
    1.3719    0.1648    4.6413 C   0  0  2  0  0  0  0  0  0  0  0  0
    2.2444    1.1438    3.8007 C   0  0  1  0  0  0  0  0  0  0  0  0
    1.6447    1.5017    2.5746 O   0  0  0  0  0  0  0  0  0  0  0  0
    2.6587    2.3782    4.6796 C   0  0  2  0  0  0  0  0  0  0  0  0
    3.5051    1.7449    5.8452 C   0  0  0  0  0  0  0  0  0  0  0  0
    4.4301    0.5182    5.5565 C   0  0  0  0  0  0  0  0  0  0  0  0
    4.6132    2.7542    6.2780 C   0  0  0  0  0  0  0  0  0  0  0  0
    2.3842    1.2679    6.8007 C   0  0  0  0  0  0  0  0  0  0  0  0
    2.1225    1.7421    8.0319 C   0  0  0  0  0  0  0  0  0  0  0  0
    2.6515    3.0159    8.6196 C   0  0  0  0  0  0  0  0  0  0  0  0
    2.5038    4.2533    7.7024 C   0  0  0  0  0  0  0  0  0  0  0  0
    3.0470    5.2855    8.0959 O   0  0  0  0  0  0  0  0  0  0  0  0
    1.6712    4.3386    6.3471 C   0  0  1  0  0  0  0  0  0  0  0  0
    0.4730    4.8980    6.8316 O   0  0  0  0  0  0  0  0  0  0  0  0
    2.3307    5.3046    5.5912 O   0  0  0  0  0  0  0  0  0  0  0  0
    1.8740    5.3194    4.2459 C   0  0  0  0  0  0  0  0  0  0  0  0
    0.8633    4.1694    4.0910 C   0  0  2  0  0  0  0  0  0  0  0  0
   -0.5938    4.7464    4.0420 C   0  0  1  0  0  0  0  0  0  0  0  0
   -0.7405    5.5797    2.9055 O   0  0  0  0  0  0  0  0  0  0  0  0
   -1.7956    3.7864    3.9593 C   0  0  1  0  0  0  0  0  0  0  0  0
   -1.6032    2.6486    2.9711 C   0  0  0  0  0  0  0  0  0  0  0  0
   -0.8984    1.6695    3.7149 O   0  0  0  0  0  0  0  0  0  0  0  0
   -1.0419    1.8756    5.1176 C   0  0  2  0  0  0  0  0  0  0  0  0
   -2.0755    2.9957    5.2107 C   0  0  1  0  0  0  0  0  0  0  0  0
   -2.1437    3.7363    6.4099 O   0  0  0  0  0  0  0  0  0  0  0  0
    0.3246    2.1237    5.8223 C   0  0  1  0  0  0  0  0  0  0  0  0
    1.1165    0.7905    6.0524 C   0  0  1  0  0  0  0  0  0  0  0  0
    1.3472    3.1972    5.2356 C   0  0  1  0  0  0  0  0  0  0  0  0
    2.4330   -3.6441    3.8279 H   0  0  0  0  0  0  0  0  0  0  0  0
    1.2680   -4.3999    4.9164 H   0  0  0  0  0  0  0  0  0  0  0  0
    2.6809   -3.5725    5.5763 H   0  0  0  0  0  0  0  0  0  0  0  0
    0.4318    0.0153    4.1230 H   0  0  0  0  0  0  0  0  0  0  0  0
    3.1249    0.6110    3.4480 H   0  0  0  0  0  0  0  0  0  0  0  0
    0.8488    1.9831    2.7575 H   0  0  0  0  0  0  0  0  0  0  0  0
    3.3086    3.0139    4.0788 H   0  0  0  0  0  0  0  0  0  0  0  0
    4.9808    0.6185    4.6179 H   0  0  0  0  0  0  0  0  0  0  0  0
    3.9183   -0.4357    5.5582 H   0  0  0  0  0  0  0  0  0  0  0  0
    5.1746    0.3996    6.3491 H   0  0  0  0  0  0  0  0  0  0  0  0
    5.5202    2.6222    5.6844 H   0  0  0  0  0  0  0  0  0  0  0  0
    4.9421    2.6187    7.3058 H   0  0  0  0  0  0  0  0  0  0  0  0
    4.3747    3.7951    6.0783 H   0  0  0  0  0  0  0  0  0  0  0  0
    1.1996    1.4365    8.4954 H   0  0  0  0  0  0  0  0  0  0  0  0
    2.0734    3.2235    9.5192 H   0  0  0  0  0  0  0  0  0  0  0  0
    3.6811    2.8957    8.9526 H   0  0  0  0  0  0  0  0  0  0  0  0
    0.7163    5.6544    7.3403 H   0  0  0  0  0  0  0  0  0  0  0  0
    1.4685    6.2993    3.9861 H   0  0  0  0  0  0  0  0  0  0  0  0
    2.7457    5.1637    3.6075 H   0  0  0  0  0  0  0  0  0  0  0  0
    1.0346    3.7430    3.1084 H   0  0  0  0  0  0  0  0  0  0  0  0
   -0.7635    5.4188    4.8767 H   0  0  0  0  0  0  0  0  0  0  0  0
   -0.3816    5.1206    2.1369 H   0  0  0  0  0  0  0  0  0  0  0  0
   -2.6788    4.3615    3.6935 H   0  0  0  0  0  0  0  0  0  0  0  0
   -2.5724    2.2499    2.6611 H   0  0  0  0  0  0  0  0  0  0  0  0
   -1.0463    2.9372    2.0811 H   0  0  0  0  0  0  0  0  0  0  0  0
   -1.4764    0.9777    5.5573 H   0  0  0  0  0  0  0  0  0  0  0  0
   -3.0598    2.5473    5.0874 H   0  0  0  0  0  0  0  0  0  0  0  0
   -2.2694    3.1415    7.1340 H   0  0  0  0  0  0  0  0  0  0  0  0
    0.0219    2.4530    6.8121 H   0  0  0  0  0  0  0  0  0  0  0  0
    0.5478    0.1027    6.6784 H   0  0  0  0  0  0  0  0  0  0  0  0
  1  2  1  0
  1 33  1  0
  1 34  1  0
  1 35  1  0
  2  3  2  0
  2  4  1  0
  4  5  1  0
  5 31  1  0
  5  6  1  0
  5 36  1  6
  6  7  1  0
  6  8  1  0
  6 37  1  6
  7 38  1  0
  8 32  1  0
  8  9  1  0
  8 39  1  6
  9 10  1  0
  9 11  1  0
  9 12  1  0
 10 40  1  0
 10 41  1  0
 10 42  1  0
 11 43  1  0
 11 44  1  0
 11 45  1  0
 12 31  1  0
 12 13  2  3
 13 14  1  0
 13 46  1  0
 14 15  1  0
 14 47  1  0
 14 48  1  0
 15 16  2  0
 15 17  1  0
 32 17  1  1
 17 18  1  1
 17 19  1  0
 18 49  1  0
 19 20  1  0
 20 21  1  0
 20 50  1  0
 20 51  1  0
 21 32  1  0
 21 22  1  0
 21 52  1  6
 22 23  1  0
 22 24  1  0
 22 53  1  1
 23 54  1  0
 24 28  1  0
 24 25  1  0
 24 55  1  6
 25 26  1  0
 25 56  1  0
 25 57  1  0
 26 27  1  0
 27 28  1  0
 27 30  1  0
 27 58  1  1
 28 29  1  0
 28 59  1  6
 29 60  1  0
 30 31  1  0
 30 32  1  0
 30 61  1  1
 31 62  1  1
M  END
>  <i_m_ct_stereo_status>  (179) 
1

>  <s_m_source_file>  (179) 
/var/tmp/pbs.5076255.sched01/tmpmtrcy7mx/460f9z2a7c.sdf

>  <i_m_source_file_index>  (179) 
32

>  <i_lp_mmshare_version>  (179) 
48012

>  <i_f3d_flags>  (179) 
0

>  <s_epik_input>  (179) 
W0NIM11DKD1PKU9bQ0BIXShbQ0BASF0oW09IXSlbQ0BIXTFbQ0BAXTIzNClbQ0BIXTVDKFxDMShbQ0gzXSlbQ0gzXSk9W0NIXS9bQ0gyXUMoPU8pW0NAQF0yKFtPSF0pT1tDSDJdW0NAQEhdM1tDQEBIXShbT0hdKVtDQEhdNltDSDJdT1tDQEBIXShbQ0BIXTQ1KVtDQEhdNltPSF0=

>  <s_epik_cmdline>  (179) 
J2VwaWtfcHl0aG9uJywgJy1waHQnLCAnMi4wJywgJy1waCcsICc3LjAnLCAnLXRuJywgJzgnLCAnLW1hJywgJzIwMCcsICctaW1hZScsICc8aW5maWxlLm1hZT4nLCAnLW9tYWUnLCAnPG91dGZpbGUubWFlPic=

>  <r_lp_tautomer_probability>  (179) 
1

>  <r_epik_Ionization_Penalty>  (179) 
9.49355e-07

>  <r_epik_Ionization_Penalty_Charging>  (179) 
0

>  <r_epik_Ionization_Penalty_Neutral>  (179) 
9.49355e-07

>  <r_epik_State_Penalty>  (179) 
-0

>  <r_epik_Charging_Adjusted_Penalty>  (179) 
0

>  <i_epik_Tot_Q>  (179) 
0

>  <i_epik_Tot_abs_Q>  (179) 
0

>  <s_epik_Chemistry_Notes>  (179) 
This compound has an ester and may undergo hydrolysis at high or low pH.

>  <s_lp_Force_Field>  (179) 
OPLS3e

>  <r_lp_Energy>  (179) 
111.205

>  <b_lp_Chiralities_Consistent>  (179) 
1

>  <s_lp_Variant>  (179) 
41:0-2

>  <s_i_glide_gridfile>  (179) 
pfpi4k_grid

>  <i_i_glide_lignum>  (179) 
32

>  <i_i_glide_rotatable_bonds>  (179) 
6

>  <r_i_docking_score>  (179) 
-2.98822

>  <r_i_glide_ligand_efficiency>  (179) 
-0.0933818

>  <r_i_glide_ligand_efficiency_sa>  (179) 
-0.296469

>  <r_i_glide_ligand_efficiency_ln>  (179) 
-0.669144

>  <r_i_glide_gscore>  (179) 
-2.98822

>  <r_i_glide_lipo>  (179) 
-0.0199505

>  <r_i_glide_hbond>  (179) 
-0.274003

>  <r_i_glide_metal>  (179) 
-0

>  <r_i_glide_rewards>  (179) 
-0.837644

>  <r_i_glide_evdw>  (179) 
-21.029

>  <r_i_glide_ecoul>  (179) 
-6.02623

>  <r_i_glide_erotb>  (179) 
0.0987986

>  <r_i_glide_esite>  (179) 
-3.52307e-05

>  <r_i_glide_emodel>  (179) 
-37.7514

>  <r_i_glide_energy>  (179) 
-27.0552

>  <r_i_glide_einternal>  (179) 
2.56689

>  <r_i_glide_intrahb_reward>  (179) 
-0.5

>  <i_i_glide_confnum>  (179) 
1

>  <i_i_glide_posenum>  (179) 
6

>  <r_i_glide_eff_state_penalty>  (179) 
0

>  <ligand_id>  (179) 
41

>  <original_smiles>  (179) 
CC(=O)OC1C(O)C2C(C)(C)C3=CCC(=O)C4(O)OCC5C(O)C6COC(C6O)C(C31)C524

>  <smiles>  (179) 
[H]OC12OC([H])([H])C3([H])C([H])(O[H])C4([H])C([H])([H])OC([H])(C4([H])O[H])C4([H])C5([H])C(=C([H])C([H])([H])C1=O)C(C([H])([H])[H])(C([H])([H])[H])C([H])(C([H])(O[H])C5([H])OC(=O)C([H])([H])[H])C234

$$$$
42:0:0
     RDKit          3D

 61 66  0  0  1  0  0  0  0  0999 V2000
    1.3560    0.7948    9.5285 C   0  0  0  0  0  0  0  0  0  0  0  0
    1.4247    1.8068    8.3636 C   0  0  0  0  0  0  0  0  0  0  0  0
    1.9535    3.1665    8.8672 C   0  0  0  0  0  0  0  0  0  0  0  0
    2.5107    1.2781    7.4040 C   0  0  0  0  0  0  0  0  0  0  0  0
    0.0551    1.9644    7.7026 C   0  0  0  0  0  0  0  0  0  0  0  0
   -0.3716    1.7091    6.4083 C   0  0  0  0  0  0  0  0  0  0  0  0
    0.3077    1.1852    5.2262 C   0  0  0  0  0  0  0  0  0  0  0  0
    0.5493    2.0148    4.1122 C   0  0  0  0  0  0  0  0  0  0  0  0
    1.2528    1.5177    2.9975 C   0  0  0  0  0  0  0  0  0  0  0  0
    1.7204    0.1861    2.9854 C   0  0  0  0  0  0  0  0  0  0  0  0
    2.4488   -0.2154    1.8897 O   0  0  0  0  0  0  0  0  0  0  0  0
    2.7099   -1.5760    1.7320 C   0  0  2  0  0  0  0  0  0  0  0  0
    4.0421   -1.9825    2.4488 C   0  0  0  0  0  0  0  0  0  0  0  0
    5.1342   -2.4894    1.4758 C   0  0  2  0  0  0  0  0  0  0  0  0
    5.5213   -1.4556    0.4144 C   0  0  1  0  0  0  0  0  0  0  0  0
    6.3618   -2.2882   -0.5713 C   0  0  0  0  0  0  0  0  0  0  0  0
    5.7945   -3.7123   -0.4778 C   0  0  0  0  0  0  0  0  0  0  0  0
    4.6602   -3.6290    0.5599 C   0  0  2  0  0  0  0  0  0  0  0  0
    3.3106   -3.2076   -0.0915 C   0  0  0  0  0  0  0  0  0  0  0  0
    3.0392   -1.7662    0.1785 N   0  0  2  0  0  0  0  0  0  0  0  0
    4.2107   -0.9264   -0.2349 C   0  0  0  0  0  0  0  0  0  0  0  0
    1.4338   -0.6550    4.0874 C   0  0  0  0  0  0  0  0  0  0  0  0
    0.7136   -0.1605    5.1854 C   0  0  0  0  0  0  0  0  0  0  0  0
   -1.7129    2.0114    6.2586 N   0  0  0  0  0  0  0  0  0  0  0  0
   -2.1248    2.4838    7.4225 C   0  0  0  0  0  0  0  0  0  0  0  0
   -3.3865    2.9455    7.8440 C   0  0  0  0  0  0  0  0  0  0  0  0
   -3.5141    3.3470    9.1438 C   0  0  0  0  0  0  0  0  0  0  0  0
   -2.4937    3.3166   10.0515 N   0  0  0  0  0  0  0  0  0  0  0  0
   -1.3280    2.8835    9.6585 C   0  0  0  0  0  0  0  0  0  0  0  0
   -1.0785    2.4593    8.3756 N   0  0  0  0  0  0  0  0  0  0  0  0
    2.3438    0.6200    9.9594 H   0  0  0  0  0  0  0  0  0  0  0  0
    0.9769   -0.1714    9.1889 H   0  0  0  0  0  0  0  0  0  0  0  0
    0.7180    1.1215   10.3476 H   0  0  0  0  0  0  0  0  0  0  0  0
    1.3499    3.5994    9.6619 H   0  0  0  0  0  0  0  0  0  0  0  0
    1.9948    3.8944    8.0546 H   0  0  0  0  0  0  0  0  0  0  0  0
    2.9652    3.0719    9.2664 H   0  0  0  0  0  0  0  0  0  0  0  0
    3.4854    1.2070    7.8863 H   0  0  0  0  0  0  0  0  0  0  0  0
    2.6304    1.9192    6.5287 H   0  0  0  0  0  0  0  0  0  0  0  0
    2.2978    0.2650    7.0787 H   0  0  0  0  0  0  0  0  0  0  0  0
    0.2025    3.0378    4.1140 H   0  0  0  0  0  0  0  0  0  0  0  0
    1.4356    2.1702    2.1522 H   0  0  0  0  0  0  0  0  0  0  0  0
    1.8498   -2.2060    1.9825 H   0  0  0  0  0  0  0  0  0  0  0  0
    4.4201   -1.1413    3.0366 H   0  0  0  0  0  0  0  0  0  0  0  0
    3.8083   -2.7738    3.1611 H   0  0  0  0  0  0  0  0  0  0  0  0
    6.0144   -2.8013    2.0322 H   0  0  0  0  0  0  0  0  0  0  0  0
    6.1056   -0.6321    0.8316 H   0  0  0  0  0  0  0  0  0  0  0  0
    6.3299   -1.8988   -1.5885 H   0  0  0  0  0  0  0  0  0  0  0  0
    7.4070   -2.2942   -0.2601 H   0  0  0  0  0  0  0  0  0  0  0  0
    5.4540   -4.0916   -1.4418 H   0  0  0  0  0  0  0  0  0  0  0  0
    6.5723   -4.3923   -0.1287 H   0  0  0  0  0  0  0  0  0  0  0  0
    4.5517   -4.5744    1.0939 H   0  0  0  0  0  0  0  0  0  0  0  0
    3.3035   -3.3915   -1.1654 H   0  0  0  0  0  0  0  0  0  0  0  0
    2.4964   -3.7960    0.3288 H   0  0  0  0  0  0  0  0  0  0  0  0
    4.0545    0.1073    0.0699 H   0  0  0  0  0  0  0  0  0  0  0  0
    4.2826   -0.9176   -1.3213 H   0  0  0  0  0  0  0  0  0  0  0  0
    1.7874   -1.6727    4.1343 H   0  0  0  0  0  0  0  0  0  0  0  0
    0.5229   -0.8038    6.0292 H   0  0  0  0  0  0  0  0  0  0  0  0
   -4.2178    2.9424    7.1505 H   0  0  0  0  0  0  0  0  0  0  0  0
   -4.4686    3.6780    9.5306 H   0  0  0  0  0  0  0  0  0  0  0  0
   -0.5049    2.8514   10.3607 H   0  0  0  0  0  0  0  0  0  0  0  0
    2.2024   -1.4691   -0.3331 H   0  0  0  0  0  0  0  0  0  0  0  0
  1  2  1  0
  1 31  1  0
  1 32  1  0
  1 33  1  0
  2  3  1  0
  2  4  1  0
  2  5  1  0
  3 34  1  0
  3 35  1  0
  3 36  1  0
  4 37  1  0
  4 38  1  0
  4 39  1  0
  5 30  1  0
  5  6  2  0
  6  7  1  0
  6 24  1  0
  7 23  1  0
  7  8  2  0
  8  9  1  0
  8 40  1  0
  9 10  2  0
  9 41  1  0
 10 11  1  0
 10 22  1  0
 11 12  1  0
 12 20  1  0
 12 13  1  0
 12 42  1  1
 13 14  1  0
 13 43  1  0
 13 44  1  0
 14 18  1  0
 14 15  1  0
 14 45  1  1
 15 21  1  0
 15 16  1  0
 15 46  1  1
 16 17  1  0
 16 47  1  0
 16 48  1  0
 17 18  1  0
 17 49  1  0
 17 50  1  0
 18 19  1  0
 18 51  1  1
 19 20  1  0
 19 52  1  0
 19 53  1  0
 20 21  1  0
 20 61  1  6
 21 54  1  0
 21 55  1  0
 22 23  2  0
 22 56  1  0
 23 57  1  0
 24 25  2  0
 25 30  1  0
 25 26  1  0
 26 27  2  0
 26 58  1  0
 27 28  1  0
 27 59  1  0
 28 29  2  0
 29 30  1  0
 29 60  1  0
M  CHG  1  20   1
M  END
>  <i_m_ct_stereo_status>  (180) 
1

>  <s_m_source_file>  (180) 
/var/tmp/pbs.5076255.sched01/tmpmtrcy7mx/460f9z2a7c.sdf

>  <i_m_source_file_index>  (180) 
33

>  <i_lp_mmshare_version>  (180) 
48012

>  <i_f3d_flags>  (180) 
0

>  <s_epik_input>  (180) 
W2NIXTFbY0hdbltjSF1uKGMxMiljKEMoW0NIM10pKFtDSDNdKVtDSDNdKWMobjIpLWMzW2NIXVtjSF1jKFtjSF1bY0hdMylPW0NASF0oW0NIMl00KU4oW0NIMl01KVtDSDJdW0NASF02W0NIMl1bQ0gyXVtDQEBIXTVbQ0BASF00Ng==

>  <s_epik_cmdline>  (180) 
J2VwaWtfcHl0aG9uJywgJy1waHQnLCAnMi4wJywgJy1waCcsICc3LjAnLCAnLXRuJywgJzgnLCAnLW1hJywgJzIwMCcsICctaW1hZScsICc8aW5maWxlLm1hZT4nLCAnLW9tYWUnLCAnPG91dGZpbGUubWFlPic=

>  <r_lp_tautomer_probability>  (180) 
1

>  <r_epik_Ionization_Penalty>  (180) 
0.302206

>  <r_epik_Ionization_Penalty_Charging>  (180) 
0.302206

>  <r_epik_Ionization_Penalty_Neutral>  (180) 
3.09192e-11

>  <r_epik_State_Penalty>  (180) 
0.294821

>  <r_epik_Charging_Adjusted_Penalty>  (180) 
0.597027

>  <i_epik_Tot_Q>  (180) 
1

>  <i_epik_Tot_abs_Q>  (180) 
1

>  <s_epik_Chemistry_Notes>  (180) 
This compound contains an acetal/aminal-like group ( X-CH(R)-Y where X, Y are N, S, or O) that may be acid/base labile, releasing an aldehyde.

>  <s_lp_Force_Field>  (180) 
OPLS3e

>  <r_lp_Energy>  (180) 
75.4634

>  <b_lp_Chiralities_Consistent>  (180) 
1

>  <s_lp_Variant>  (180) 
42:0-1

>  <s_i_glide_gridfile>  (180) 
pfpi4k_grid

>  <i_i_glide_lignum>  (180) 
33

>  <i_i_glide_rotatable_bonds>  (180) 
4

>  <r_i_docking_score>  (180) 
-3.10044

>  <r_i_glide_ligand_efficiency>  (180) 
-0.103348

>  <r_i_glide_ligand_efficiency_sa>  (180) 
-0.321126

>  <r_i_glide_ligand_efficiency_ln>  (180) 
-0.704454

>  <r_i_glide_gscore>  (180) 
-3.10044

>  <r_i_glide_lipo>  (180) 
-0.338514

>  <r_i_glide_hbond>  (180) 
-0.2

>  <r_i_glide_metal>  (180) 
-0

>  <r_i_glide_rewards>  (180) 
-0.703479

>  <r_i_glide_evdw>  (180) 
-24.5777

>  <r_i_glide_ecoul>  (180) 
-5.51586

>  <r_i_glide_erotb>  (180) 
0.361715

>  <r_i_glide_esite>  (180) 
-0.163901

>  <r_i_glide_emodel>  (180) 
-35.5116

>  <r_i_glide_energy>  (180) 
-30.0935

>  <r_i_glide_einternal>  (180) 
1.90059

>  <r_i_glide_intrahb_reward>  (180) 
-0

>  <i_i_glide_confnum>  (180) 
4

>  <i_i_glide_posenum>  (180) 
16

>  <r_i_glide_eff_state_penalty>  (180) 
0

>  <ligand_id>  (180) 
42

>  <original_smiles>  (180) 
CC(C)(C)c1c(-c2ccc(OC3CC4C5CCC4CN3C5)cc2)nc2ccncn12

>  <smiles>  (180) 
[H]c1nc([H])n2c(C(C([H])([H])[H])(C([H])([H])[H])C([H])([H])[H])c(-c3c([H])c([H])c(OC4([H])C([H])([H])C5([H])C6([H])C([H])([H])C([H])([H])C5([H])C([H])([H])[N+]4([H])C6([H])[H])c([H])c3[H])nc2c1[H]

$$$$
42:0:1
     RDKit          3D

 61 66  0  0  1  0  0  0  0  0999 V2000
    0.9171   -0.3828    9.1252 C   0  0  0  0  0  0  0  0  0  0  0  0
    1.3528    0.7536    8.1673 C   0  0  0  0  0  0  0  0  0  0  0  0
    2.0733    1.8740    8.9524 C   0  0  0  0  0  0  0  0  0  0  0  0
    2.4599    0.1551    7.2710 C   0  0  0  0  0  0  0  0  0  0  0  0
    0.1222    1.3220    7.4229 C   0  0  0  0  0  0  0  0  0  0  0  0
   -0.2067    1.3833    6.0723 C   0  0  0  0  0  0  0  0  0  0  0  0
    0.4537    0.9164    4.8495 C   0  0  0  0  0  0  0  0  0  0  0  0
    0.6233    1.7737    3.7339 C   0  0  0  0  0  0  0  0  0  0  0  0
    1.3338    1.3298    2.5974 C   0  0  0  0  0  0  0  0  0  0  0  0
    1.9346    0.0507    2.5877 C   0  0  0  0  0  0  0  0  0  0  0  0
    2.6696   -0.3053    1.4769 O   0  0  0  0  0  0  0  0  0  0  0  0
    2.9883   -1.6534    1.3096 C   0  0  2  0  0  0  0  0  0  0  0  0
    4.3351   -2.0166    2.0295 C   0  0  0  0  0  0  0  0  0  0  0  0
    5.4468   -2.4514    1.0530 C   0  0  2  0  0  0  0  0  0  0  0  0
    5.7921   -1.3804    0.0137 C   0  0  1  0  0  0  0  0  0  0  0  0
    6.6626   -2.1565   -0.9867 C   0  0  0  0  0  0  0  0  0  0  0  0
    6.1648   -3.6051   -0.9201 C   0  0  0  0  0  0  0  0  0  0  0  0
    5.0358   -3.5988    0.1188 C   0  0  2  0  0  0  0  0  0  0  0  0
    3.6679   -3.2324   -0.5321 C   0  0  0  0  0  0  0  0  0  0  0  0
    3.3516   -1.8115   -0.2404 N   0  0  2  0  0  0  0  0  0  0  0  0
    4.4598   -0.9032   -0.6381 C   0  0  0  0  0  0  0  0  0  0  0  0
    1.7215   -0.8135    3.6866 C   0  0  0  0  0  0  0  0  0  0  0  0
    0.9189   -0.4066    4.7585 C   0  0  0  0  0  0  0  0  0  0  0  0
   -1.4290    2.0135    5.8845 N   0  0  0  0  0  0  0  0  0  0  0  0
   -1.8654    2.3408    7.0786 C   0  0  0  0  0  0  0  0  0  0  0  0
   -3.0570    2.9942    7.4757 C   0  0  0  0  0  0  0  0  0  0  0  0
   -3.2493    3.1999    8.8136 C   0  0  0  0  0  0  0  0  0  0  0  0
   -2.3635    2.8019    9.7809 N   0  0  0  0  0  0  0  0  0  0  0  0
   -1.2737    2.2000    9.4083 C   0  0  0  0  0  0  0  0  0  0  0  0
   -0.9611    1.9385    8.0939 N   0  0  0  0  0  0  0  0  0  0  0  0
    1.7833   -0.8502    9.5919 H   0  0  0  0  0  0  0  0  0  0  0  0
    0.3840   -1.1638    8.5834 H   0  0  0  0  0  0  0  0  0  0  0  0
    0.2692   -0.0553    9.9383 H   0  0  0  0  0  0  0  0  0  0  0  0
    1.4835    2.3086    9.7647 H   0  0  0  0  0  0  0  0  0  0  0  0
    2.3643    2.6852    8.2780 H   0  0  0  0  0  0  0  0  0  0  0  0
    2.9914    1.4907    9.4024 H   0  0  0  0  0  0  0  0  0  0  0  0
    3.3520   -0.1122    7.8366 H   0  0  0  0  0  0  0  0  0  0  0  0
    2.7605    0.8581    6.4973 H   0  0  0  0  0  0  0  0  0  0  0  0
    2.1510   -0.7918    6.8519 H   0  0  0  0  0  0  0  0  0  0  0  0
    0.1791    2.7620    3.7364 H   0  0  0  0  0  0  0  0  0  0  0  0
    1.4113    1.9786    1.7336 H   0  0  0  0  0  0  0  0  0  0  0  0
    2.1568   -2.3270    1.5403 H   0  0  0  0  0  0  0  0  0  0  0  0
    4.6661   -1.1711    2.6354 H   0  0  0  0  0  0  0  0  0  0  0  0
    4.1279   -2.8311    2.7227 H   0  0  0  0  0  0  0  0  0  0  0  0
    6.3379   -2.7296    1.6110 H   0  0  0  0  0  0  0  0  0  0  0  0
    6.3272   -0.5338    0.4438 H   0  0  0  0  0  0  0  0  0  0  0  0
    6.6053   -1.7613   -1.9985 H   0  0  0  0  0  0  0  0  0  0  0  0
    7.7070   -2.1187   -0.6774 H   0  0  0  0  0  0  0  0  0  0  0  0
    5.8429   -3.9780   -1.8929 H   0  0  0  0  0  0  0  0  0  0  0  0
    6.9753   -4.2485   -0.5801 H   0  0  0  0  0  0  0  0  0  0  0  0
    4.9663   -4.5580    0.6290 H   0  0  0  0  0  0  0  0  0  0  0  0
    3.6596   -3.3942   -1.6111 H   0  0  0  0  0  0  0  0  0  0  0  0
    2.8721   -3.8594   -0.1292 H   0  0  0  0  0  0  0  0  0  0  0  0
    4.2322    0.1178   -0.3271 H   0  0  0  0  0  0  0  0  0  0  0  0
    4.5213   -0.8743   -1.7280 H   0  0  0  0  0  0  0  0  0  0  0  0
    2.1877   -1.7847    3.7516 H   0  0  0  0  0  0  0  0  0  0  0  0
    0.6823   -1.1099    5.5418 H   0  0  0  0  0  0  0  0  0  0  0  0
   -3.7770    3.3109    6.7247 H   0  0  0  0  0  0  0  0  0  0  0  0
   -4.1436    3.6939    9.1865 H   0  0  0  0  0  0  0  0  0  0  0  0
   -0.5595    1.8759   10.1534 H   0  0  0  0  0  0  0  0  0  0  0  0
    2.5006   -1.5333   -0.7480 H   0  0  0  0  0  0  0  0  0  0  0  0
  1  2  1  0
  1 31  1  0
  1 32  1  0
  1 33  1  0
  2  3  1  0
  2  4  1  0
  2  5  1  0
  3 34  1  0
  3 35  1  0
  3 36  1  0
  4 37  1  0
  4 38  1  0
  4 39  1  0
  5 30  1  0
  5  6  2  0
  6  7  1  0
  6 24  1  0
  7 23  1  0
  7  8  2  0
  8  9  1  0
  8 40  1  0
  9 10  2  0
  9 41  1  0
 10 11  1  0
 10 22  1  0
 11 12  1  0
 12 20  1  0
 12 13  1  0
 12 42  1  1
 13 14  1  0
 13 43  1  0
 13 44  1  0
 14 18  1  0
 14 15  1  0
 14 45  1  1
 15 21  1  0
 15 16  1  0
 15 46  1  1
 16 17  1  0
 16 47  1  0
 16 48  1  0
 17 18  1  0
 17 49  1  0
 17 50  1  0
 18 19  1  0
 18 51  1  1
 19 20  1  0
 19 52  1  0
 19 53  1  0
 20 21  1  0
 20 61  1  6
 21 54  1  0
 21 55  1  0
 22 23  2  0
 22 56  1  0
 23 57  1  0
 24 25  2  0
 25 30  1  0
 25 26  1  0
 26 27  2  0
 26 58  1  0
 27 28  1  0
 27 59  1  0
 28 29  2  0
 29 30  1  0
 29 60  1  0
M  CHG  1  20   1
M  END
>  <i_m_ct_stereo_status>  (181) 
1

>  <s_m_source_file>  (181) 
/var/tmp/pbs.5076255.sched01/tmpmtrcy7mx/460f9z2a7c.sdf

>  <i_m_source_file_index>  (181) 
33

>  <i_lp_mmshare_version>  (181) 
48012

>  <i_f3d_flags>  (181) 
0

>  <s_epik_input>  (181) 
W2NIXTFbY0hdbltjSF1uKGMxMiljKEMoW0NIM10pKFtDSDNdKVtDSDNdKWMobjIpLWMzW2NIXVtjSF1jKFtjSF1bY0hdMylPW0NASF0oW0NIMl00KU4oW0NIMl01KVtDSDJdW0NASF02W0NIMl1bQ0gyXVtDQEBIXTVbQ0BASF00Ng==

>  <s_epik_cmdline>  (181) 
J2VwaWtfcHl0aG9uJywgJy1waHQnLCAnMi4wJywgJy1waCcsICc3LjAnLCAnLXRuJywgJzgnLCAnLW1hJywgJzIwMCcsICctaW1hZScsICc8aW5maWxlLm1hZT4nLCAnLW9tYWUnLCAnPG91dGZpbGUubWFlPic=

>  <r_lp_tautomer_probability>  (181) 
1

>  <r_epik_Ionization_Penalty>  (181) 
0.302206

>  <r_epik_Ionization_Penalty_Charging>  (181) 
0.302206

>  <r_epik_Ionization_Penalty_Neutral>  (181) 
3.09192e-11

>  <r_epik_State_Penalty>  (181) 
0.294821

>  <r_epik_Charging_Adjusted_Penalty>  (181) 
0.597027

>  <i_epik_Tot_Q>  (181) 
1

>  <i_epik_Tot_abs_Q>  (181) 
1

>  <s_epik_Chemistry_Notes>  (181) 
This compound contains an acetal/aminal-like group ( X-CH(R)-Y where X, Y are N, S, or O) that may be acid/base labile, releasing an aldehyde.

>  <s_lp_Force_Field>  (181) 
OPLS3e

>  <r_lp_Energy>  (181) 
75.4634

>  <b_lp_Chiralities_Consistent>  (181) 
1

>  <s_lp_Variant>  (181) 
42:0-1

>  <s_i_glide_gridfile>  (181) 
pfpi4k_grid

>  <i_i_glide_lignum>  (181) 
33

>  <i_i_glide_rotatable_bonds>  (181) 
4

>  <r_i_docking_score>  (181) 
-2.93736

>  <r_i_glide_ligand_efficiency>  (181) 
-0.0979119

>  <r_i_glide_ligand_efficiency_sa>  (181) 
-0.304235

>  <r_i_glide_ligand_efficiency_ln>  (181) 
-0.667399

>  <r_i_glide_gscore>  (181) 
-2.93736

>  <r_i_glide_lipo>  (181) 
-0.398724

>  <r_i_glide_hbond>  (181) 
-0.2

>  <r_i_glide_metal>  (181) 
-0

>  <r_i_glide_rewards>  (181) 
-0.657683

>  <r_i_glide_evdw>  (181) 
-25.6825

>  <r_i_glide_ecoul>  (181) 
-3.82736

>  <r_i_glide_erotb>  (181) 
0.361715

>  <r_i_glide_esite>  (181) 
-0.184433

>  <r_i_glide_emodel>  (181) 
-33.992

>  <r_i_glide_energy>  (181) 
-29.5099

>  <r_i_glide_einternal>  (181) 
1.00052

>  <r_i_glide_intrahb_reward>  (181) 
-0

>  <i_i_glide_confnum>  (181) 
4

>  <i_i_glide_posenum>  (181) 
4

>  <r_i_glide_eff_state_penalty>  (181) 
0

>  <ligand_id>  (181) 
42

>  <original_smiles>  (181) 
CC(C)(C)c1c(-c2ccc(OC3CC4C5CCC4CN3C5)cc2)nc2ccncn12

>  <smiles>  (181) 
[H]c1nc([H])n2c(C(C([H])([H])[H])(C([H])([H])[H])C([H])([H])[H])c(-c3c([H])c([H])c(OC4([H])C([H])([H])C5([H])C6([H])C([H])([H])C([H])([H])C5([H])C([H])([H])[N+]4([H])C6([H])[H])c([H])c3[H])nc2c1[H]

$$$$
42:0:2
     RDKit          3D

 61 66  0  0  1  0  0  0  0  0999 V2000
    2.8994   -8.3012    7.4967 C   0  0  0  0  0  0  0  0  0  0  0  0
    1.4505   -7.8239    7.2823 C   0  0  0  0  0  0  0  0  0  0  0  0
    0.4600   -8.6810    8.1092 C   0  0  0  0  0  0  0  0  0  0  0  0
    1.3874   -6.4247    7.9457 C   0  0  0  0  0  0  0  0  0  0  0  0
    1.0801   -7.8680    5.7911 C   0  0  0  0  0  0  0  0  0  0  0  0
    0.7764   -6.8619    4.8728 C   0  0  0  0  0  0  0  0  0  0  0  0
    0.7086   -5.4104    4.9632 C   0  0  0  0  0  0  0  0  0  0  0  0
    1.5117   -4.6377    4.1065 C   0  0  0  0  0  0  0  0  0  0  0  0
    1.4642   -3.2385    4.1397 C   0  0  0  0  0  0  0  0  0  0  0  0
    0.7068   -2.5917    5.1567 C   0  0  0  0  0  0  0  0  0  0  0  0
    0.7927   -1.2304    5.3773 O   0  0  0  0  0  0  0  0  0  0  0  0
    1.7364   -0.4878    4.6508 C   0  0  2  0  0  0  0  0  0  0  0  0
    2.2085    0.7253    5.4930 C   0  0  0  0  0  0  0  0  0  0  0  0
    2.0174    2.0626    4.7610 C   0  0  2  0  0  0  0  0  0  0  0  0
    0.5427    2.3671    4.4830 C   0  0  1  0  0  0  0  0  0  0  0  0
    0.6429    3.5734    3.5406 C   0  0  0  0  0  0  0  0  0  0  0  0
    1.9660    3.3874    2.7756 C   0  0  0  0  0  0  0  0  0  0  0  0
    2.5690    2.0892    3.3209 C   0  0  2  0  0  0  0  0  0  0  0  0
    2.0278    0.8592    2.5480 C   0  0  0  0  0  0  0  0  0  0  0  0
    0.9886    0.1842    3.3644 N   0  0  2  0  0  0  0  0  0  0  0  0
   -0.0846    1.1370    3.7683 C   0  0  0  0  0  0  0  0  0  0  0  0
   -0.1388   -3.3669    5.9886 C   0  0  0  0  0  0  0  0  0  0  0  0
   -0.1858   -4.7768    5.8475 C   0  0  0  0  0  0  0  0  0  0  0  0
    0.5346   -7.3802    3.6135 N   0  0  0  0  0  0  0  0  0  0  0  0
    0.6479   -8.6990    3.7121 C   0  0  0  0  0  0  0  0  0  0  0  0
    0.4946   -9.7231    2.7586 C   0  0  0  0  0  0  0  0  0  0  0  0
    0.6837  -11.0076    3.1768 C   0  0  0  0  0  0  0  0  0  0  0  0
    1.0320  -11.3576    4.4500 N   0  0  0  0  0  0  0  0  0  0  0  0
    1.1834  -10.4026    5.3286 C   0  0  0  0  0  0  0  0  0  0  0  0
    1.0017   -9.0697    5.0431 N   0  0  0  0  0  0  0  0  0  0  0  0
    3.1776   -8.1929    8.5479 H   0  0  0  0  0  0  0  0  0  0  0  0
    3.5991   -7.6826    6.9215 H   0  0  0  0  0  0  0  0  0  0  0  0
    3.0590   -9.3477    7.2202 H   0  0  0  0  0  0  0  0  0  0  0  0
    0.5123   -9.7514    7.9049 H   0  0  0  0  0  0  0  0  0  0  0  0
   -0.5700   -8.3693    7.9174 H   0  0  0  0  0  0  0  0  0  0  0  0
    0.6509   -8.5657    9.1756 H   0  0  0  0  0  0  0  0  0  0  0  0
    1.7798   -6.4531    8.9688 H   0  0  0  0  0  0  0  0  0  0  0  0
    0.3508   -6.0634    7.9862 H   0  0  0  0  0  0  0  0  0  0  0  0
    2.0159   -5.7100    7.4072 H   0  0  0  0  0  0  0  0  0  0  0  0
    2.1505   -5.1182    3.3876 H   0  0  0  0  0  0  0  0  0  0  0  0
    2.0492   -2.7339    3.3962 H   0  0  0  0  0  0  0  0  0  0  0  0
    2.6061   -1.0832    4.3831 H   0  0  0  0  0  0  0  0  0  0  0  0
    1.7627    0.7109    6.4961 H   0  0  0  0  0  0  0  0  0  0  0  0
    3.2767    0.5470    5.6123 H   0  0  0  0  0  0  0  0  0  0  0  0
    2.4753    2.8601    5.3331 H   0  0  0  0  0  0  0  0  0  0  0  0
   -0.0043    2.5947    5.3991 H   0  0  0  0  0  0  0  0  0  0  0  0
   -0.2245    3.6448    2.8904 H   0  0  0  0  0  0  0  0  0  0  0  0
    0.6850    4.4873    4.1295 H   0  0  0  0  0  0  0  0  0  0  0  0
    1.8540    3.3479    1.6937 H   0  0  0  0  0  0  0  0  0  0  0  0
    2.6261    4.2239    2.9856 H   0  0  0  0  0  0  0  0  0  0  0  0
    3.6558    2.1031    3.2835 H   0  0  0  0  0  0  0  0  0  0  0  0
    1.6239    1.1200    1.5642 H   0  0  0  0  0  0  0  0  0  0  0  0
    2.8338    0.1469    2.3608 H   0  0  0  0  0  0  0  0  0  0  0  0
   -0.7844    0.6267    4.4366 H   0  0  0  0  0  0  0  0  0  0  0  0
   -0.6647    1.4335    2.8831 H   0  0  0  0  0  0  0  0  0  0  0  0
   -0.7292   -2.8996    6.7679 H   0  0  0  0  0  0  0  0  0  0  0  0
   -0.9079   -5.3625    6.4121 H   0  0  0  0  0  0  0  0  0  0  0  0
    0.2381   -9.4992    1.7177 H   0  0  0  0  0  0  0  0  0  0  0  0
    0.5820  -11.8554    2.5026 H   0  0  0  0  0  0  0  0  0  0  0  0
    1.4953  -10.6569    6.3363 H   0  0  0  0  0  0  0  0  0  0  0  0
    0.5667   -0.5261    2.7948 H   0  0  0  0  0  0  0  0  0  0  0  0
  1  2  1  0
  1 31  1  0
  1 32  1  0
  1 33  1  0
  2  3  1  0
  2  4  1  0
  2  5  1  0
  3 34  1  0
  3 35  1  0
  3 36  1  0
  4 37  1  0
  4 38  1  0
  4 39  1  0
  5 30  1  0
  5  6  2  0
  6  7  1  0
  6 24  1  0
  7 23  1  0
  7  8  2  0
  8  9  1  0
  8 40  1  0
  9 10  2  0
  9 41  1  0
 10 11  1  0
 10 22  1  0
 11 12  1  0
 12 20  1  0
 12 13  1  0
 12 42  1  6
 13 14  1  0
 13 43  1  0
 13 44  1  0
 14 18  1  0
 14 15  1  0
 14 45  1  1
 15 21  1  0
 15 16  1  0
 15 46  1  1
 16 17  1  0
 16 47  1  0
 16 48  1  0
 17 18  1  0
 17 49  1  0
 17 50  1  0
 18 19  1  0
 18 51  1  1
 19 20  1  0
 19 52  1  0
 19 53  1  0
 20 21  1  0
 20 61  1  6
 21 54  1  0
 21 55  1  0
 22 23  2  0
 22 56  1  0
 23 57  1  0
 24 25  2  0
 25 30  1  0
 25 26  1  0
 26 27  2  0
 26 58  1  0
 27 28  1  0
 27 59  1  0
 28 29  2  0
 29 30  1  0
 29 60  1  0
M  CHG  1  20   1
M  END
>  <i_m_ct_stereo_status>  (182) 
1

>  <s_m_source_file>  (182) 
/var/tmp/pbs.5076255.sched01/tmpmtrcy7mx/460f9z2a7c.sdf

>  <i_m_source_file_index>  (182) 
33

>  <i_lp_mmshare_version>  (182) 
48012

>  <i_f3d_flags>  (182) 
0

>  <s_epik_input>  (182) 
W2NIXTFbY0hdbltjSF1uKGMxMiljKEMoW0NIM10pKFtDSDNdKVtDSDNdKWMobjIpLWMzW2NIXVtjSF1jKFtjSF1bY0hdMylPW0NASF0oW0NIMl00KU4oW0NIMl01KVtDSDJdW0NASF02W0NIMl1bQ0gyXVtDQEBIXTVbQ0BASF00Ng==

>  <s_epik_cmdline>  (182) 
J2VwaWtfcHl0aG9uJywgJy1waHQnLCAnMi4wJywgJy1waCcsICc3LjAnLCAnLXRuJywgJzgnLCAnLW1hJywgJzIwMCcsICctaW1hZScsICc8aW5maWxlLm1hZT4nLCAnLW9tYWUnLCAnPG91dGZpbGUubWFlPic=

>  <r_lp_tautomer_probability>  (182) 
1

>  <r_epik_Ionization_Penalty>  (182) 
0.302206

>  <r_epik_Ionization_Penalty_Charging>  (182) 
0.302206

>  <r_epik_Ionization_Penalty_Neutral>  (182) 
3.09192e-11

>  <r_epik_State_Penalty>  (182) 
0.294821

>  <r_epik_Charging_Adjusted_Penalty>  (182) 
0.597027

>  <i_epik_Tot_Q>  (182) 
1

>  <i_epik_Tot_abs_Q>  (182) 
1

>  <s_epik_Chemistry_Notes>  (182) 
This compound contains an acetal/aminal-like group ( X-CH(R)-Y where X, Y are N, S, or O) that may be acid/base labile, releasing an aldehyde.

>  <s_lp_Force_Field>  (182) 
OPLS3e

>  <r_lp_Energy>  (182) 
75.4634

>  <b_lp_Chiralities_Consistent>  (182) 
1

>  <s_lp_Variant>  (182) 
42:0-1

>  <s_i_glide_gridfile>  (182) 
pfpi4k_grid

>  <i_i_glide_lignum>  (182) 
33

>  <i_i_glide_rotatable_bonds>  (182) 
4

>  <r_i_docking_score>  (182) 
-2.59387

>  <r_i_glide_ligand_efficiency>  (182) 
-0.0864622

>  <r_i_glide_ligand_efficiency_sa>  (182) 
-0.268658

>  <r_i_glide_ligand_efficiency_ln>  (182) 
-0.589355

>  <r_i_glide_gscore>  (182) 
-2.59387

>  <r_i_glide_lipo>  (182) 
-0.133949

>  <r_i_glide_hbond>  (182) 
0

>  <r_i_glide_metal>  (182) 
-0

>  <r_i_glide_rewards>  (182) 
-0.657683

>  <r_i_glide_evdw>  (182) 
-22.8653

>  <r_i_glide_ecoul>  (182) 
-5.87658

>  <r_i_glide_erotb>  (182) 
0.361715

>  <r_i_glide_esite>  (182) 
-0.139197

>  <r_i_glide_emodel>  (182) 
-29.9847

>  <r_i_glide_energy>  (182) 
-28.7419

>  <r_i_glide_einternal>  (182) 
6.80713

>  <r_i_glide_intrahb_reward>  (182) 
-0

>  <i_i_glide_confnum>  (182) 
3

>  <i_i_glide_posenum>  (182) 
5

>  <r_i_glide_eff_state_penalty>  (182) 
0

>  <ligand_id>  (182) 
42

>  <original_smiles>  (182) 
CC(C)(C)c1c(-c2ccc(OC3CC4C5CCC4CN3C5)cc2)nc2ccncn12

>  <smiles>  (182) 
[H]c1nc([H])n2c(C(C([H])([H])[H])(C([H])([H])[H])C([H])([H])[H])c(-c3c([H])c([H])c(OC4([H])C([H])([H])C5([H])C6([H])C([H])([H])C([H])([H])C5([H])C([H])([H])[N+]4([H])C6([H])[H])c([H])c3[H])nc2c1[H]

$$$$
42:1:0
     RDKit          3D

 60 65  0  0  1  0  0  0  0  0999 V2000
    2.3003    3.0980    5.8000 C   0  0  0  0  0  0  0  0  0  0  0  0
    2.5701    2.6891    4.3276 C   0  0  0  0  0  0  0  0  0  0  0  0
    3.0814    3.9414    3.5672 C   0  0  0  0  0  0  0  0  0  0  0  0
    3.7461    1.6640    4.4213 C   0  0  0  0  0  0  0  0  0  0  0  0
    1.2926    2.1467    3.6520 C   0  0  0  0  0  0  0  0  0  0  0  0
    1.0033    0.9330    3.0336 C   0  0  0  0  0  0  0  0  0  0  0  0
    1.7853   -0.2728    2.7720 C   0  0  0  0  0  0  0  0  0  0  0  0
    3.0401   -0.2151    2.1408 C   0  0  0  0  0  0  0  0  0  0  0  0
    3.8426   -1.3609    2.0364 C   0  0  0  0  0  0  0  0  0  0  0  0
    3.3364   -2.6220    2.4212 C   0  0  0  0  0  0  0  0  0  0  0  0
    4.1728   -3.7102    2.2550 O   0  0  0  0  0  0  0  0  0  0  0  0
    3.7268   -4.9671    2.6659 C   0  0  2  0  0  0  0  0  0  0  0  0
    4.9312   -5.7231    3.2424 C   0  0  0  0  0  0  0  0  0  0  0  0
    4.9302   -7.1130    2.5942 C   0  0  2  0  0  0  0  0  0  0  0  0
    5.0390   -7.0335    1.0692 C   0  0  1  0  0  0  0  0  0  0  0  0
    4.7293   -8.4748    0.6469 C   0  0  0  0  0  0  0  0  0  0  0  0
    3.7795   -9.0166    1.7243 C   0  0  0  0  0  0  0  0  0  0  0  0
    3.5756   -7.8411    2.6874 C   0  0  2  0  0  0  0  0  0  0  0  0
    2.4387   -6.8973    2.1684 C   0  0  0  0  0  0  0  0  0  0  0  0
    3.0158   -5.6612    1.6109 N   0  0  0  0  0  0  0  0  0  0  0  0
    3.9516   -6.0441    0.5324 C   0  0  0  0  0  0  0  0  0  0  0  0
    2.0065   -2.7098    2.9222 C   0  0  0  0  0  0  0  0  0  0  0  0
    1.2629   -1.5339    3.1472 C   0  0  0  0  0  0  0  0  0  0  0  0
   -0.3152    0.8689    2.6032 N   0  0  0  0  0  0  0  0  0  0  0  0
   -0.8337    2.0454    2.8852 C   0  0  0  0  0  0  0  0  0  0  0  0
   -2.1350    2.5433    2.6451 C   0  0  0  0  0  0  0  0  0  0  0  0
   -2.3932    3.8250    3.0577 C   0  0  0  0  0  0  0  0  0  0  0  0
   -1.4950    4.6290    3.6877 N   0  0  0  0  0  0  0  0  0  0  0  0
   -0.2913    4.1570    3.8942 C   0  0  0  0  0  0  0  0  0  0  0  0
    0.0943    2.8946    3.5293 N   0  0  0  0  0  0  0  0  0  0  0  0
    3.2269    3.4659    6.2357 H   0  0  0  0  0  0  0  0  0  0  0  0
    1.9712    2.2349    6.3827 H   0  0  0  0  0  0  0  0  0  0  0  0
    1.5622    3.8939    5.9128 H   0  0  0  0  0  0  0  0  0  0  0  0
    2.3482    4.7412    3.4951 H   0  0  0  0  0  0  0  0  0  0  0  0
    3.3769    3.7051    2.5436 H   0  0  0  0  0  0  0  0  0  0  0  0
    3.9368    4.3705    4.0800 H   0  0  0  0  0  0  0  0  0  0  0  0
    4.5504    2.0325    5.0787 H   0  0  0  0  0  0  0  0  0  0  0  0
    4.1917    1.5004    3.4874 H   0  0  0  0  0  0  0  0  0  0  0  0
    3.3723    0.7309    4.8687 H   0  0  0  0  0  0  0  0  0  0  0  0
    3.3882    0.7297    1.7355 H   0  0  0  0  0  0  0  0  0  0  0  0
    4.8574   -1.2651    1.6879 H   0  0  0  0  0  0  0  0  0  0  0  0
    3.0617   -4.8503    3.5154 H   0  0  0  0  0  0  0  0  0  0  0  0
    5.8434   -5.1579    3.0375 H   0  0  0  0  0  0  0  0  0  0  0  0
    4.7829   -5.7630    4.3214 H   0  0  0  0  0  0  0  0  0  0  0  0
    5.7329   -7.7040    3.0251 H   0  0  0  0  0  0  0  0  0  0  0  0
    6.0278   -6.7165    0.7435 H   0  0  0  0  0  0  0  0  0  0  0  0
    4.2899   -8.5300   -0.3452 H   0  0  0  0  0  0  0  0  0  0  0  0
    5.6426   -9.0660    0.6306 H   0  0  0  0  0  0  0  0  0  0  0  0
    2.8465   -9.3881    1.3063 H   0  0  0  0  0  0  0  0  0  0  0  0
    4.2519   -9.8505    2.2392 H   0  0  0  0  0  0  0  0  0  0  0  0
    3.3581   -8.1870    3.6990 H   0  0  0  0  0  0  0  0  0  0  0  0
    1.8038   -7.3919    1.4333 H   0  0  0  0  0  0  0  0  0  0  0  0
    1.7877   -6.6255    3.0024 H   0  0  0  0  0  0  0  0  0  0  0  0
    4.4358   -5.1339    0.1711 H   0  0  0  0  0  0  0  0  0  0  0  0
    3.4086   -6.4498   -0.3198 H   0  0  0  0  0  0  0  0  0  0  0  0
    1.4942   -3.6359    3.1383 H   0  0  0  0  0  0  0  0  0  0  0  0
    0.2576   -1.6300    3.5566 H   0  0  0  0  0  0  0  0  0  0  0  0
   -2.8804    1.9549    2.1158 H   0  0  0  0  0  0  0  0  0  0  0  0
   -3.3677    4.2780    2.8740 H   0  0  0  0  0  0  0  0  0  0  0  0
    0.4463    4.7666    4.3850 H   0  0  0  0  0  0  0  0  0  0  0  0
  1  2  1  0
  1 31  1  0
  1 32  1  0
  1 33  1  0
  2  3  1  0
  2  4  1  0
  2  5  1  0
  3 34  1  0
  3 35  1  0
  3 36  1  0
  4 37  1  0
  4 38  1  0
  4 39  1  0
  5 30  1  0
  5  6  2  0
  6  7  1  0
  6 24  1  0
  7 23  1  0
  7  8  2  0
  8  9  1  0
  8 40  1  0
  9 10  2  0
  9 41  1  0
 10 11  1  0
 10 22  1  0
 11 12  1  0
 12 20  1  0
 12 13  1  0
 12 42  1  1
 13 14  1  0
 13 43  1  0
 13 44  1  0
 14 18  1  0
 14 15  1  0
 14 45  1  1
 15 21  1  0
 15 16  1  0
 15 46  1  1
 16 17  1  0
 16 47  1  0
 16 48  1  0
 17 18  1  0
 17 49  1  0
 17 50  1  0
 18 19  1  0
 18 51  1  1
 19 20  1  0
 19 52  1  0
 19 53  1  0
 20 21  1  0
 21 54  1  0
 21 55  1  0
 22 23  2  0
 22 56  1  0
 23 57  1  0
 24 25  2  0
 25 30  1  0
 25 26  1  0
 26 27  2  0
 26 58  1  0
 27 28  1  0
 27 59  1  0
 28 29  2  0
 29 30  1  0
 29 60  1  0
M  END
>  <i_m_ct_stereo_status>  (183) 
1

>  <s_m_source_file>  (183) 
/var/tmp/pbs.5076255.sched01/tmpmtrcy7mx/460f9z2a7c.sdf

>  <i_m_source_file_index>  (183) 
34

>  <i_lp_mmshare_version>  (183) 
48012

>  <i_f3d_flags>  (183) 
0

>  <s_epik_input>  (183) 
W2NIXTFbY0hdbltjSF1uKGMxMiljKEMoW0NIM10pKFtDSDNdKVtDSDNdKWMobjIpLWMzW2NIXVtjSF1jKFtjSF1bY0hdMylPW0NASF0oW0NIMl00KU4oW0NIMl01KVtDSDJdW0NASF02W0NIMl1bQ0gyXVtDQEBIXTVbQ0BASF00Ng==

>  <s_epik_cmdline>  (183) 
J2VwaWtfcHl0aG9uJywgJy1waHQnLCAnMi4wJywgJy1waCcsICc3LjAnLCAnLXRuJywgJzgnLCAnLW1hJywgJzIwMCcsICctaW1hZScsICc8aW5maWxlLm1hZT4nLCAnLW9tYWUnLCAnPG91dGZpbGUubWFlPic=

>  <r_lp_tautomer_probability>  (183) 
1

>  <r_epik_Ionization_Penalty>  (183) 
0.5505

>  <r_epik_Ionization_Penalty_Charging>  (183) 
0.00276055

>  <r_epik_Ionization_Penalty_Neutral>  (183) 
0.547739

>  <r_epik_State_Penalty>  (183) 
0.55977

>  <r_epik_Charging_Adjusted_Penalty>  (183) 
0.56253

>  <i_epik_Tot_Q>  (183) 
0

>  <i_epik_Tot_abs_Q>  (183) 
0

>  <s_epik_Chemistry_Notes>  (183) 
This compound contains an acetal/aminal-like group ( X-CH(R)-Y where X, Y are N, S, or O) that may be acid/base labile, releasing an aldehyde.

>  <s_lp_Force_Field>  (183) 
OPLS3e

>  <r_lp_Energy>  (183) 
80.2804

>  <b_lp_Chiralities_Consistent>  (183) 
1

>  <s_lp_Variant>  (183) 
42:0-2

>  <s_i_glide_gridfile>  (183) 
pfpi4k_grid

>  <i_i_glide_lignum>  (183) 
34

>  <i_i_glide_rotatable_bonds>  (183) 
4

>  <r_i_docking_score>  (183) 
-2.55607

>  <r_i_glide_ligand_efficiency>  (183) 
-0.0852024

>  <r_i_glide_ligand_efficiency_sa>  (183) 
-0.264744

>  <r_i_glide_ligand_efficiency_ln>  (183) 
-0.580768

>  <r_i_glide_gscore>  (183) 
-2.55607

>  <r_i_glide_lipo>  (183) 
-0.162486

>  <r_i_glide_hbond>  (183) 
-0.16

>  <r_i_glide_metal>  (183) 
-0

>  <r_i_glide_rewards>  (183) 
-0.664555

>  <r_i_glide_evdw>  (183) 
-23.9492

>  <r_i_glide_ecoul>  (183) 
-3.37613

>  <r_i_glide_erotb>  (183) 
0.363349

>  <r_i_glide_esite>  (183) 
-0.228503

>  <r_i_glide_emodel>  (183) 
-31.3638

>  <r_i_glide_energy>  (183) 
-27.3253

>  <r_i_glide_einternal>  (183) 
1.36805

>  <r_i_glide_intrahb_reward>  (183) 
-0

>  <i_i_glide_confnum>  (183) 
1

>  <i_i_glide_posenum>  (183) 
27

>  <r_i_glide_eff_state_penalty>  (183) 
0

>  <ligand_id>  (183) 
42

>  <original_smiles>  (183) 
CC(C)(C)c1c(-c2ccc(OC3CC4C5CCC4CN3C5)cc2)nc2ccncn12

>  <smiles>  (183) 
[H]c1nc([H])n2c(C(C([H])([H])[H])(C([H])([H])[H])C([H])([H])[H])c(-c3c([H])c([H])c(OC4([H])N5C([H])([H])C6([H])C([H])([H])C([H])([H])C([H])(C5([H])[H])C6([H])C4([H])[H])c([H])c3[H])nc2c1[H]

$$$$
42:1:1
     RDKit          3D

 60 65  0  0  1  0  0  0  0  0999 V2000
    0.1901   -9.1131    8.1668 C   0  0  0  0  0  0  0  0  0  0  0  0
    1.0856   -8.0795    7.4420 C   0  0  0  0  0  0  0  0  0  0  0  0
    0.9698   -6.7923    8.3147 C   0  0  0  0  0  0  0  0  0  0  0  0
    2.5533   -8.5528    7.5252 C   0  0  0  0  0  0  0  0  0  0  0  0
    0.6537   -7.8968    5.9705 C   0  0  0  0  0  0  0  0  0  0  0  0
    0.2387   -6.7968    5.2384 C   0  0  0  0  0  0  0  0  0  0  0  0
    0.0252   -5.3889    5.5697 C   0  0  0  0  0  0  0  0  0  0  0  0
   -0.8193   -5.0062    6.6274 C   0  0  0  0  0  0  0  0  0  0  0  0
   -0.8978   -3.6708    7.0335 C   0  0  0  0  0  0  0  0  0  0  0  0
   -0.2658   -2.6624    6.2842 C   0  0  0  0  0  0  0  0  0  0  0  0
   -0.4615   -1.3501    6.6913 O   0  0  0  0  0  0  0  0  0  0  0  0
    0.1668   -0.3471    5.9668 C   0  0  2  0  0  0  0  0  0  0  0  0
    0.1144    0.9470    6.8010 C   0  0  0  0  0  0  0  0  0  0  0  0
   -0.3975    2.0612    5.8658 C   0  0  2  0  0  0  0  0  0  0  0  0
   -1.7804    1.7381    5.2806 C   0  0  1  0  0  0  0  0  0  0  0  0
   -1.9322    2.7898    4.1695 C   0  0  0  0  0  0  0  0  0  0  0  0
   -0.4974    3.0874    3.7044 C   0  0  0  0  0  0  0  0  0  0  0  0
    0.3902    2.1599    4.5456 C   0  0  2  0  0  0  0  0  0  0  0  0
    0.4715    0.7438    3.8811 C   0  0  0  0  0  0  0  0  0  0  0  0
   -0.3638   -0.2122    4.6255 N   0  0  0  0  0  0  0  0  0  0  0  0
   -1.7408    0.2992    4.6690 C   0  0  0  0  0  0  0  0  0  0  0  0
    0.4821   -3.0265    5.1280 C   0  0  0  0  0  0  0  0  0  0  0  0
    0.6488   -4.3848    4.7929 C   0  0  0  0  0  0  0  0  0  0  0  0
   -0.0246   -7.1217    3.9121 N   0  0  0  0  0  0  0  0  0  0  0  0
    0.1993   -8.4127    3.8133 C   0  0  0  0  0  0  0  0  0  0  0  0
    0.0936   -9.2800    2.6914 C   0  0  0  0  0  0  0  0  0  0  0  0
    0.4122  -10.5961    2.8942 C   0  0  0  0  0  0  0  0  0  0  0  0
    0.8350  -11.1181    4.0784 N   0  0  0  0  0  0  0  0  0  0  0  0
    0.9181  -10.3072    5.1119 C   0  0  0  0  0  0  0  0  0  0  0  0
    0.6248   -8.9777    5.0382 N   0  0  0  0  0  0  0  0  0  0  0  0
    0.4980   -9.2123    9.2053 H   0  0  0  0  0  0  0  0  0  0  0  0
    0.2393  -10.1179    7.7497 H   0  0  0  0  0  0  0  0  0  0  0  0
   -0.8603   -8.8211    8.1489 H   0  0  0  0  0  0  0  0  0  0  0  0
   -0.0503   -6.5384    8.4216 H   0  0  0  0  0  0  0  0  0  0  0  0
    1.5655   -5.9798    7.8734 H   0  0  0  0  0  0  0  0  0  0  0  0
    1.3396   -6.9480    9.3354 H   0  0  0  0  0  0  0  0  0  0  0  0
    2.8288   -8.7254    8.5672 H   0  0  0  0  0  0  0  0  0  0  0  0
    3.2363   -7.8005    7.1142 H   0  0  0  0  0  0  0  0  0  0  0  0
    2.7342   -9.4958    6.9965 H   0  0  0  0  0  0  0  0  0  0  0  0
   -1.4141   -5.7504    7.1416 H   0  0  0  0  0  0  0  0  0  0  0  0
   -1.4348   -3.4356    7.9386 H   0  0  0  0  0  0  0  0  0  0  0  0
    1.2074   -0.6524    5.9047 H   0  0  0  0  0  0  0  0  0  0  0  0
   -0.5513    0.7971    7.6523 H   0  0  0  0  0  0  0  0  0  0  0  0
    1.1202    1.1461    7.1794 H   0  0  0  0  0  0  0  0  0  0  0  0
   -0.4086    3.0094    6.3979 H   0  0  0  0  0  0  0  0  0  0  0  0
   -2.5798    1.8109    6.0226 H   0  0  0  0  0  0  0  0  0  0  0  0
   -2.5682    2.4468    3.3523 H   0  0  0  0  0  0  0  0  0  0  0  0
   -2.3817    3.6915    4.5783 H   0  0  0  0  0  0  0  0  0  0  0  0
   -0.3655    2.9336    2.6345 H   0  0  0  0  0  0  0  0  0  0  0  0
   -0.2476    4.1257    3.9108 H   0  0  0  0  0  0  0  0  0  0  0  0
    1.3901    2.5754    4.6862 H   0  0  0  0  0  0  0  0  0  0  0  0
    0.1840    0.7628    2.8293 H   0  0  0  0  0  0  0  0  0  0  0  0
    1.5027    0.3901    3.9077 H   0  0  0  0  0  0  0  0  0  0  0  0
   -2.3382   -0.3802    5.2782 H   0  0  0  0  0  0  0  0  0  0  0  0
   -2.1736    0.2674    3.6707 H   0  0  0  0  0  0  0  0  0  0  0  0
    0.9296   -2.3211    4.4529 H   0  0  0  0  0  0  0  0  0  0  0  0
    1.2201   -4.6254    3.8980 H   0  0  0  0  0  0  0  0  0  0  0  0
   -0.2226   -8.9168    1.7170 H   0  0  0  0  0  0  0  0  0  0  0  0
    0.3170  -11.3152    2.0898 H   0  0  0  0  0  0  0  0  0  0  0  0
    1.2467  -10.6968    6.0589 H   0  0  0  0  0  0  0  0  0  0  0  0
  1  2  1  0
  1 31  1  0
  1 32  1  0
  1 33  1  0
  2  3  1  0
  2  4  1  0
  2  5  1  0
  3 34  1  0
  3 35  1  0
  3 36  1  0
  4 37  1  0
  4 38  1  0
  4 39  1  0
  5 30  1  0
  5  6  2  0
  6  7  1  0
  6 24  1  0
  7 23  1  0
  7  8  2  0
  8  9  1  0
  8 40  1  0
  9 10  2  0
  9 41  1  0
 10 11  1  0
 10 22  1  0
 11 12  1  0
 12 20  1  0
 12 13  1  0
 12 42  1  6
 13 14  1  0
 13 43  1  0
 13 44  1  0
 14 18  1  0
 14 15  1  0
 14 45  1  1
 15 21  1  0
 15 16  1  0
 15 46  1  1
 16 17  1  0
 16 47  1  0
 16 48  1  0
 17 18  1  0
 17 49  1  0
 17 50  1  0
 18 19  1  0
 18 51  1  1
 19 20  1  0
 19 52  1  0
 19 53  1  0
 20 21  1  0
 21 54  1  0
 21 55  1  0
 22 23  2  0
 22 56  1  0
 23 57  1  0
 24 25  2  0
 25 30  1  0
 25 26  1  0
 26 27  2  0
 26 58  1  0
 27 28  1  0
 27 59  1  0
 28 29  2  0
 29 30  1  0
 29 60  1  0
M  END
>  <i_m_ct_stereo_status>  (184) 
1

>  <s_m_source_file>  (184) 
/var/tmp/pbs.5076255.sched01/tmpmtrcy7mx/460f9z2a7c.sdf

>  <i_m_source_file_index>  (184) 
34

>  <i_lp_mmshare_version>  (184) 
48012

>  <i_f3d_flags>  (184) 
0

>  <s_epik_input>  (184) 
W2NIXTFbY0hdbltjSF1uKGMxMiljKEMoW0NIM10pKFtDSDNdKVtDSDNdKWMobjIpLWMzW2NIXVtjSF1jKFtjSF1bY0hdMylPW0NASF0oW0NIMl00KU4oW0NIMl01KVtDSDJdW0NASF02W0NIMl1bQ0gyXVtDQEBIXTVbQ0BASF00Ng==

>  <s_epik_cmdline>  (184) 
J2VwaWtfcHl0aG9uJywgJy1waHQnLCAnMi4wJywgJy1waCcsICc3LjAnLCAnLXRuJywgJzgnLCAnLW1hJywgJzIwMCcsICctaW1hZScsICc8aW5maWxlLm1hZT4nLCAnLW9tYWUnLCAnPG91dGZpbGUubWFlPic=

>  <r_lp_tautomer_probability>  (184) 
1

>  <r_epik_Ionization_Penalty>  (184) 
0.5505

>  <r_epik_Ionization_Penalty_Charging>  (184) 
0.00276055

>  <r_epik_Ionization_Penalty_Neutral>  (184) 
0.547739

>  <r_epik_State_Penalty>  (184) 
0.55977

>  <r_epik_Charging_Adjusted_Penalty>  (184) 
0.56253

>  <i_epik_Tot_Q>  (184) 
0

>  <i_epik_Tot_abs_Q>  (184) 
0

>  <s_epik_Chemistry_Notes>  (184) 
This compound contains an acetal/aminal-like group ( X-CH(R)-Y where X, Y are N, S, or O) that may be acid/base labile, releasing an aldehyde.

>  <s_lp_Force_Field>  (184) 
OPLS3e

>  <r_lp_Energy>  (184) 
80.2804

>  <b_lp_Chiralities_Consistent>  (184) 
1

>  <s_lp_Variant>  (184) 
42:0-2

>  <s_i_glide_gridfile>  (184) 
pfpi4k_grid

>  <i_i_glide_lignum>  (184) 
34

>  <i_i_glide_rotatable_bonds>  (184) 
4

>  <r_i_docking_score>  (184) 
-2.38072

>  <r_i_glide_ligand_efficiency>  (184) 
-0.0793574

>  <r_i_glide_ligand_efficiency_sa>  (184) 
-0.246582

>  <r_i_glide_ligand_efficiency_ln>  (184) 
-0.540926

>  <r_i_glide_gscore>  (184) 
-2.38072

>  <r_i_glide_lipo>  (184) 
-0.131629

>  <r_i_glide_hbond>  (184) 
0

>  <r_i_glide_metal>  (184) 
-0

>  <r_i_glide_rewards>  (184) 
-0.664555

>  <r_i_glide_evdw>  (184) 
-26.2563

>  <r_i_glide_ecoul>  (184) 
-3.18088

>  <r_i_glide_erotb>  (184) 
0.363349

>  <r_i_glide_esite>  (184) 
-0.157941

>  <r_i_glide_emodel>  (184) 
-32.5806

>  <r_i_glide_energy>  (184) 
-29.4372

>  <r_i_glide_einternal>  (184) 
1.06466

>  <r_i_glide_intrahb_reward>  (184) 
-0

>  <i_i_glide_confnum>  (184) 
1

>  <i_i_glide_posenum>  (184) 
26

>  <r_i_glide_eff_state_penalty>  (184) 
0

>  <ligand_id>  (184) 
42

>  <original_smiles>  (184) 
CC(C)(C)c1c(-c2ccc(OC3CC4C5CCC4CN3C5)cc2)nc2ccncn12

>  <smiles>  (184) 
[H]c1nc([H])n2c(C(C([H])([H])[H])(C([H])([H])[H])C([H])([H])[H])c(-c3c([H])c([H])c(OC4([H])N5C([H])([H])C6([H])C([H])([H])C([H])([H])C([H])(C5([H])[H])C6([H])C4([H])[H])c([H])c3[H])nc2c1[H]

$$$$
42:1:2
     RDKit          3D

 60 65  0  0  1  0  0  0  0  0999 V2000
    0.4327   -8.7072    8.2742 C   0  0  0  0  0  0  0  0  0  0  0  0
    1.3624   -7.7876    7.4427 C   0  0  0  0  0  0  0  0  0  0  0  0
    1.2466   -6.4031    8.1288 C   0  0  0  0  0  0  0  0  0  0  0  0
    2.8238   -8.2483    7.6344 C   0  0  0  0  0  0  0  0  0  0  0  0
    0.9764   -7.7683    5.9555 C   0  0  0  0  0  0  0  0  0  0  0  0
    0.6477   -6.7244    5.1003 C   0  0  0  0  0  0  0  0  0  0  0  0
    0.5396   -5.2919    5.2893 C   0  0  0  0  0  0  0  0  0  0  0  0
    1.4408   -4.4054    4.6618 C   0  0  0  0  0  0  0  0  0  0  0  0
    1.3365   -3.0129    4.8632 C   0  0  0  0  0  0  0  0  0  0  0  0
    0.3046   -2.5024    5.6907 C   0  0  0  0  0  0  0  0  0  0  0  0
    0.1711   -1.1629    5.9417 O   0  0  0  0  0  0  0  0  0  0  0  0
    0.1759   -0.3108    4.8334 C   0  0  2  0  0  0  0  0  0  0  0  0
    1.2762    0.7660    5.0237 C   0  0  0  0  0  0  0  0  0  0  0  0
    0.6054    2.1372    4.7795 C   0  0  2  0  0  0  0  0  0  0  0  0
   -0.5718    2.3764    5.7325 C   0  0  1  0  0  0  0  0  0  0  0  0
   -1.2631    3.6044    5.1246 C   0  0  0  0  0  0  0  0  0  0  0  0
   -0.9758    3.5103    3.6173 C   0  0  0  0  0  0  0  0  0  0  0  0
   -0.1642    2.2180    3.4515 C   0  0  2  0  0  0  0  0  0  0  0  0
   -1.1245    0.9924    3.3360 C   0  0  0  0  0  0  0  0  0  0  0  0
   -1.1395    0.2220    4.5928 N   0  0  0  0  0  0  0  0  0  0  0  0
   -1.5172    1.1360    5.6850 C   0  0  0  0  0  0  0  0  0  0  0  0
   -0.5981   -3.3846    6.3134 C   0  0  0  0  0  0  0  0  0  0  0  0
   -0.5016   -4.7682    6.0832 C   0  0  0  0  0  0  0  0  0  0  0  0
    0.3898   -7.1891    3.8075 N   0  0  0  0  0  0  0  0  0  0  0  0
    0.5462   -8.5069    3.8556 C   0  0  0  0  0  0  0  0  0  0  0  0
    0.4183   -9.4942    2.8516 C   0  0  0  0  0  0  0  0  0  0  0  0
    0.6618  -10.7940    3.2094 C   0  0  0  0  0  0  0  0  0  0  0  0
    1.0378  -11.1832    4.4571 N   0  0  0  0  0  0  0  0  0  0  0  0
    1.1584  -10.2707    5.3829 C   0  0  0  0  0  0  0  0  0  0  0  0
    0.9222   -8.9339    5.1510 N   0  0  0  0  0  0  0  0  0  0  0  0
    0.7174   -8.6609    9.3255 H   0  0  0  0  0  0  0  0  0  0  0  0
    0.4745   -9.7593    7.9945 H   0  0  0  0  0  0  0  0  0  0  0  0
   -0.6071   -8.3844    8.1836 H   0  0  0  0  0  0  0  0  0  0  0  0
    0.2107   -6.0753    8.1218 H   0  0  0  0  0  0  0  0  0  0  0  0
    1.8862   -5.6605    7.6402 H   0  0  0  0  0  0  0  0  0  0  0  0
    1.5219   -6.4256    9.1866 H   0  0  0  0  0  0  0  0  0  0  0  0
    3.0681   -8.2902    8.6947 H   0  0  0  0  0  0  0  0  0  0  0  0
    3.5219   -7.5552    7.1541 H   0  0  0  0  0  0  0  0  0  0  0  0
    3.0055   -9.2455    7.2305 H   0  0  0  0  0  0  0  0  0  0  0  0
    2.2174   -4.8006    4.0277 H   0  0  0  0  0  0  0  0  0  0  0  0
    2.0592   -2.3706    4.3981 H   0  0  0  0  0  0  0  0  0  0  0  0
    0.4408   -0.8832    3.9443 H   0  0  0  0  0  0  0  0  0  0  0  0
    1.6996    0.6997    6.0282 H   0  0  0  0  0  0  0  0  0  0  0  0
    2.0809    0.5808    4.3092 H   0  0  0  0  0  0  0  0  0  0  0  0
    1.3374    2.9462    4.8525 H   0  0  0  0  0  0  0  0  0  0  0  0
   -0.2425    2.5637    6.7544 H   0  0  0  0  0  0  0  0  0  0  0  0
   -2.3299    3.6295    5.3443 H   0  0  0  0  0  0  0  0  0  0  0  0
   -0.8220    4.5149    5.5275 H   0  0  0  0  0  0  0  0  0  0  0  0
   -1.8832    3.5130    3.0149 H   0  0  0  0  0  0  0  0  0  0  0  0
   -0.3758    4.3625    3.2993 H   0  0  0  0  0  0  0  0  0  0  0  0
    0.4945    2.2761    2.5839 H   0  0  0  0  0  0  0  0  0  0  0  0
   -2.1337    1.3129    3.0871 H   0  0  0  0  0  0  0  0  0  0  0  0
   -0.7796    0.3439    2.5284 H   0  0  0  0  0  0  0  0  0  0  0  0
   -1.4277    0.5895    6.6244 H   0  0  0  0  0  0  0  0  0  0  0  0
   -2.5597    1.4248    5.5772 H   0  0  0  0  0  0  0  0  0  0  0  0
   -1.3638   -2.9965    6.9570 H   0  0  0  0  0  0  0  0  0  0  0  0
   -1.2585   -5.4205    6.4927 H   0  0  0  0  0  0  0  0  0  0  0  0
    0.1440   -9.2327    1.8244 H   0  0  0  0  0  0  0  0  0  0  0  0
    0.5782  -11.6085    2.4906 H   0  0  0  0  0  0  0  0  0  0  0  0
    1.4858  -10.5541    6.3768 H   0  0  0  0  0  0  0  0  0  0  0  0
  1  2  1  0
  1 31  1  0
  1 32  1  0
  1 33  1  0
  2  3  1  0
  2  4  1  0
  2  5  1  0
  3 34  1  0
  3 35  1  0
  3 36  1  0
  4 37  1  0
  4 38  1  0
  4 39  1  0
  5 30  1  0
  5  6  2  0
  6  7  1  0
  6 24  1  0
  7 23  1  0
  7  8  2  0
  8  9  1  0
  8 40  1  0
  9 10  2  0
  9 41  1  0
 10 11  1  0
 10 22  1  0
 11 12  1  0
 12 20  1  0
 12 13  1  0
 12 42  1  6
 13 14  1  0
 13 43  1  0
 13 44  1  0
 14 18  1  0
 14 15  1  0
 14 45  1  6
 15 21  1  0
 15 16  1  0
 15 46  1  1
 16 17  1  0
 16 47  1  0
 16 48  1  0
 17 18  1  0
 17 49  1  0
 17 50  1  0
 18 19  1  0
 18 51  1  6
 19 20  1  0
 19 52  1  0
 19 53  1  0
 20 21  1  0
 21 54  1  0
 21 55  1  0
 22 23  2  0
 22 56  1  0
 23 57  1  0
 24 25  2  0
 25 30  1  0
 25 26  1  0
 26 27  2  0
 26 58  1  0
 27 28  1  0
 27 59  1  0
 28 29  2  0
 29 30  1  0
 29 60  1  0
M  END
>  <i_m_ct_stereo_status>  (185) 
1

>  <s_m_source_file>  (185) 
/var/tmp/pbs.5076255.sched01/tmpmtrcy7mx/460f9z2a7c.sdf

>  <i_m_source_file_index>  (185) 
34

>  <i_lp_mmshare_version>  (185) 
48012

>  <i_f3d_flags>  (185) 
0

>  <s_epik_input>  (185) 
W2NIXTFbY0hdbltjSF1uKGMxMiljKEMoW0NIM10pKFtDSDNdKVtDSDNdKWMobjIpLWMzW2NIXVtjSF1jKFtjSF1bY0hdMylPW0NASF0oW0NIMl00KU4oW0NIMl01KVtDSDJdW0NASF02W0NIMl1bQ0gyXVtDQEBIXTVbQ0BASF00Ng==

>  <s_epik_cmdline>  (185) 
J2VwaWtfcHl0aG9uJywgJy1waHQnLCAnMi4wJywgJy1waCcsICc3LjAnLCAnLXRuJywgJzgnLCAnLW1hJywgJzIwMCcsICctaW1hZScsICc8aW5maWxlLm1hZT4nLCAnLW9tYWUnLCAnPG91dGZpbGUubWFlPic=

>  <r_lp_tautomer_probability>  (185) 
1

>  <r_epik_Ionization_Penalty>  (185) 
0.5505

>  <r_epik_Ionization_Penalty_Charging>  (185) 
0.00276055

>  <r_epik_Ionization_Penalty_Neutral>  (185) 
0.547739

>  <r_epik_State_Penalty>  (185) 
0.55977

>  <r_epik_Charging_Adjusted_Penalty>  (185) 
0.56253

>  <i_epik_Tot_Q>  (185) 
0

>  <i_epik_Tot_abs_Q>  (185) 
0

>  <s_epik_Chemistry_Notes>  (185) 
This compound contains an acetal/aminal-like group ( X-CH(R)-Y where X, Y are N, S, or O) that may be acid/base labile, releasing an aldehyde.

>  <s_lp_Force_Field>  (185) 
OPLS3e

>  <r_lp_Energy>  (185) 
80.2804

>  <b_lp_Chiralities_Consistent>  (185) 
1

>  <s_lp_Variant>  (185) 
42:0-2

>  <s_i_glide_gridfile>  (185) 
pfpi4k_grid

>  <i_i_glide_lignum>  (185) 
34

>  <i_i_glide_rotatable_bonds>  (185) 
4

>  <r_i_docking_score>  (185) 
-2.18211

>  <r_i_glide_ligand_efficiency>  (185) 
-0.072737

>  <r_i_glide_ligand_efficiency_sa>  (185) 
-0.226011

>  <r_i_glide_ligand_efficiency_ln>  (185) 
-0.495799

>  <r_i_glide_gscore>  (185) 
-2.18211

>  <r_i_glide_lipo>  (185) 
-0.089834

>  <r_i_glide_hbond>  (185) 
0

>  <r_i_glide_metal>  (185) 
-0

>  <r_i_glide_rewards>  (185) 
-0.664555

>  <r_i_glide_evdw>  (185) 
-25.1186

>  <r_i_glide_ecoul>  (185) 
-2.66363

>  <r_i_glide_erotb>  (185) 
0.363349

>  <r_i_glide_esite>  (185) 
-0.135596

>  <r_i_glide_emodel>  (185) 
-29.6358

>  <r_i_glide_energy>  (185) 
-27.7822

>  <r_i_glide_einternal>  (185) 
4.77786

>  <r_i_glide_intrahb_reward>  (185) 
-0

>  <i_i_glide_confnum>  (185) 
3

>  <i_i_glide_posenum>  (185) 
31

>  <r_i_glide_eff_state_penalty>  (185) 
0

>  <ligand_id>  (185) 
42

>  <original_smiles>  (185) 
CC(C)(C)c1c(-c2ccc(OC3CC4C5CCC4CN3C5)cc2)nc2ccncn12

>  <smiles>  (185) 
[H]c1nc([H])n2c(C(C([H])([H])[H])(C([H])([H])[H])C([H])([H])[H])c(-c3c([H])c([H])c(OC4([H])N5C([H])([H])C6([H])C([H])([H])C([H])([H])C([H])(C5([H])[H])C6([H])C4([H])[H])c([H])c3[H])nc2c1[H]

$$$$
42:2:0
     RDKit          3D

 60 65  0  0  1  0  0  0  0  0999 V2000
    1.1737   -6.7931    8.3989 C   0  0  0  0  0  0  0  0  0  0  0  0
    1.1537   -8.0652    7.5204 C   0  0  0  0  0  0  0  0  0  0  0  0
    2.5998   -8.5929    7.6100 C   0  0  0  0  0  0  0  0  0  0  0  0
    0.1790   -9.0451    8.2161 C   0  0  0  0  0  0  0  0  0  0  0  0
    0.7420   -7.8672    6.0452 C   0  0  0  0  0  0  0  0  0  0  0  0
    0.3414   -6.7546    5.3212 C   0  0  0  0  0  0  0  0  0  0  0  0
    0.1209   -5.3553    5.6832 C   0  0  0  0  0  0  0  0  0  0  0  0
   -0.6359   -5.0148    6.8152 C   0  0  0  0  0  0  0  0  0  0  0  0
   -0.7095   -3.6939    7.2665 C   0  0  0  0  0  0  0  0  0  0  0  0
   -0.2331   -2.6519    6.4513 C   0  0  0  0  0  0  0  0  0  0  0  0
   -0.4970   -1.3642    6.8655 O   0  0  0  0  0  0  0  0  0  0  0  0
   -0.6916   -0.3950    5.8812 C   0  0  2  0  0  0  0  0  0  0  0  0
    0.6777    0.1516    5.4109 C   0  0  0  0  0  0  0  0  0  0  0  0
    0.5564    1.6774    5.3111 C   0  0  1  0  0  0  0  0  0  0  0  0
   -0.6785    2.1138    4.5180 C   0  0  2  0  0  0  0  0  0  0  0  0
   -0.5910    3.6397    4.6753 C   0  0  0  0  0  0  0  0  0  0  0  0
    0.2297    3.8216    5.9769 C   0  0  0  0  0  0  0  0  0  0  0  0
    0.2855    2.4093    6.6523 C   0  0  2  0  0  0  0  0  0  0  0  0
   -0.7920    1.4660    7.3484 C   0  0  0  0  0  0  0  0  0  0  0  0
   -1.5552    0.6516    6.3682 N   0  0  0  0  0  0  0  0  0  0  0  0
   -1.9409    1.5002    5.2213 C   0  0  0  0  0  0  0  0  0  0  0  0
    0.4148   -2.9769    5.2320 C   0  0  0  0  0  0  0  0  0  0  0  0
    0.6260   -4.3203    4.8661 C   0  0  0  0  0  0  0  0  0  0  0  0
    0.0884   -7.0613    3.9906 N   0  0  0  0  0  0  0  0  0  0  0  0
    0.3146   -8.3518    3.8699 C   0  0  0  0  0  0  0  0  0  0  0  0
    0.2267   -9.1957    2.7295 C   0  0  0  0  0  0  0  0  0  0  0  0
    0.5412  -10.5193    2.9205 C   0  0  0  0  0  0  0  0  0  0  0  0
    0.9342  -11.0578    4.1048 N   0  0  0  0  0  0  0  0  0  0  0  0
    0.9992  -10.2692    5.1533 C   0  0  0  0  0  0  0  0  0  0  0  0
    0.7170   -8.9299    5.0954 N   0  0  0  0  0  0  0  0  0  0  0  0
    1.6223   -6.9650    9.3768 H   0  0  0  0  0  0  0  0  0  0  0  0
    0.1772   -6.4788    8.6549 H   0  0  0  0  0  0  0  0  0  0  0  0
    1.7389   -6.0003    7.9177 H   0  0  0  0  0  0  0  0  0  0  0  0
    3.2889   -7.9070    7.1068 H   0  0  0  0  0  0  0  0  0  0  0  0
    2.7473   -9.5907    7.1851 H   0  0  0  0  0  0  0  0  0  0  0  0
    2.9176   -8.6544    8.6547 H   0  0  0  0  0  0  0  0  0  0  0  0
    0.4029   -9.1303    9.2796 H   0  0  0  0  0  0  0  0  0  0  0  0
    0.2082  -10.0593    7.8114 H   0  0  0  0  0  0  0  0  0  0  0  0
   -0.8515   -8.7013    8.1323 H   0  0  0  0  0  0  0  0  0  0  0  0
   -1.1639   -5.7787    7.3503 H   0  0  0  0  0  0  0  0  0  0  0  0
   -1.1726   -3.4793    8.2155 H   0  0  0  0  0  0  0  0  0  0  0  0
   -1.2089   -0.8906    5.0573 H   0  0  0  0  0  0  0  0  0  0  0  0
    1.4623   -0.1510    6.1097 H   0  0  0  0  0  0  0  0  0  0  0  0
    0.9169   -0.2246    4.4163 H   0  0  0  0  0  0  0  0  0  0  0  0
    1.4702    2.0294    4.8347 H   0  0  0  0  0  0  0  0  0  0  0  0
   -0.6342    1.8145    3.4687 H   0  0  0  0  0  0  0  0  0  0  0  0
   -0.0668    4.0903    3.8328 H   0  0  0  0  0  0  0  0  0  0  0  0
   -1.5738    4.1022    4.7357 H   0  0  0  0  0  0  0  0  0  0  0  0
    1.2496    4.0949    5.6986 H   0  0  0  0  0  0  0  0  0  0  0  0
   -0.1047    4.6765    6.5805 H   0  0  0  0  0  0  0  0  0  0  0  0
   -0.6388    2.9285    6.8667 H   0  0  0  0  0  0  0  0  0  0  0  0
   -0.2344    0.7733    7.9840 H   0  0  0  0  0  0  0  0  0  0  0  0
   -1.4908    1.9183    8.0656 H   0  0  0  0  0  0  0  0  0  0  0  0
   -2.6195    2.2750    5.5702 H   0  0  0  0  0  0  0  0  0  0  0  0
   -2.4962    0.8941    4.5032 H   0  0  0  0  0  0  0  0  0  0  0  0
    0.7640   -2.2470    4.5183 H   0  0  0  0  0  0  0  0  0  0  0  0
    1.1247   -4.5339    3.9258 H   0  0  0  0  0  0  0  0  0  0  0  0
   -0.0692   -8.8129    1.7680 H   0  0  0  0  0  0  0  0  0  0  0  0
    0.4658  -11.2140    2.0963 H   0  0  0  0  0  0  0  0  0  0  0  0
    1.2968  -10.6689    6.1050 H   0  0  0  0  0  0  0  0  0  0  0  0
  1  2  1  0
  1 31  1  0
  1 32  1  0
  1 33  1  0
  2  3  1  0
  2  4  1  0
  2  5  1  0
  3 34  1  0
  3 35  1  0
  3 36  1  0
  4 37  1  0
  4 38  1  0
  4 39  1  0
  5 30  1  0
  5  6  2  0
  6  7  1  0
  6 24  1  0
  7 23  1  0
  7  8  2  0
  8  9  1  0
  8 40  1  0
  9 10  2  0
  9 41  1  0
 10 11  1  0
 10 22  1  0
 11 12  1  0
 12 20  1  0
 12 13  1  0
 12 42  1  6
 13 14  1  0
 13 43  1  0
 13 44  1  0
 14 18  1  0
 14 15  1  0
 14 45  1  6
 15 21  1  0
 15 16  1  0
 15 46  1  6
 16 17  1  0
 16 47  1  0
 16 48  1  0
 17 18  1  0
 17 49  1  0
 17 50  1  0
 18 19  1  0
 18 51  1  1
 19 20  1  0
 19 52  1  0
 19 53  1  0
 20 21  1  0
 21 54  1  0
 21 55  1  0
 22 23  2  0
 22 56  1  0
 23 57  1  0
 24 25  2  0
 25 30  1  0
 25 26  1  0
 26 27  2  0
 26 58  1  0
 27 28  1  0
 27 59  1  0
 28 29  2  0
 29 30  1  0
 29 60  1  0
M  END
>  <i_m_ct_stereo_status>  (186) 
1

>  <s_m_source_file>  (186) 
/var/tmp/pbs.5076255.sched01/tmpmtrcy7mx/460f9z2a7c.sdf

>  <i_m_source_file_index>  (186) 
35

>  <i_lp_mmshare_version>  (186) 
48012

>  <i_f3d_flags>  (186) 
0

>  <s_epik_input>  (186) 
W2NIXTFbY0hdbltjSF1uKGMxMiljKEMoW0NIM10pKFtDSDNdKVtDSDNdKWMobjIpLWMzW2NIXVtjSF1jKFtjSF1bY0hdMylPW0NASF0oW0NIMl00KU4oW0NIMl01KVtDSDJdW0NASF02W0NIMl1bQ0gyXVtDQEBIXTVbQ0BASF00Ng==

>  <s_epik_cmdline>  (186) 
J2VwaWtfcHl0aG9uJywgJy1waHQnLCAnMi4wJywgJy1waCcsICc3LjAnLCAnLXRuJywgJzgnLCAnLW1hJywgJzIwMCcsICctaW1hZScsICc8aW5maWxlLm1hZT4nLCAnLW9tYWUnLCAnPG91dGZpbGUubWFlPic=

>  <r_lp_tautomer_probability>  (186) 
1

>  <r_epik_Ionization_Penalty>  (186) 
0.5505

>  <r_epik_Ionization_Penalty_Charging>  (186) 
0.00276055

>  <r_epik_Ionization_Penalty_Neutral>  (186) 
0.547739

>  <r_epik_State_Penalty>  (186) 
0.55977

>  <r_epik_Charging_Adjusted_Penalty>  (186) 
0.56253

>  <i_epik_Tot_Q>  (186) 
0

>  <i_epik_Tot_abs_Q>  (186) 
0

>  <s_epik_Chemistry_Notes>  (186) 
This compound contains an acetal/aminal-like group ( X-CH(R)-Y where X, Y are N, S, or O) that may be acid/base labile, releasing an aldehyde.

>  <s_lp_Force_Field>  (186) 
OPLS3e

>  <r_lp_Energy>  (186) 
154.962

>  <b_lp_Chiralities_Consistent>  (186) 
1

>  <s_lp_Variant>  (186) 
42:0-3

>  <s_i_glide_gridfile>  (186) 
pfpi4k_grid

>  <i_i_glide_lignum>  (186) 
35

>  <i_i_glide_rotatable_bonds>  (186) 
4

>  <r_i_docking_score>  (186) 
-2.80163

>  <r_i_glide_ligand_efficiency>  (186) 
-0.0933875

>  <r_i_glide_ligand_efficiency_sa>  (186) 
-0.290177

>  <r_i_glide_ligand_efficiency_ln>  (186) 
-0.63656

>  <r_i_glide_gscore>  (186) 
-2.80163

>  <r_i_glide_lipo>  (186) 
-0.136189

>  <r_i_glide_hbond>  (186) 
-0.0994979

>  <r_i_glide_metal>  (186) 
-0

>  <r_i_glide_rewards>  (186) 
-0.664555

>  <r_i_glide_evdw>  (186) 
-25.1449

>  <r_i_glide_ecoul>  (186) 
-5.54054

>  <r_i_glide_erotb>  (186) 
0.363349

>  <r_i_glide_esite>  (186) 
-0.176408

>  <r_i_glide_emodel>  (186) 
-34.352

>  <r_i_glide_energy>  (186) 
-30.6854

>  <r_i_glide_einternal>  (186) 
1.65732

>  <r_i_glide_intrahb_reward>  (186) 
-0

>  <i_i_glide_confnum>  (186) 
2

>  <i_i_glide_posenum>  (186) 
39

>  <r_i_glide_eff_state_penalty>  (186) 
0

>  <ligand_id>  (186) 
42

>  <original_smiles>  (186) 
CC(C)(C)c1c(-c2ccc(OC3CC4C5CCC4CN3C5)cc2)nc2ccncn12

>  <smiles>  (186) 
[H]c1nc([H])n2c(C(C([H])([H])[H])(C([H])([H])[H])C([H])([H])[H])c(-c3c([H])c([H])c(OC4([H])N5C([H])([H])C6([H])C([H])([H])C([H])([H])C([H])(C5([H])[H])C6([H])C4([H])[H])c([H])c3[H])nc2c1[H]

$$$$
42:2:1
     RDKit          3D

 60 65  0  0  1  0  0  0  0  0999 V2000
    3.1119    3.6718    3.6722 C   0  0  0  0  0  0  0  0  0  0  0  0
    2.5368    2.4443    4.4133 C   0  0  0  0  0  0  0  0  0  0  0  0
    3.6773    1.3901    4.2774 C   0  0  0  0  0  0  0  0  0  0  0  0
    2.3756    2.7647    5.8974 C   0  0  0  0  0  0  0  0  0  0  0  0
    1.1907    1.9810    3.8087 C   0  0  0  0  0  0  0  0  0  0  0  0
    0.7366    0.7551    3.3405 C   0  0  0  0  0  0  0  0  0  0  0  0
    1.3507   -0.5641    3.2064 C   0  0  0  0  0  0  0  0  0  0  0  0
    2.5141   -0.7434    2.4243 C   0  0  0  0  0  0  0  0  0  0  0  0
    3.1506   -2.0103    2.4192 C   0  0  0  0  0  0  0  0  0  0  0  0
    2.5531   -3.1258    3.0369 C   0  0  0  0  0  0  0  0  0  0  0  0
    3.2269   -4.3275    2.9381 O   0  0  0  0  0  0  0  0  0  0  0  0
    2.5505   -5.4982    3.2721 C   0  0  2  0  0  0  0  0  0  0  0  0
    3.6007   -6.5430    3.6547 C   0  0  0  0  0  0  0  0  0  0  0  0
    3.1355   -7.8885    3.0487 C   0  0  1  0  0  0  0  0  0  0  0  0
    1.6530   -8.1914    3.3209 C   0  0  2  0  0  0  0  0  0  0  0  0
    1.4873   -9.4910    2.5156 C   0  0  0  0  0  0  0  0  0  0  0  0
    2.6041   -9.3980    1.4423 C   0  0  0  0  0  0  0  0  0  0  0  0
    3.1240   -7.9253    1.4950 C   0  0  2  0  0  0  0  0  0  0  0  0
    2.4957   -6.5138    1.1021 C   0  0  0  0  0  0  0  0  0  0  0  0
    1.6731   -5.9526    2.2056 N   0  0  0  0  0  0  0  0  0  0  0  0
    0.7915   -7.0101    2.7406 C   0  0  0  0  0  0  0  0  0  0  0  0
    1.3047   -2.9693    3.7130 C   0  0  0  0  0  0  0  0  0  0  0  0
    0.7374   -1.6853    3.8238 C   0  0  0  0  0  0  0  0  0  0  0  0
   -0.5881    0.8187    2.9629 N   0  0  0  0  0  0  0  0  0  0  0  0
   -0.9718    2.0669    3.1106 C   0  0  0  0  0  0  0  0  0  0  0  0
   -2.2079    2.7070    2.8680 C   0  0  0  0  0  0  0  0  0  0  0  0
   -2.3016    4.0291    3.1362 C   0  0  0  0  0  0  0  0  0  0  0  0
   -1.2964    4.7820    3.6926 N   0  0  0  0  0  0  0  0  0  0  0  0
   -0.1519    4.1767    3.9319 C   0  0  0  0  0  0  0  0  0  0  0  0
    0.0778    2.8579    3.6690 N   0  0  0  0  0  0  0  0  0  0  0  0
    4.0998    3.9010    4.0741 H   0  0  0  0  0  0  0  0  0  0  0  0
    2.5351    4.5951    3.7785 H   0  0  0  0  0  0  0  0  0  0  0  0
    3.2105    3.4749    2.5996 H   0  0  0  0  0  0  0  0  0  0  0  0
    3.8925    1.2146    3.2346 H   0  0  0  0  0  0  0  0  0  0  0  0
    3.3976    0.4458    4.7702 H   0  0  0  0  0  0  0  0  0  0  0  0
    4.5955    1.7197    4.7997 H   0  0  0  0  0  0  0  0  0  0  0  0
    3.3237    3.1295    6.3102 H   0  0  0  0  0  0  0  0  0  0  0  0
    2.0919    1.8731    6.4778 H   0  0  0  0  0  0  0  0  0  0  0  0
    1.6254    3.5398    6.0871 H   0  0  0  0  0  0  0  0  0  0  0  0
    2.9219    0.0815    1.8517 H   0  0  0  0  0  0  0  0  0  0  0  0
    4.1071   -2.1061    1.9247 H   0  0  0  0  0  0  0  0  0  0  0  0
    1.9662   -5.3166    4.1695 H   0  0  0  0  0  0  0  0  0  0  0  0
    4.5931   -6.2498    3.3046 H   0  0  0  0  0  0  0  0  0  0  0  0
    3.6115   -6.5734    4.7445 H   0  0  0  0  0  0  0  0  0  0  0  0
    3.7790   -8.6603    3.4706 H   0  0  0  0  0  0  0  0  0  0  0  0
    1.4480   -8.3439    4.3811 H   0  0  0  0  0  0  0  0  0  0  0  0
    1.6481  -10.3656    3.1446 H   0  0  0  0  0  0  0  0  0  0  0  0
    0.4938   -9.5765    2.0803 H   0  0  0  0  0  0  0  0  0  0  0  0
    3.4228  -10.0520    1.7457 H   0  0  0  0  0  0  0  0  0  0  0  0
    2.2984   -9.8079    0.4747 H   0  0  0  0  0  0  0  0  0  0  0  0
    2.2104   -8.0177    0.9260 H   0  0  0  0  0  0  0  0  0  0  0  0
    3.3332   -5.8311    0.9559 H   0  0  0  0  0  0  0  0  0  0  0  0
    1.9521   -6.4319    0.1452 H   0  0  0  0  0  0  0  0  0  0  0  0
    0.1001   -7.3571    1.9671 H   0  0  0  0  0  0  0  0  0  0  0  0
    0.1852   -6.5864    3.5369 H   0  0  0  0  0  0  0  0  0  0  0  0
    0.7488   -3.7914    4.1373 H   0  0  0  0  0  0  0  0  0  0  0  0
   -0.1975   -1.5789    4.3423 H   0  0  0  0  0  0  0  0  0  0  0  0
   -3.0437    2.1571    2.4489 H   0  0  0  0  0  0  0  0  0  0  0  0
   -3.2155    4.5803    2.9483 H   0  0  0  0  0  0  0  0  0  0  0  0
    0.6555    4.7365    4.4065 H   0  0  0  0  0  0  0  0  0  0  0  0
  1  2  1  0
  1 31  1  0
  1 32  1  0
  1 33  1  0
  2  3  1  0
  2  4  1  0
  2  5  1  0
  3 34  1  0
  3 35  1  0
  3 36  1  0
  4 37  1  0
  4 38  1  0
  4 39  1  0
  5 30  1  0
  5  6  2  0
  6  7  1  0
  6 24  1  0
  7 23  1  0
  7  8  2  0
  8  9  1  0
  8 40  1  0
  9 10  2  0
  9 41  1  0
 10 11  1  0
 10 22  1  0
 11 12  1  0
 12 20  1  0
 12 13  1  0
 12 42  1  1
 13 14  1  0
 13 43  1  0
 13 44  1  0
 14 18  1  0
 14 15  1  0
 14 45  1  1
 15 21  1  0
 15 16  1  0
 15 46  1  1
 16 17  1  0
 16 47  1  0
 16 48  1  0
 17 18  1  0
 17 49  1  0
 17 50  1  0
 18 19  1  0
 18 51  1  6
 19 20  1  0
 19 52  1  0
 19 53  1  0
 20 21  1  0
 21 54  1  0
 21 55  1  0
 22 23  2  0
 22 56  1  0
 23 57  1  0
 24 25  2  0
 25 30  1  0
 25 26  1  0
 26 27  2  0
 26 58  1  0
 27 28  1  0
 27 59  1  0
 28 29  2  0
 29 30  1  0
 29 60  1  0
M  END
>  <i_m_ct_stereo_status>  (187) 
1

>  <s_m_source_file>  (187) 
/var/tmp/pbs.5076255.sched01/tmpmtrcy7mx/460f9z2a7c.sdf

>  <i_m_source_file_index>  (187) 
35

>  <i_lp_mmshare_version>  (187) 
48012

>  <i_f3d_flags>  (187) 
0

>  <s_epik_input>  (187) 
W2NIXTFbY0hdbltjSF1uKGMxMiljKEMoW0NIM10pKFtDSDNdKVtDSDNdKWMobjIpLWMzW2NIXVtjSF1jKFtjSF1bY0hdMylPW0NASF0oW0NIMl00KU4oW0NIMl01KVtDSDJdW0NASF02W0NIMl1bQ0gyXVtDQEBIXTVbQ0BASF00Ng==

>  <s_epik_cmdline>  (187) 
J2VwaWtfcHl0aG9uJywgJy1waHQnLCAnMi4wJywgJy1waCcsICc3LjAnLCAnLXRuJywgJzgnLCAnLW1hJywgJzIwMCcsICctaW1hZScsICc8aW5maWxlLm1hZT4nLCAnLW9tYWUnLCAnPG91dGZpbGUubWFlPic=

>  <r_lp_tautomer_probability>  (187) 
1

>  <r_epik_Ionization_Penalty>  (187) 
0.5505

>  <r_epik_Ionization_Penalty_Charging>  (187) 
0.00276055

>  <r_epik_Ionization_Penalty_Neutral>  (187) 
0.547739

>  <r_epik_State_Penalty>  (187) 
0.55977

>  <r_epik_Charging_Adjusted_Penalty>  (187) 
0.56253

>  <i_epik_Tot_Q>  (187) 
0

>  <i_epik_Tot_abs_Q>  (187) 
0

>  <s_epik_Chemistry_Notes>  (187) 
This compound contains an acetal/aminal-like group ( X-CH(R)-Y where X, Y are N, S, or O) that may be acid/base labile, releasing an aldehyde.

>  <s_lp_Force_Field>  (187) 
OPLS3e

>  <r_lp_Energy>  (187) 
154.962

>  <b_lp_Chiralities_Consistent>  (187) 
1

>  <s_lp_Variant>  (187) 
42:0-3

>  <s_i_glide_gridfile>  (187) 
pfpi4k_grid

>  <i_i_glide_lignum>  (187) 
35

>  <i_i_glide_rotatable_bonds>  (187) 
4

>  <r_i_docking_score>  (187) 
-2.43463

>  <r_i_glide_ligand_efficiency>  (187) 
-0.0811543

>  <r_i_glide_ligand_efficiency_sa>  (187) 
-0.252165

>  <r_i_glide_ligand_efficiency_ln>  (187) 
-0.553174

>  <r_i_glide_gscore>  (187) 
-2.43463

>  <r_i_glide_lipo>  (187) 
-0.116175

>  <r_i_glide_hbond>  (187) 
-0.15885

>  <r_i_glide_metal>  (187) 
-0

>  <r_i_glide_rewards>  (187) 
-0.664555

>  <r_i_glide_evdw>  (187) 
-24.6609

>  <r_i_glide_ecoul>  (187) 
-2.80615

>  <r_i_glide_erotb>  (187) 
0.363349

>  <r_i_glide_esite>  (187) 
-0.204429

>  <r_i_glide_emodel>  (187) 
-31.0775

>  <r_i_glide_energy>  (187) 
-27.467

>  <r_i_glide_einternal>  (187) 
1.69157

>  <r_i_glide_intrahb_reward>  (187) 
-0

>  <i_i_glide_confnum>  (187) 
2

>  <i_i_glide_posenum>  (187) 
24

>  <r_i_glide_eff_state_penalty>  (187) 
0

>  <ligand_id>  (187) 
42

>  <original_smiles>  (187) 
CC(C)(C)c1c(-c2ccc(OC3CC4C5CCC4CN3C5)cc2)nc2ccncn12

>  <smiles>  (187) 
[H]c1nc([H])n2c(C(C([H])([H])[H])(C([H])([H])[H])C([H])([H])[H])c(-c3c([H])c([H])c(OC4([H])N5C([H])([H])C6([H])C([H])([H])C([H])([H])C([H])(C5([H])[H])C6([H])C4([H])[H])c([H])c3[H])nc2c1[H]

$$$$
42:2:2
     RDKit          3D

 60 65  0  0  1  0  0  0  0  0999 V2000
    2.6115   -8.7677    7.5002 C   0  0  0  0  0  0  0  0  0  0  0  0
    1.1980   -8.1109    7.4202 C   0  0  0  0  0  0  0  0  0  0  0  0
    0.2160   -9.0425    8.1897 C   0  0  0  0  0  0  0  0  0  0  0  0
    1.3644   -6.7947    8.2256 C   0  0  0  0  0  0  0  0  0  0  0  0
    0.7406   -7.9426    5.9617 C   0  0  0  0  0  0  0  0  0  0  0  0
    0.3323   -6.8248    5.2471 C   0  0  0  0  0  0  0  0  0  0  0  0
    0.1482   -5.4238    5.5671 C   0  0  0  0  0  0  0  0  0  0  0  0
   -0.5473   -5.0346    6.7297 C   0  0  0  0  0  0  0  0  0  0  0  0
   -0.5844   -3.6980    7.1483 C   0  0  0  0  0  0  0  0  0  0  0  0
   -0.0766   -2.6902    6.3027 C   0  0  0  0  0  0  0  0  0  0  0  0
   -0.2441   -1.3791    6.7080 O   0  0  0  0  0  0  0  0  0  0  0  0
    0.0463   -0.3759    5.7814 C   0  0  2  0  0  0  0  0  0  0  0  0
    0.0682    0.9661    6.5336 C   0  0  0  0  0  0  0  0  0  0  0  0
   -0.6477    1.9845    5.6301 C   0  0  1  0  0  0  0  0  0  0  0  0
   -0.1238    1.9822    4.1890 C   0  0  2  0  0  0  0  0  0  0  0  0
   -1.0690    2.9959    3.5308 C   0  0  0  0  0  0  0  0  0  0  0  0
   -2.3317    2.9546    4.4267 C   0  0  0  0  0  0  0  0  0  0  0  0
   -2.1540    1.7084    5.3552 C   0  0  2  0  0  0  0  0  0  0  0  0
   -2.1619    0.1340    5.1097 C   0  0  0  0  0  0  0  0  0  0  0  0
   -0.8501   -0.3728    4.6606 N   0  0  0  0  0  0  0  0  0  0  0  0
   -0.3061    0.5289    3.6157 C   0  0  0  0  0  0  0  0  0  0  0  0
    0.5122   -3.0549    5.0598 C   0  0  0  0  0  0  0  0  0  0  0  0
    0.6563   -4.4166    4.7173 C   0  0  0  0  0  0  0  0  0  0  0  0
    0.0178   -7.1566    3.9068 N   0  0  0  0  0  0  0  0  0  0  0  0
    0.2120   -8.4519    3.8189 C   0  0  0  0  0  0  0  0  0  0  0  0
    0.0591   -9.3105    2.7006 C   0  0  0  0  0  0  0  0  0  0  0  0
    0.3488  -10.6366    2.9026 C   0  0  0  0  0  0  0  0  0  0  0  0
    0.7676  -11.1608    4.0795 N   0  0  0  0  0  0  0  0  0  0  0  0
    0.8876  -10.3766    5.1001 C   0  0  0  0  0  0  0  0  0  0  0  0
    0.6440   -9.0211    5.0301 N   0  0  0  0  0  0  0  0  0  0  0  0
    2.8873   -8.9015    8.5439 H   0  0  0  0  0  0  0  0  0  0  0  0
    3.3577   -8.1254    7.0309 H   0  0  0  0  0  0  0  0  0  0  0  0
    2.6780   -9.7560    7.0408 H   0  0  0  0  0  0  0  0  0  0  0  0
    0.1045  -10.0192    7.7267 H   0  0  0  0  0  0  0  0  0  0  0  0
   -0.7846   -8.6148    8.2588 H   0  0  0  0  0  0  0  0  0  0  0  0
    0.5685   -9.2261    9.2016 H   0  0  0  0  0  0  0  0  0  0  0  0
    1.8812   -6.9468    9.1697 H   0  0  0  0  0  0  0  0  0  0  0  0
    0.4097   -6.3740    8.4981 H   0  0  0  0  0  0  0  0  0  0  0  0
    1.9637   -6.0888    7.6361 H   0  0  0  0  0  0  0  0  0  0  0  0
   -1.0429   -5.7982    7.3275 H   0  0  0  0  0  0  0  0  0  0  0  0
   -0.9887   -3.4576    8.1105 H   0  0  0  0  0  0  0  0  0  0  0  0
    1.0649   -0.5672    5.4426 H   0  0  0  0  0  0  0  0  0  0  0  0
   -0.4395    0.8467    7.4945 H   0  0  0  0  0  0  0  0  0  0  0  0
    1.1113    1.2215    6.7227 H   0  0  0  0  0  0  0  0  0  0  0  0
   -0.5073    2.9611    6.0990 H   0  0  0  0  0  0  0  0  0  0  0  0
    0.9207    2.2999    4.1241 H   0  0  0  0  0  0  0  0  0  0  0  0
   -0.6352    3.9933    3.5294 H   0  0  0  0  0  0  0  0  0  0  0  0
   -1.2856    2.7400    2.4940 H   0  0  0  0  0  0  0  0  0  0  0  0
   -2.3208    3.8362    5.0715 H   0  0  0  0  0  0  0  0  0  0  0  0
   -3.2650    3.0571    3.8600 H   0  0  0  0  0  0  0  0  0  0  0  0
   -2.5355    1.4374    4.3746 H   0  0  0  0  0  0  0  0  0  0  0  0
   -2.3791   -0.3441    6.0664 H   0  0  0  0  0  0  0  0  0  0  0  0
   -2.9714   -0.3031    4.5336 H   0  0  0  0  0  0  0  0  0  0  0  0
   -0.9441    0.5146    2.7338 H   0  0  0  0  0  0  0  0  0  0  0  0
    0.6655    0.1404    3.2942 H   0  0  0  0  0  0  0  0  0  0  0  0
    0.8458   -2.3425    4.3259 H   0  0  0  0  0  0  0  0  0  0  0  0
    1.1122   -4.6601    3.7571 H   0  0  0  0  0  0  0  0  0  0  0  0
   -0.2648   -8.9347    1.7319 H   0  0  0  0  0  0  0  0  0  0  0  0
    0.2173  -11.3536    2.0788 H   0  0  0  0  0  0  0  0  0  0  0  0
    1.1919  -10.7691    6.0555 H   0  0  0  0  0  0  0  0  0  0  0  0
  1  2  1  0
  1 31  1  0
  1 32  1  0
  1 33  1  0
  2  3  1  0
  2  4  1  0
  2  5  1  0
  3 34  1  0
  3 35  1  0
  3 36  1  0
  4 37  1  0
  4 38  1  0
  4 39  1  0
  5 30  1  0
  5  6  2  0
  6  7  1  0
  6 24  1  0
  7 23  1  0
  7  8  2  0
  8  9  1  0
  8 40  1  0
  9 10  2  0
  9 41  1  0
 10 11  1  0
 10 22  1  0
 11 12  1  0
 12 20  1  0
 12 13  1  0
 12 42  1  6
 13 14  1  0
 13 43  1  0
 13 44  1  0
 14 18  1  0
 14 15  1  0
 14 45  1  1
 15 21  1  0
 15 16  1  0
 15 46  1  1
 16 17  1  0
 16 47  1  0
 16 48  1  0
 17 18  1  0
 17 49  1  0
 17 50  1  0
 18 19  1  0
 18 51  1  1
 19 20  1  0
 19 52  1  0
 19 53  1  0
 20 21  1  0
 21 54  1  0
 21 55  1  0
 22 23  2  0
 22 56  1  0
 23 57  1  0
 24 25  2  0
 25 30  1  0
 25 26  1  0
 26 27  2  0
 26 58  1  0
 27 28  1  0
 27 59  1  0
 28 29  2  0
 29 30  1  0
 29 60  1  0
M  END
>  <i_m_ct_stereo_status>  (188) 
1

>  <s_m_source_file>  (188) 
/var/tmp/pbs.5076255.sched01/tmpmtrcy7mx/460f9z2a7c.sdf

>  <i_m_source_file_index>  (188) 
35

>  <i_lp_mmshare_version>  (188) 
48012

>  <i_f3d_flags>  (188) 
0

>  <s_epik_input>  (188) 
W2NIXTFbY0hdbltjSF1uKGMxMiljKEMoW0NIM10pKFtDSDNdKVtDSDNdKWMobjIpLWMzW2NIXVtjSF1jKFtjSF1bY0hdMylPW0NASF0oW0NIMl00KU4oW0NIMl01KVtDSDJdW0NASF02W0NIMl1bQ0gyXVtDQEBIXTVbQ0BASF00Ng==

>  <s_epik_cmdline>  (188) 
J2VwaWtfcHl0aG9uJywgJy1waHQnLCAnMi4wJywgJy1waCcsICc3LjAnLCAnLXRuJywgJzgnLCAnLW1hJywgJzIwMCcsICctaW1hZScsICc8aW5maWxlLm1hZT4nLCAnLW9tYWUnLCAnPG91dGZpbGUubWFlPic=

>  <r_lp_tautomer_probability>  (188) 
1

>  <r_epik_Ionization_Penalty>  (188) 
0.5505

>  <r_epik_Ionization_Penalty_Charging>  (188) 
0.00276055

>  <r_epik_Ionization_Penalty_Neutral>  (188) 
0.547739

>  <r_epik_State_Penalty>  (188) 
0.55977

>  <r_epik_Charging_Adjusted_Penalty>  (188) 
0.56253

>  <i_epik_Tot_Q>  (188) 
0

>  <i_epik_Tot_abs_Q>  (188) 
0

>  <s_epik_Chemistry_Notes>  (188) 
This compound contains an acetal/aminal-like group ( X-CH(R)-Y where X, Y are N, S, or O) that may be acid/base labile, releasing an aldehyde.

>  <s_lp_Force_Field>  (188) 
OPLS3e

>  <r_lp_Energy>  (188) 
154.962

>  <b_lp_Chiralities_Consistent>  (188) 
1

>  <s_lp_Variant>  (188) 
42:0-3

>  <s_i_glide_gridfile>  (188) 
pfpi4k_grid

>  <i_i_glide_lignum>  (188) 
35

>  <i_i_glide_rotatable_bonds>  (188) 
4

>  <r_i_docking_score>  (188) 
-2.39991

>  <r_i_glide_ligand_efficiency>  (188) 
-0.0799971

>  <r_i_glide_ligand_efficiency_sa>  (188) 
-0.24857

>  <r_i_glide_ligand_efficiency_ln>  (188) 
-0.545287

>  <r_i_glide_gscore>  (188) 
-2.39991

>  <r_i_glide_lipo>  (188) 
-0.104746

>  <r_i_glide_hbond>  (188) 
0

>  <r_i_glide_metal>  (188) 
-0

>  <r_i_glide_rewards>  (188) 
-0.664555

>  <r_i_glide_evdw>  (188) 
-27.6495

>  <r_i_glide_ecoul>  (188) 
-2.99452

>  <r_i_glide_erotb>  (188) 
0.363349

>  <r_i_glide_esite>  (188) 
-0.162306

>  <r_i_glide_emodel>  (188) 
-34.0271

>  <r_i_glide_energy>  (188) 
-30.6441

>  <r_i_glide_einternal>  (188) 
0.868513

>  <r_i_glide_intrahb_reward>  (188) 
-0

>  <i_i_glide_confnum>  (188) 
2

>  <i_i_glide_posenum>  (188) 
23

>  <r_i_glide_eff_state_penalty>  (188) 
0

>  <ligand_id>  (188) 
42

>  <original_smiles>  (188) 
CC(C)(C)c1c(-c2ccc(OC3CC4C5CCC4CN3C5)cc2)nc2ccncn12

>  <smiles>  (188) 
[H]c1nc([H])n2c(C(C([H])([H])[H])(C([H])([H])[H])C([H])([H])[H])c(-c3c([H])c([H])c(OC4([H])N5C([H])([H])C6([H])C([H])([H])C([H])([H])C([H])(C5([H])[H])C6([H])C4([H])[H])c([H])c3[H])nc2c1[H]

$$$$
43:0:0
     RDKit          3D

 70 74  0  0  1  0  0  0  0  0999 V2000
   -0.1892   -8.5231    6.0867 C   0  0  0  0  0  0  0  0  0  0  0  0
    0.5939   -7.4772    5.7289 C   0  0  0  0  0  0  0  0  0  0  0  0
    1.5205   -6.6709    6.6333 C   0  0  1  0  0  0  0  0  0  0  0  0
    1.2863   -6.9197    8.1341 C   0  0  0  0  0  0  0  0  0  0  0  0
    2.9876   -7.0672    6.3164 C   0  0  0  0  0  0  0  0  0  0  0  0
    3.4472   -6.2395    5.1020 C   0  0  0  0  0  0  0  0  0  0  0  0
    2.4410   -5.0672    4.9955 C   0  0  1  0  0  0  0  0  0  0  0  0
    1.5521   -5.1636    6.2463 C   0  0  1  0  0  0  0  0  0  0  0  0
    0.2105   -4.4089    6.0173 C   0  0  1  0  0  0  0  0  0  0  0  0
   -0.2806   -3.9858    7.2889 O   0  0  0  0  0  0  0  0  0  0  0  0
   -1.3992   -4.6208    7.8018 C   0  0  0  0  0  0  0  0  0  0  0  0
   -1.7878   -4.0510    9.0048 O   0  0  0  0  0  0  0  0  0  0  0  0
   -0.8571   -4.2169   10.0732 C   0  0  0  0  0  0  0  0  0  0  0  0
    0.4024   -3.1596    5.0843 C   0  0  1  0  0  0  0  0  0  0  0  0
   -0.6278   -2.2053    5.3990 O   0  0  0  0  0  0  0  0  0  0  0  0
   -0.5054   -0.9890    4.6850 C   0  0  1  0  0  0  0  0  0  0  0  0
   -1.5780    0.0690    4.9746 C   0  0  1  0  0  0  0  0  0  0  0  0
   -1.7461    0.2047    6.3821 O   0  0  0  0  0  0  0  0  0  0  0  0
   -0.9057    1.3419    4.3987 C   0  0  1  0  0  0  0  0  0  0  0  0
   -1.2728    2.5426    5.0695 O   0  0  0  0  0  0  0  0  0  0  0  0
   -2.3852    3.2180    4.5049 C   0  0  0  0  0  0  0  0  0  0  0  0
    0.6267    1.1251    4.4628 C   0  0  0  0  0  0  0  0  0  0  0  0
    0.8169   -0.3074    4.9966 C   0  0  2  0  0  0  0  0  0  0  0  0
    2.0159   -1.1607    4.5359 C   0  0  2  0  0  0  0  0  0  0  0  0
    2.2520   -1.2109    3.0119 C   0  0  0  0  0  0  0  0  0  0  0  0
    3.4688   -2.0787    2.6773 C   0  0  0  0  0  0  0  0  0  0  0  0
    3.2464   -3.5092    3.1840 C   0  0  0  0  0  0  0  0  0  0  0  0
    2.9612   -3.6100    4.7115 C   0  0  2  0  0  0  0  0  0  0  0  0
    4.2677   -3.2961    5.4903 C   0  0  0  0  0  0  0  0  0  0  0  0
    1.8608   -2.5773    5.1706 C   0  0  2  0  0  0  0  0  0  0  0  0
   -0.1957   -8.9044    7.0923 H   0  0  0  0  0  0  0  0  0  0  0  0
   -0.8062   -9.0193    5.3590 H   0  0  0  0  0  0  0  0  0  0  0  0
    0.5578   -7.1862    4.6969 H   0  0  0  0  0  0  0  0  0  0  0  0
    1.9531   -6.3183    8.7436 H   0  0  0  0  0  0  0  0  0  0  0  0
    1.5179   -7.9517    8.4091 H   0  0  0  0  0  0  0  0  0  0  0  0
    0.2900   -6.7165    8.4663 H   0  0  0  0  0  0  0  0  0  0  0  0
    3.6320   -6.7935    7.1507 H   0  0  0  0  0  0  0  0  0  0  0  0
    3.1158   -8.1358    6.1536 H   0  0  0  0  0  0  0  0  0  0  0  0
    4.4928   -5.9345    5.2163 H   0  0  0  0  0  0  0  0  0  0  0  0
    3.4036   -6.8490    4.1899 H   0  0  0  0  0  0  0  0  0  0  0  0
    1.8027   -5.3456    4.1545 H   0  0  0  0  0  0  0  0  0  0  0  0
    2.0929   -4.6394    7.0388 H   0  0  0  0  0  0  0  0  0  0  0  0
   -0.5317   -5.0435    5.5361 H   0  0  0  0  0  0  0  0  0  0  0  0
   -2.2265   -4.4763    7.0989 H   0  0  0  0  0  0  0  0  0  0  0  0
   -1.2595   -5.6706    7.9232 H   0  0  0  0  0  0  0  0  0  0  0  0
   -1.2550   -3.7752   10.9868 H   0  0  0  0  0  0  0  0  0  0  0  0
    0.0991   -3.7325    9.8597 H   0  0  0  0  0  0  0  0  0  0  0  0
   -0.6681   -5.2729   10.2757 H   0  0  0  0  0  0  0  0  0  0  0  0
    0.2396   -3.4747    4.0472 H   0  0  0  0  0  0  0  0  0  0  0  0
   -0.5505   -1.2222    3.6241 H   0  0  0  0  0  0  0  0  0  0  0  0
   -2.5229   -0.1576    4.4930 H   0  0  0  0  0  0  0  0  0  0  0  0
   -0.9730    0.6203    6.7045 H   0  0  0  0  0  0  0  0  0  0  0  0
   -1.1566    1.4217    3.3375 H   0  0  0  0  0  0  0  0  0  0  0  0
   -2.5882    4.1216    5.0777 H   0  0  0  0  0  0  0  0  0  0  0  0
   -3.2815    2.6015    4.5189 H   0  0  0  0  0  0  0  0  0  0  0  0
   -2.1893    3.5197    3.4763 H   0  0  0  0  0  0  0  0  0  0  0  0
    1.0488    1.2723    3.4667 H   0  0  0  0  0  0  0  0  0  0  0  0
    1.1169    1.8530    5.1147 H   0  0  0  0  0  0  0  0  0  0  0  0
    0.8982   -0.2169    6.0827 H   0  0  0  0  0  0  0  0  0  0  0  0
    2.9061   -0.6977    4.9573 H   0  0  0  0  0  0  0  0  0  0  0  0
    1.3809   -1.6051    2.4907 H   0  0  0  0  0  0  0  0  0  0  0  0
    2.4306   -0.2143    2.6104 H   0  0  0  0  0  0  0  0  0  0  0  0
    3.6251   -2.0899    1.5942 H   0  0  0  0  0  0  0  0  0  0  0  0
    4.3780   -1.6486    3.1055 H   0  0  0  0  0  0  0  0  0  0  0  0
    2.4138   -3.9163    2.6116 H   0  0  0  0  0  0  0  0  0  0  0  0
    4.1109   -4.1195    2.9167 H   0  0  0  0  0  0  0  0  0  0  0  0
    4.5416   -2.2429    5.4083 H   0  0  0  0  0  0  0  0  0  0  0  0
    5.1272   -3.8584    5.1199 H   0  0  0  0  0  0  0  0  0  0  0  0
    4.1620   -3.5142    6.5549 H   0  0  0  0  0  0  0  0  0  0  0  0
    2.0099   -2.4157    6.2390 H   0  0  0  0  0  0  0  0  0  0  0  0
  1  2  2  0
  1 31  1  0
  1 32  1  0
  2  3  1  0
  2 33  1  0
  3  8  1  0
  3  4  1  1
  3  5  1  0
  4 34  1  0
  4 35  1  0
  4 36  1  0
  5  6  1  0
  5 37  1  0
  5 38  1  0
  6  7  1  0
  6 39  1  0
  6 40  1  0
  7 28  1  0
  7  8  1  0
  7 41  1  6
  8  9  1  0
  8 42  1  1
  9 10  1  0
  9 14  1  0
  9 43  1  6
 10 11  1  0
 11 12  1  0
 11 44  1  0
 11 45  1  0
 12 13  1  0
 13 46  1  0
 13 47  1  0
 13 48  1  0
 14 30  1  0
 14 15  1  0
 14 49  1  6
 15 16  1  0
 16 23  1  0
 16 17  1  0
 16 50  1  6
 17 18  1  0
 17 19  1  0
 17 51  1  6
 18 52  1  0
 19 20  1  0
 19 22  1  0
 19 53  1  6
 20 21  1  0
 21 54  1  0
 21 55  1  0
 21 56  1  0
 22 23  1  0
 22 57  1  0
 22 58  1  0
 23 24  1  0
 23 59  1  1
 24 30  1  0
 24 25  1  0
 24 60  1  1
 25 26  1  0
 25 61  1  0
 25 62  1  0
 26 27  1  0
 26 63  1  0
 26 64  1  0
 27 28  1  0
 27 65  1  0
 27 66  1  0
 28 29  1  1
 28 30  1  0
 29 67  1  0
 29 68  1  0
 29 69  1  0
 30 70  1  1
M  END
>  <i_m_ct_stereo_status>  (189) 
1

>  <s_m_source_file>  (189) 
/var/tmp/pbs.5076255.sched01/tmpmtrcy7mx/460f9z2a7c.sdf

>  <i_m_source_file_index>  (189) 
36

>  <i_lp_mmshare_version>  (189) 
48012

>  <i_f3d_flags>  (189) 
0

>  <s_epik_input>  (189) 
W0NIMl09W0NIXVtDQEBdKFtDSDNdKShbQ0gyXVtDSDJdMSlbQ0BASF0oW0NASF0xW0NAQF0yM1tDSDNdKVtDQEBIXShPW0NIMl1PW0NIM10pW0NAQEhdNFtDQEBIXTNbQ0BASF0oW0NIMl1bQ0gyXVtDSDJdMilbQ0BASF01W0NAQEhdKE80KVtDQEBIXShbT0hdKVtDQEhdKFtDSDJdNSlPW0NIM10=

>  <s_epik_cmdline>  (189) 
J2VwaWtfcHl0aG9uJywgJy1waHQnLCAnMi4wJywgJy1waCcsICc3LjAnLCAnLXRuJywgJzgnLCAnLW1hJywgJzIwMCcsICctaW1hZScsICc8aW5maWxlLm1hZT4nLCAnLW9tYWUnLCAnPG91dGZpbGUubWFlPic=

>  <r_lp_tautomer_probability>  (189) 
1

>  <r_epik_Ionization_Penalty>  (189) 
7.1528e-08

>  <r_epik_Ionization_Penalty_Charging>  (189) 
0

>  <r_epik_Ionization_Penalty_Neutral>  (189) 
7.1528e-08

>  <r_epik_State_Penalty>  (189) 
-0

>  <r_epik_Charging_Adjusted_Penalty>  (189) 
0

>  <i_epik_Tot_Q>  (189) 
0

>  <i_epik_Tot_abs_Q>  (189) 
0

>  <s_epik_Chemistry_Notes>  (189) 
This compound contains an acetal/aminal-like group ( X-CH(R)-Y where X, Y are N, S, or O) that may be acid/base labile, releasing an aldehyde.

>  <s_lp_Force_Field>  (189) 
OPLS3e

>  <r_lp_Energy>  (189) 
77.3753

>  <b_lp_Chiralities_Consistent>  (189) 
1

>  <s_lp_Variant>  (189) 
43:0-1

>  <s_i_glide_gridfile>  (189) 
pfpi4k_grid

>  <i_i_glide_lignum>  (189) 
36

>  <i_i_glide_rotatable_bonds>  (189) 
6

>  <r_i_docking_score>  (189) 
-2.21121

>  <r_i_glide_ligand_efficiency>  (189) 
-0.0737071

>  <r_i_glide_ligand_efficiency_sa>  (189) 
-0.229025

>  <r_i_glide_ligand_efficiency_ln>  (189) 
-0.502412

>  <r_i_glide_gscore>  (189) 
-2.21121

>  <r_i_glide_lipo>  (189) 
-0.00253583

>  <r_i_glide_hbond>  (189) 
-0.037448

>  <r_i_glide_metal>  (189) 
-0

>  <r_i_glide_rewards>  (189) 
-0.541486

>  <r_i_glide_evdw>  (189) 
-17.5907

>  <r_i_glide_ecoul>  (189) 
-7.23037

>  <r_i_glide_erotb>  (189) 
0.335697

>  <r_i_glide_esite>  (189) 
-0.00135025

>  <r_i_glide_emodel>  (189) 
-25.5009

>  <r_i_glide_energy>  (189) 
-24.8211

>  <r_i_glide_einternal>  (189) 
4.71261

>  <r_i_glide_intrahb_reward>  (189) 
-0

>  <i_i_glide_confnum>  (189) 
1

>  <i_i_glide_posenum>  (189) 
39

>  <r_i_glide_eff_state_penalty>  (189) 
0

>  <ligand_id>  (189) 
43

>  <original_smiles>  (189) 
C=CC1(C)CCC2C1C(OCOC)C1OC3C(O)C(OC)CC3C3CCCC2(C)C31

>  <smiles>  (189) 
[H]OC1([H])C([H])(OC([H])([H])[H])C([H])([H])C2([H])C1([H])OC1([H])C([H])(OC([H])([H])OC([H])([H])[H])C3([H])C([H])(C([H])([H])C([H])([H])C3(C([H])=C([H])[H])C([H])([H])[H])C3(C([H])([H])[H])C([H])([H])C([H])([H])C([H])([H])C2([H])C13[H]

$$$$
44:0:0
     RDKit          3D

 39 42  0  0  1  0  0  0  0  0999 V2000
    5.3063   -1.7378    3.7076 C   0  0  0  0  0  0  0  0  0  0  0  0
    4.9426   -0.5760    2.7735 C   0  0  2  0  0  0  0  0  0  0  0  0
    3.8551    0.2935    3.3626 C   0  0  0  0  0  0  0  0  0  0  0  0
    3.9083    1.0525    4.5265 N   0  0  0  0  0  0  0  0  0  0  0  0
    2.7836    1.6884    4.6629 N   0  0  0  0  0  0  0  0  0  0  0  0
    1.9797    1.3704    3.6058 N   0  0  0  0  0  0  0  0  0  0  0  0
    0.6617    1.9092    3.4832 C   0  0  0  0  0  0  0  0  0  0  0  0
    0.2529    3.0245    4.2588 C   0  0  0  0  0  0  0  0  0  0  0  0
   -0.9943    3.5479    4.1759 N   0  0  0  0  0  0  0  0  0  0  0  0
   -1.8296    2.9648    3.2911 C   0  0  0  0  0  0  0  0  0  0  0  0
   -1.4338    1.8563    2.5195 C   0  0  0  0  0  0  0  0  0  0  0  0
   -0.2024    1.3239    2.6251 N   0  0  0  0  0  0  0  0  0  0  0  0
    2.6475    0.4870    2.7809 C   0  0  0  0  0  0  0  0  0  0  0  0
    2.2250   -0.1883    1.5362 C   0  0  0  0  0  0  0  0  0  0  0  0
    3.0899   -1.4592    1.3556 C   0  0  0  0  0  0  0  0  0  0  0  0
    4.5381   -1.1077    1.4351 N   0  0  0  0  0  0  0  0  0  0  0  0
    5.4603   -1.2713    0.4366 C   0  0  0  0  0  0  0  0  0  0  0  0
    6.6638   -1.0592    0.6133 O   0  0  0  0  0  0  0  0  0  0  0  0
    5.0375   -1.7883   -0.9252 C   0  0  0  0  0  0  0  0  0  0  0  0
    3.8571   -1.3404   -1.5627 C   0  0  0  0  0  0  0  0  0  0  0  0
    3.4745   -1.8776   -2.7974 C   0  0  0  0  0  0  0  0  0  0  0  0
    4.3213   -2.8167   -3.4046 C   0  0  0  0  0  0  0  0  0  0  0  0
    5.5066   -3.1695   -2.7304 C   0  0  0  0  0  0  0  0  0  0  0  0
    5.8685   -2.6640   -1.5367 N   0  0  0  0  0  0  0  0  0  0  0  0
    5.6852   -1.3612    4.6610 H   0  0  0  0  0  0  0  0  0  0  0  0
    6.0854   -2.3512    3.2531 H   0  0  0  0  0  0  0  0  0  0  0  0
    4.4517   -2.3827    3.9122 H   0  0  0  0  0  0  0  0  0  0  0  0
    5.8258    0.0549    2.6727 H   0  0  0  0  0  0  0  0  0  0  0  0
    0.9210    3.5039    4.9649 H   0  0  0  0  0  0  0  0  0  0  0  0
   -2.8216    3.3799    3.2027 H   0  0  0  0  0  0  0  0  0  0  0  0
   -2.1089    1.3899    1.8181 H   0  0  0  0  0  0  0  0  0  0  0  0
    1.1784   -0.4808    1.5602 H   0  0  0  0  0  0  0  0  0  0  0  0
    2.3328    0.5097    0.7055 H   0  0  0  0  0  0  0  0  0  0  0  0
    2.8731   -2.1221    2.2035 H   0  0  0  0  0  0  0  0  0  0  0  0
    2.7770   -2.0273    0.4787 H   0  0  0  0  0  0  0  0  0  0  0  0
    3.1843   -0.6528   -1.0927 H   0  0  0  0  0  0  0  0  0  0  0  0
    2.5318   -1.5910   -3.2349 H   0  0  0  0  0  0  0  0  0  0  0  0
    4.0466   -3.2737   -4.3475 H   0  0  0  0  0  0  0  0  0  0  0  0
    6.1994   -3.8600   -3.1771 H   0  0  0  0  0  0  0  0  0  0  0  0
  1  2  1  0
  1 25  1  0
  1 26  1  0
  1 27  1  0
  2 16  1  0
  2  3  1  0
  2 28  1  6
  3 13  2  0
  3  4  1  0
  4  5  2  0
  5  6  1  0
  6  7  1  0
  6 13  1  0
  7 12  1  0
  7  8  2  0
  8  9  1  0
  8 29  1  0
  9 10  2  0
 10 11  1  0
 10 30  1  0
 11 12  2  0
 11 31  1  0
 13 14  1  0
 14 15  1  0
 14 32  1  0
 14 33  1  0
 15 16  1  0
 15 34  1  0
 15 35  1  0
 16 17  1  0
 17 18  2  0
 17 19  1  0
 19 24  1  0
 19 20  2  0
 20 21  1  0
 20 36  1  0
 21 22  2  0
 21 37  1  0
 22 23  1  0
 22 38  1  0
 23 24  2  0
 23 39  1  0
M  END
>  <i_m_ct_stereo_status>  (190) 
1

>  <s_m_source_file>  (190) 
/var/tmp/pbs.5076255.sched01/tmpmtrcy7mx/460f9z2a7c.sdf

>  <i_m_source_file_index>  (190) 
37

>  <i_lp_mmshare_version>  (190) 
48012

>  <i_f3d_flags>  (190) 
0

>  <s_epik_input>  (190) 
bjFbY0hdW2NIXVtjSF1bY0hdYzFDKD1PKU4oW0NAQEhdMltDSDNdKVtDSDJdW0NIMl1jKGMyMyluKG5uMyktYzRbY0hdbltjSF1bY0hdbjQ=

>  <s_epik_cmdline>  (190) 
J2VwaWtfcHl0aG9uJywgJy1waHQnLCAnMi4wJywgJy1waCcsICc3LjAnLCAnLXRuJywgJzgnLCAnLW1hJywgJzIwMCcsICctaW1hZScsICc8aW5maWxlLm1hZT4nLCAnLW9tYWUnLCAnPG91dGZpbGUubWFlPic=

>  <r_lp_tautomer_probability>  (190) 
1

>  <r_epik_Ionization_Penalty>  (190) 
4.9769e-06

>  <r_epik_Ionization_Penalty_Charging>  (190) 
0

>  <r_epik_Ionization_Penalty_Neutral>  (190) 
4.9769e-06

>  <r_epik_State_Penalty>  (190) 
-0

>  <r_epik_Charging_Adjusted_Penalty>  (190) 
0

>  <i_epik_Tot_Q>  (190) 
0

>  <i_epik_Tot_abs_Q>  (190) 
0

>  <s_lp_Force_Field>  (190) 
OPLS3e

>  <r_lp_Energy>  (190) 
45.7604

>  <b_lp_Chiralities_Consistent>  (190) 
1

>  <s_lp_Variant>  (190) 
44:0-1

>  <s_i_glide_gridfile>  (190) 
pfpi4k_grid

>  <i_i_glide_lignum>  (190) 
37

>  <i_i_glide_rotatable_bonds>  (190) 
3

>  <r_i_docking_score>  (190) 
-3.35314

>  <r_i_glide_ligand_efficiency>  (190) 
-0.139714

>  <r_i_glide_ligand_efficiency_sa>  (190) 
-0.403006

>  <r_i_glide_ligand_efficiency_ln>  (190) 
-0.802561

>  <r_i_glide_gscore>  (190) 
-3.35314

>  <r_i_glide_lipo>  (190) 
-0.558988

>  <r_i_glide_hbond>  (190) 
0

>  <r_i_glide_metal>  (190) 
-0

>  <r_i_glide_rewards>  (190) 
-1.41413

>  <r_i_glide_evdw>  (190) 
-30.979

>  <r_i_glide_ecoul>  (190) 
-2.17697

>  <r_i_glide_erotb>  (190) 
0.542873

>  <r_i_glide_esite>  (190) 
-0.0473978

>  <r_i_glide_emodel>  (190) 
-39.3371

>  <r_i_glide_energy>  (190) 
-33.156

>  <r_i_glide_einternal>  (190) 
1.18702

>  <r_i_glide_intrahb_reward>  (190) 
-0

>  <i_i_glide_confnum>  (190) 
1

>  <i_i_glide_posenum>  (190) 
6

>  <r_i_glide_eff_state_penalty>  (190) 
0

>  <ligand_id>  (190) 
44

>  <original_smiles>  (190) 
CC1c2nnn(-c3cnccn3)c2CCN1C(=O)c1ccccn1

>  <smiles>  (190) 
[H]c1nc([H])c(-n2nnc3c2C([H])([H])C([H])([H])N(C(=O)c2nc([H])c([H])c([H])c2[H])C3([H])C([H])([H])[H])nc1[H]

$$$$
44:0:1
     RDKit          3D

 39 42  0  0  1  0  0  0  0  0999 V2000
    4.7582   -1.9044    3.2390 C   0  0  0  0  0  0  0  0  0  0  0  0
    3.4948   -2.1983    2.4101 C   0  0  2  0  0  0  0  0  0  0  0  0
    2.5627   -3.1566    3.1097 C   0  0  0  0  0  0  0  0  0  0  0  0
    1.8909   -2.9536    4.3147 N   0  0  0  0  0  0  0  0  0  0  0  0
    1.1761   -4.0072    4.5788 N   0  0  0  0  0  0  0  0  0  0  0  0
    1.3285   -4.8900    3.5546 N   0  0  0  0  0  0  0  0  0  0  0  0
    0.6229   -6.1227    3.5378 C   0  0  0  0  0  0  0  0  0  0  0  0
    0.3034   -6.7829    4.7522 C   0  0  0  0  0  0  0  0  0  0  0  0
   -0.3706   -7.9561    4.7814 N   0  0  0  0  0  0  0  0  0  0  0  0
   -0.7141   -8.4861    3.5879 C   0  0  0  0  0  0  0  0  0  0  0  0
   -0.4128   -7.8330    2.3764 C   0  0  0  0  0  0  0  0  0  0  0  0
    0.2340   -6.6463    2.3478 N   0  0  0  0  0  0  0  0  0  0  0  0
    2.2033   -4.3670    2.6183 C   0  0  0  0  0  0  0  0  0  0  0  0
    2.7010   -4.9353    1.3433 C   0  0  0  0  0  0  0  0  0  0  0  0
    4.0036   -4.1982    0.9673 C   0  0  0  0  0  0  0  0  0  0  0  0
    3.8688   -2.7159    1.0609 N   0  0  0  0  0  0  0  0  0  0  0  0
    4.1025   -1.8684    0.0243 C   0  0  0  0  0  0  0  0  0  0  0  0
    4.1958   -0.6489    0.1560 O   0  0  0  0  0  0  0  0  0  0  0  0
    4.2215   -2.4485   -1.3591 C   0  0  0  0  0  0  0  0  0  0  0  0
    3.0723   -2.6487   -2.1577 C   0  0  0  0  0  0  0  0  0  0  0  0
    3.2170   -3.1550   -3.4627 C   0  0  0  0  0  0  0  0  0  0  0  0
    4.5125   -3.4638   -3.9104 C   0  0  0  0  0  0  0  0  0  0  0  0
    5.5945   -3.2368   -3.0404 C   0  0  0  0  0  0  0  0  0  0  0  0
    5.4666   -2.7244   -1.8022 N   0  0  0  0  0  0  0  0  0  0  0  0
    4.4936   -1.4412    4.1897 H   0  0  0  0  0  0  0  0  0  0  0  0
    5.4243   -1.2151    2.7169 H   0  0  0  0  0  0  0  0  0  0  0  0
    5.3196   -2.8144    3.4567 H   0  0  0  0  0  0  0  0  0  0  0  0
    2.9555   -1.2571    2.2853 H   0  0  0  0  0  0  0  0  0  0  0  0
    0.5885   -6.3850    5.7176 H   0  0  0  0  0  0  0  0  0  0  0  0
   -1.2355   -9.4294    3.5993 H   0  0  0  0  0  0  0  0  0  0  0  0
   -0.6977   -8.2555    1.4269 H   0  0  0  0  0  0  0  0  0  0  0  0
    2.8759   -6.0056    1.4400 H   0  0  0  0  0  0  0  0  0  0  0  0
    1.9623   -4.7957    0.5561 H   0  0  0  0  0  0  0  0  0  0  0  0
    4.7589   -4.4804    1.7059 H   0  0  0  0  0  0  0  0  0  0  0  0
    4.3848   -4.5680    0.0137 H   0  0  0  0  0  0  0  0  0  0  0  0
    2.0874   -2.4093   -1.7964 H   0  0  0  0  0  0  0  0  0  0  0  0
    2.3579   -3.3159   -4.1023 H   0  0  0  0  0  0  0  0  0  0  0  0
    4.6810   -3.8890   -4.8859 H   0  0  0  0  0  0  0  0  0  0  0  0
    6.6015   -3.4556   -3.3558 H   0  0  0  0  0  0  0  0  0  0  0  0
  1  2  1  0
  1 25  1  0
  1 26  1  0
  1 27  1  0
  2 16  1  0
  2  3  1  0
  2 28  1  6
  3 13  2  0
  3  4  1  0
  4  5  2  0
  5  6  1  0
  6  7  1  0
  6 13  1  0
  7 12  1  0
  7  8  2  0
  8  9  1  0
  8 29  1  0
  9 10  2  0
 10 11  1  0
 10 30  1  0
 11 12  2  0
 11 31  1  0
 13 14  1  0
 14 15  1  0
 14 32  1  0
 14 33  1  0
 15 16  1  0
 15 34  1  0
 15 35  1  0
 16 17  1  0
 17 18  2  0
 17 19  1  0
 19 24  1  0
 19 20  2  0
 20 21  1  0
 20 36  1  0
 21 22  2  0
 21 37  1  0
 22 23  1  0
 22 38  1  0
 23 24  2  0
 23 39  1  0
M  END
>  <i_m_ct_stereo_status>  (191) 
1

>  <s_m_source_file>  (191) 
/var/tmp/pbs.5076255.sched01/tmpmtrcy7mx/460f9z2a7c.sdf

>  <i_m_source_file_index>  (191) 
37

>  <i_lp_mmshare_version>  (191) 
48012

>  <i_f3d_flags>  (191) 
0

>  <s_epik_input>  (191) 
bjFbY0hdW2NIXVtjSF1bY0hdYzFDKD1PKU4oW0NAQEhdMltDSDNdKVtDSDJdW0NIMl1jKGMyMyluKG5uMyktYzRbY0hdbltjSF1bY0hdbjQ=

>  <s_epik_cmdline>  (191) 
J2VwaWtfcHl0aG9uJywgJy1waHQnLCAnMi4wJywgJy1waCcsICc3LjAnLCAnLXRuJywgJzgnLCAnLW1hJywgJzIwMCcsICctaW1hZScsICc8aW5maWxlLm1hZT4nLCAnLW9tYWUnLCAnPG91dGZpbGUubWFlPic=

>  <r_lp_tautomer_probability>  (191) 
1

>  <r_epik_Ionization_Penalty>  (191) 
4.9769e-06

>  <r_epik_Ionization_Penalty_Charging>  (191) 
0

>  <r_epik_Ionization_Penalty_Neutral>  (191) 
4.9769e-06

>  <r_epik_State_Penalty>  (191) 
-0

>  <r_epik_Charging_Adjusted_Penalty>  (191) 
0

>  <i_epik_Tot_Q>  (191) 
0

>  <i_epik_Tot_abs_Q>  (191) 
0

>  <s_lp_Force_Field>  (191) 
OPLS3e

>  <r_lp_Energy>  (191) 
45.7604

>  <b_lp_Chiralities_Consistent>  (191) 
1

>  <s_lp_Variant>  (191) 
44:0-1

>  <s_i_glide_gridfile>  (191) 
pfpi4k_grid

>  <i_i_glide_lignum>  (191) 
37

>  <i_i_glide_rotatable_bonds>  (191) 
3

>  <r_i_docking_score>  (191) 
-3.25678

>  <r_i_glide_ligand_efficiency>  (191) 
-0.135699

>  <r_i_glide_ligand_efficiency_sa>  (191) 
-0.391424

>  <r_i_glide_ligand_efficiency_ln>  (191) 
-0.779497

>  <r_i_glide_gscore>  (191) 
-3.25678

>  <r_i_glide_lipo>  (191) 
-0.525747

>  <r_i_glide_hbond>  (191) 
-0.0776581

>  <r_i_glide_metal>  (191) 
-0

>  <r_i_glide_rewards>  (191) 
-1.21816

>  <r_i_glide_evdw>  (191) 
-30.5473

>  <r_i_glide_ecoul>  (191) 
-2.46191

>  <r_i_glide_erotb>  (191) 
0.542873

>  <r_i_glide_esite>  (191) 
-0.0814365

>  <r_i_glide_emodel>  (191) 
-39.1829

>  <r_i_glide_energy>  (191) 
-33.0092

>  <r_i_glide_einternal>  (191) 
2.4173

>  <r_i_glide_intrahb_reward>  (191) 
-0

>  <i_i_glide_confnum>  (191) 
1

>  <i_i_glide_posenum>  (191) 
2

>  <r_i_glide_eff_state_penalty>  (191) 
0

>  <ligand_id>  (191) 
44

>  <original_smiles>  (191) 
CC1c2nnn(-c3cnccn3)c2CCN1C(=O)c1ccccn1

>  <smiles>  (191) 
[H]c1nc([H])c(-n2nnc3c2C([H])([H])C([H])([H])N(C(=O)c2nc([H])c([H])c([H])c2[H])C3([H])C([H])([H])[H])nc1[H]

$$$$
44:0:2
     RDKit          3D

 39 42  0  0  1  0  0  0  0  0999 V2000
    5.0038   -1.5485    3.7592 C   0  0  0  0  0  0  0  0  0  0  0  0
    4.6023   -0.4269    2.7884 C   0  0  2  0  0  0  0  0  0  0  0  0
    3.6025    0.5310    3.4030 C   0  0  0  0  0  0  0  0  0  0  0  0
    3.7782    1.3515    4.5139 N   0  0  0  0  0  0  0  0  0  0  0  0
    2.6935    2.0472    4.7014 N   0  0  0  0  0  0  0  0  0  0  0  0
    1.8001    1.7092    3.7260 N   0  0  0  0  0  0  0  0  0  0  0  0
    0.4949    2.2916    3.6733 C   0  0  0  0  0  0  0  0  0  0  0  0
    0.1941    3.4694    4.4080 C   0  0  0  0  0  0  0  0  0  0  0  0
   -1.0351    4.0467    4.3951 N   0  0  0  0  0  0  0  0  0  0  0  0
   -1.9624    3.4492    3.6161 C   0  0  0  0  0  0  0  0  0  0  0  0
   -1.6802    2.2835    2.8854 C   0  0  0  0  0  0  0  0  0  0  0  0
   -0.4653    1.6983    2.9249 N   0  0  0  0  0  0  0  0  0  0  0  0
    2.3609    0.7567    2.9015 C   0  0  0  0  0  0  0  0  0  0  0  0
    1.8153    0.0581    1.7281 C   0  0  0  0  0  0  0  0  0  0  0  0
    2.6128   -1.2366    1.5354 C   0  0  0  0  0  0  0  0  0  0  0  0
    4.0833   -1.0137    1.5188 N   0  0  0  0  0  0  0  0  0  0  0  0
    4.9213   -1.2996    0.4754 C   0  0  0  0  0  0  0  0  0  0  0  0
    6.1451   -1.1751    0.5590 O   0  0  0  0  0  0  0  0  0  0  0  0
    4.3417   -1.6937   -0.8665 C   0  0  0  0  0  0  0  0  0  0  0  0
    3.4819   -2.8022   -1.0093 C   0  0  0  0  0  0  0  0  0  0  0  0
    2.9075   -3.0595   -2.2654 C   0  0  0  0  0  0  0  0  0  0  0  0
    3.3036   -2.2916   -3.3718 C   0  0  0  0  0  0  0  0  0  0  0  0
    4.2144   -1.2496   -3.1515 C   0  0  0  0  0  0  0  0  0  0  0  0
    4.7289   -0.9568   -1.9357 N   0  0  0  0  0  0  0  0  0  0  0  0
    5.4609   -1.1303    4.6592 H   0  0  0  0  0  0  0  0  0  0  0  0
    5.7317   -2.2219    3.2983 H   0  0  0  0  0  0  0  0  0  0  0  0
    4.1391   -2.1409    4.0658 H   0  0  0  0  0  0  0  0  0  0  0  0
    5.5066    0.1412    2.5730 H   0  0  0  0  0  0  0  0  0  0  0  0
    0.9372    3.9557    5.0280 H   0  0  0  0  0  0  0  0  0  0  0  0
   -2.9385    3.9031    3.5771 H   0  0  0  0  0  0  0  0  0  0  0  0
   -2.4226    1.8148    2.2592 H   0  0  0  0  0  0  0  0  0  0  0  0
    0.7691   -0.2090    1.8504 H   0  0  0  0  0  0  0  0  0  0  0  0
    1.8834    0.6942    0.8496 H   0  0  0  0  0  0  0  0  0  0  0  0
    2.3954   -1.9074    2.3759 H   0  0  0  0  0  0  0  0  0  0  0  0
    2.1844   -1.7020    0.6620 H   0  0  0  0  0  0  0  0  0  0  0  0
    3.2193   -3.4219   -0.1637 H   0  0  0  0  0  0  0  0  0  0  0  0
    2.1913   -3.8550   -2.3779 H   0  0  0  0  0  0  0  0  0  0  0  0
    2.8969   -2.5007   -4.3527 H   0  0  0  0  0  0  0  0  0  0  0  0
    4.5544   -0.6413   -3.9773 H   0  0  0  0  0  0  0  0  0  0  0  0
  1  2  1  0
  1 25  1  0
  1 26  1  0
  1 27  1  0
  2 16  1  0
  2  3  1  0
  2 28  1  6
  3 13  2  0
  3  4  1  0
  4  5  2  0
  5  6  1  0
  6  7  1  0
  6 13  1  0
  7 12  1  0
  7  8  2  0
  8  9  1  0
  8 29  1  0
  9 10  2  0
 10 11  1  0
 10 30  1  0
 11 12  2  0
 11 31  1  0
 13 14  1  0
 14 15  1  0
 14 32  1  0
 14 33  1  0
 15 16  1  0
 15 34  1  0
 15 35  1  0
 16 17  1  0
 17 18  2  0
 17 19  1  0
 19 24  1  0
 19 20  2  0
 20 21  1  0
 20 36  1  0
 21 22  2  0
 21 37  1  0
 22 23  1  0
 22 38  1  0
 23 24  2  0
 23 39  1  0
M  END
>  <i_m_ct_stereo_status>  (192) 
1

>  <s_m_source_file>  (192) 
/var/tmp/pbs.5076255.sched01/tmpmtrcy7mx/460f9z2a7c.sdf

>  <i_m_source_file_index>  (192) 
37

>  <i_lp_mmshare_version>  (192) 
48012

>  <i_f3d_flags>  (192) 
0

>  <s_epik_input>  (192) 
bjFbY0hdW2NIXVtjSF1bY0hdYzFDKD1PKU4oW0NAQEhdMltDSDNdKVtDSDJdW0NIMl1jKGMyMyluKG5uMyktYzRbY0hdbltjSF1bY0hdbjQ=

>  <s_epik_cmdline>  (192) 
J2VwaWtfcHl0aG9uJywgJy1waHQnLCAnMi4wJywgJy1waCcsICc3LjAnLCAnLXRuJywgJzgnLCAnLW1hJywgJzIwMCcsICctaW1hZScsICc8aW5maWxlLm1hZT4nLCAnLW9tYWUnLCAnPG91dGZpbGUubWFlPic=

>  <r_lp_tautomer_probability>  (192) 
1

>  <r_epik_Ionization_Penalty>  (192) 
4.9769e-06

>  <r_epik_Ionization_Penalty_Charging>  (192) 
0

>  <r_epik_Ionization_Penalty_Neutral>  (192) 
4.9769e-06

>  <r_epik_State_Penalty>  (192) 
-0

>  <r_epik_Charging_Adjusted_Penalty>  (192) 
0

>  <i_epik_Tot_Q>  (192) 
0

>  <i_epik_Tot_abs_Q>  (192) 
0

>  <s_lp_Force_Field>  (192) 
OPLS3e

>  <r_lp_Energy>  (192) 
45.7604

>  <b_lp_Chiralities_Consistent>  (192) 
1

>  <s_lp_Variant>  (192) 
44:0-1

>  <s_i_glide_gridfile>  (192) 
pfpi4k_grid

>  <i_i_glide_lignum>  (192) 
37

>  <i_i_glide_rotatable_bonds>  (192) 
3

>  <r_i_docking_score>  (192) 
-3.16155

>  <r_i_glide_ligand_efficiency>  (192) 
-0.131731

>  <r_i_glide_ligand_efficiency_sa>  (192) 
-0.379978

>  <r_i_glide_ligand_efficiency_ln>  (192) 
-0.756704

>  <r_i_glide_gscore>  (192) 
-3.16155

>  <r_i_glide_lipo>  (192) 
-0.385473

>  <r_i_glide_hbond>  (192) 
0

>  <r_i_glide_metal>  (192) 
-0

>  <r_i_glide_rewards>  (192) 
-1.30869

>  <r_i_glide_evdw>  (192) 
-32.4992

>  <r_i_glide_ecoul>  (192) 
-2.15788

>  <r_i_glide_erotb>  (192) 
0.542873

>  <r_i_glide_esite>  (192) 
-0.0616192

>  <r_i_glide_emodel>  (192) 
-40.5317

>  <r_i_glide_energy>  (192) 
-34.6571

>  <r_i_glide_einternal>  (192) 
1.22842

>  <r_i_glide_intrahb_reward>  (192) 
-0

>  <i_i_glide_confnum>  (192) 
1

>  <i_i_glide_posenum>  (192) 
13

>  <r_i_glide_eff_state_penalty>  (192) 
0

>  <ligand_id>  (192) 
44

>  <original_smiles>  (192) 
CC1c2nnn(-c3cnccn3)c2CCN1C(=O)c1ccccn1

>  <smiles>  (192) 
[H]c1nc([H])c(-n2nnc3c2C([H])([H])C([H])([H])N(C(=O)c2nc([H])c([H])c([H])c2[H])C3([H])C([H])([H])[H])nc1[H]

$$$$
45:0:0
     RDKit          3D

 85 91  0  0  1  0  0  0  0  0999 V2000
    7.0061  -10.0523    2.9713 C   0  0  0  0  0  0  0  0  0  0  0  0
    5.9716  -11.0390    3.4593 C   0  0  0  0  0  0  0  0  0  0  0  0
    4.6531  -11.0039    3.6204 C   0  0  0  0  0  0  0  0  0  0  0  0
    4.1677  -12.2922    4.1849 C   0  0  1  0  0  0  0  0  0  0  0  0
    5.3218  -12.9479    4.6057 O   0  0  0  0  0  0  0  0  0  0  0  0
    6.3927  -12.3453    3.9977 C   0  0  0  0  0  0  0  0  0  0  0  0
    7.5341  -12.8079    3.9539 O   0  0  0  0  0  0  0  0  0  0  0  0
    3.2027  -11.9513    5.1350 O   0  0  0  0  0  0  0  0  0  0  0  0
    3.1217  -10.5274    5.0843 C   0  0  2  0  0  0  0  0  0  0  0  0
    1.8965   -9.7448    5.5244 C   0  0  1  0  0  0  0  0  0  0  0  0
    0.6145  -10.5092    5.2737 C   0  0  0  0  0  0  0  0  0  0  0  0
    1.9713   -9.4771    6.9066 O   0  0  0  0  0  0  0  0  0  0  0  0
    2.0332   -8.4599    4.6601 C   0  0  1  0  0  0  0  0  0  0  0  0
    1.6175   -7.0963    5.2339 C   0  0  0  0  0  0  0  0  0  0  0  0
    2.1724   -5.9181    4.4013 C   0  0  0  0  0  0  0  0  0  0  0  0
    2.3613   -6.1755    2.8688 C   0  0  1  0  0  0  0  0  0  0  0  0
    0.9329   -6.3517    2.2703 C   0  0  0  0  0  0  0  0  0  0  0  0
    2.9267   -4.8734    2.1342 C   0  0  1  0  0  0  0  0  0  0  0  0
    2.5960   -3.5277    2.8379 C   0  0  0  0  0  0  0  0  0  0  0  0
    2.9986   -2.2785    2.0330 C   0  0  0  0  0  0  0  0  0  0  0  0
    4.4895   -2.2770    1.6383 C   0  0  2  0  0  0  0  0  0  0  0  0
    5.3693   -2.0911    2.9063 C   0  0  0  0  0  0  0  0  0  0  0  0
    4.7476   -1.0249    0.7555 C   0  0  0  0  0  0  0  0  0  0  0  0
    5.3596   -0.0396    1.1601 O   0  0  0  0  0  0  0  0  0  0  0  0
    4.2122   -1.0421   -0.6699 C   0  0  0  0  0  0  0  0  0  0  0  0
    4.6745   -2.2930   -1.4071 C   0  0  1  0  0  0  0  0  0  0  0  0
    6.1830   -2.2517   -1.7305 C   0  0  0  0  0  0  0  0  0  0  0  0
    4.2400   -3.5423   -0.6183 C   0  0  1  0  0  0  0  0  0  0  0  0
    4.6856   -4.5930   -1.4343 O   0  0  0  0  0  0  0  0  0  0  0  0
    4.8139   -3.6136    0.8450 C   0  0  2  0  0  0  0  0  0  0  0  0
    4.3972   -4.9174    1.6520 C   0  0  1  0  0  0  0  0  0  0  0  0
    5.2785   -4.9963    2.7541 O   0  0  0  0  0  0  0  0  0  0  0  0
    4.5843   -6.2394    0.8857 C   0  0  0  0  0  0  0  0  0  0  0  0
    4.4861   -7.4524    1.7984 C   0  0  0  0  0  0  0  0  0  0  0  0
    3.1843   -7.5408    2.6177 C   0  0  1  0  0  0  0  0  0  0  0  0
    3.3935   -8.4802    3.8874 C   0  0  1  0  0  0  0  0  0  0  0  0
    4.5318   -7.9520    4.8153 C   0  0  0  0  0  0  0  0  0  0  0  0
    3.4816  -10.0445    3.6590 C   0  0  1  0  0  0  0  0  0  0  0  0
    2.5358  -10.5148    2.5128 C   0  0  0  0  0  0  0  0  0  0  0  0
    7.3436  -10.3582    1.9845 H   0  0  0  0  0  0  0  0  0  0  0  0
    7.8716  -10.0686    3.6294 H   0  0  0  0  0  0  0  0  0  0  0  0
    6.6455   -9.0372    2.9165 H   0  0  0  0  0  0  0  0  0  0  0  0
    3.6890  -12.8756    3.3971 H   0  0  0  0  0  0  0  0  0  0  0  0
    3.9207  -10.2234    5.7683 H   0  0  0  0  0  0  0  0  0  0  0  0
    0.4779  -10.8149    4.2362 H   0  0  0  0  0  0  0  0  0  0  0  0
   -0.2303   -9.8802    5.5538 H   0  0  0  0  0  0  0  0  0  0  0  0
    0.5431  -11.4191    5.8580 H   0  0  0  0  0  0  0  0  0  0  0  0
    1.8350  -10.3125    7.3434 H   0  0  0  0  0  0  0  0  0  0  0  0
    1.2655   -8.6066    3.9120 H   0  0  0  0  0  0  0  0  0  0  0  0
    0.5241   -7.0456    5.2241 H   0  0  0  0  0  0  0  0  0  0  0  0
    1.9130   -6.9793    6.2755 H   0  0  0  0  0  0  0  0  0  0  0  0
    1.4987   -5.0827    4.5744 H   0  0  0  0  0  0  0  0  0  0  0  0
    3.1275   -5.6119    4.8258 H   0  0  0  0  0  0  0  0  0  0  0  0
    0.9668   -6.5494    1.1963 H   0  0  0  0  0  0  0  0  0  0  0  0
    0.3450   -5.4521    2.4265 H   0  0  0  0  0  0  0  0  0  0  0  0
    0.3652   -7.1648    2.7155 H   0  0  0  0  0  0  0  0  0  0  0  0
    2.3751   -4.8088    1.1955 H   0  0  0  0  0  0  0  0  0  0  0  0
    1.5223   -3.4579    3.0193 H   0  0  0  0  0  0  0  0  0  0  0  0
    3.0726   -3.4826    3.8235 H   0  0  0  0  0  0  0  0  0  0  0  0
    2.3692   -2.2104    1.1448 H   0  0  0  0  0  0  0  0  0  0  0  0
    2.7778   -1.3827    2.6169 H   0  0  0  0  0  0  0  0  0  0  0  0
    5.1334   -2.7539    3.7340 H   0  0  0  0  0  0  0  0  0  0  0  0
    5.2833   -1.0949    3.3415 H   0  0  0  0  0  0  0  0  0  0  0  0
    6.4120   -2.2351    2.6340 H   0  0  0  0  0  0  0  0  0  0  0  0
    3.1238   -0.9944   -0.6428 H   0  0  0  0  0  0  0  0  0  0  0  0
    4.5593   -0.1482   -1.1873 H   0  0  0  0  0  0  0  0  0  0  0  0
    4.1630   -2.2914   -2.3724 H   0  0  0  0  0  0  0  0  0  0  0  0
    6.8226   -2.2232   -0.8445 H   0  0  0  0  0  0  0  0  0  0  0  0
    6.3567   -1.3494   -2.3055 H   0  0  0  0  0  0  0  0  0  0  0  0
    6.5106   -3.0844   -2.3575 H   0  0  0  0  0  0  0  0  0  0  0  0
    3.1472   -3.5511   -0.5848 H   0  0  0  0  0  0  0  0  0  0  0  0
    3.9325   -4.9949   -1.8600 H   0  0  0  0  0  0  0  0  0  0  0  0
    5.8990   -3.6646    0.7265 H   0  0  0  0  0  0  0  0  0  0  0  0
    5.1907   -4.1943    3.2366 H   0  0  0  0  0  0  0  0  0  0  0  0
    3.8259   -6.3406    0.1071 H   0  0  0  0  0  0  0  0  0  0  0  0
    5.5525   -6.2510    0.3844 H   0  0  0  0  0  0  0  0  0  0  0  0
    4.5874   -8.3455    1.1820 H   0  0  0  0  0  0  0  0  0  0  0  0
    5.3536   -7.4460    2.4421 H   0  0  0  0  0  0  0  0  0  0  0  0
    2.5455   -8.0792    1.9222 H   0  0  0  0  0  0  0  0  0  0  0  0
    5.4373   -8.5464    4.7567 H   0  0  0  0  0  0  0  0  0  0  0  0
    4.2389   -7.9496    5.8637 H   0  0  0  0  0  0  0  0  0  0  0  0
    4.8259   -6.9306    4.5883 H   0  0  0  0  0  0  0  0  0  0  0  0
    1.5836   -9.9992    2.4308 H   0  0  0  0  0  0  0  0  0  0  0  0
    2.2736  -11.5704    2.5695 H   0  0  0  0  0  0  0  0  0  0  0  0
    3.0414  -10.3599    1.5608 H   0  0  0  0  0  0  0  0  0  0  0  0
  1  2  1  0
  1 40  1  0
  1 41  1  0
  1 42  1  0
  2  6  1  0
  2  3  2  0
  3 38  1  0
  3  4  1  0
  4  5  1  0
  4  8  1  0
  4 43  1  6
  5  6  1  0
  6  7  2  0
  8  9  1  0
  9 38  1  0
  9 10  1  0
  9 44  1  1
 10 11  1  0
 10 12  1  1
 10 13  1  0
 11 45  1  0
 11 46  1  0
 11 47  1  0
 12 48  1  0
 13 36  1  0
 13 14  1  0
 13 49  1  6
 14 15  1  0
 14 50  1  0
 14 51  1  0
 15 16  1  0
 15 52  1  0
 15 53  1  0
 16 35  1  0
 16 17  1  6
 16 18  1  0
 17 54  1  0
 17 55  1  0
 17 56  1  0
 18 31  1  0
 18 19  1  0
 18 57  1  6
 19 20  1  0
 19 58  1  0
 19 59  1  0
 20 21  1  0
 20 60  1  0
 20 61  1  0
 21 30  1  0
 21 22  1  1
 21 23  1  0
 22 62  1  0
 22 63  1  0
 22 64  1  0
 23 24  2  0
 23 25  1  0
 25 26  1  0
 25 65  1  0
 25 66  1  0
 26 27  1  0
 26 28  1  0
 26 67  1  6
 27 68  1  0
 27 69  1  0
 27 70  1  0
 28 29  1  0
 28 30  1  0
 28 71  1  1
 29 72  1  0
 30 31  1  0
 30 73  1  6
 31 32  1  1
 31 33  1  0
 32 74  1  0
 33 34  1  0
 33 75  1  0
 33 76  1  0
 34 35  1  0
 34 77  1  0
 34 78  1  0
 35 36  1  0
 35 79  1  6
 36 37  1  1
 36 38  1  0
 37 80  1  0
 37 81  1  0
 37 82  1  0
 38 39  1  6
 39 83  1  0
 39 84  1  0
 39 85  1  0
M  END
>  <i_m_ct_stereo_status>  (193) 
1

>  <s_m_source_file>  (193) 
/var/tmp/pbs.5076255.sched01/tmpmtrcy7mx/460f9z2a7c.sdf

>  <i_m_source_file_index>  (193) 
38

>  <i_lp_mmshare_version>  (193) 
48012

>  <i_f3d_flags>  (193) 
0

>  <s_epik_input>  (193) 
W0NIM11DPTFDKD1PKU9bQ0BASF0oTzIpQzFbQ0BAXTMoW0NIM10pW0NASF0yW0NAQF0oW0NIM10pKFtPSF0pW0NAQEhdKFtDSDJdW0NIMl00KVtDQF0zKFtDSDNdKVtDQEBIXTVbQ0gyXVtDSDJdW0NAXShbT0hdKShbQ0BIXTZbQ0BdNDVbQ0gzXSlbQ0BASF03W0NAXShbQ0gzXSkoW0NIMl1bQ0gyXTYpQyg9TylbQ0gyXVtDQEBIXShbQ0gzXSlbQ0BIXTdbT0hd

>  <s_epik_cmdline>  (193) 
J2VwaWtfcHl0aG9uJywgJy1waHQnLCAnMi4wJywgJy1waCcsICc3LjAnLCAnLXRuJywgJzgnLCAnLW1hJywgJzIwMCcsICctaW1hZScsICc8aW5maWxlLm1hZT4nLCAnLW9tYWUnLCAnPG91dGZpbGUubWFlPic=

>  <r_lp_tautomer_probability>  (193) 
1

>  <r_epik_Ionization_Penalty>  (193) 
1.74196e-06

>  <r_epik_Ionization_Penalty_Charging>  (193) 
0

>  <r_epik_Ionization_Penalty_Neutral>  (193) 
1.74196e-06

>  <r_epik_State_Penalty>  (193) 
-0

>  <r_epik_Charging_Adjusted_Penalty>  (193) 
0

>  <i_epik_Tot_Q>  (193) 
0

>  <i_epik_Tot_abs_Q>  (193) 
0

>  <s_epik_Chemistry_Notes>  (193) 
This compound has an ester and may undergo hydrolysis at high or low pH. This compound contains an acetal/aminal-like group ( X-CH(R)-Y where X, Y are N, S, or O) that may be acid/base labile, releasing an aldehyde.

>  <s_lp_Force_Field>  (193) 
OPLS3e

>  <r_lp_Energy>  (193) 
101.908

>  <b_lp_Chiralities_Consistent>  (193) 
1

>  <s_lp_Variant>  (193) 
45:0-1

>  <s_i_glide_gridfile>  (193) 
pfpi4k_grid

>  <i_i_glide_lignum>  (193) 
38

>  <i_i_glide_rotatable_bonds>  (193) 
3

>  <r_i_docking_score>  (193) 
-3.81024

>  <r_i_glide_ligand_efficiency>  (193) 
-0.0976984

>  <r_i_glide_ligand_efficiency_sa>  (193) 
-0.331316

>  <r_i_glide_ligand_efficiency_ln>  (193) 
-0.817023

>  <r_i_glide_gscore>  (193) 
-3.81024

>  <r_i_glide_lipo>  (193) 
-0.32306

>  <r_i_glide_hbond>  (193) 
-0.510423

>  <r_i_glide_metal>  (193) 
-0

>  <r_i_glide_rewards>  (193) 
-0.0970509

>  <r_i_glide_evdw>  (193) 
-29.4661

>  <r_i_glide_ecoul>  (193) 
-9.17163

>  <r_i_glide_erotb>  (193) 
0

>  <r_i_glide_esite>  (193) 
-0.030652

>  <r_i_glide_emodel>  (193) 
-45.4008

>  <r_i_glide_energy>  (193) 
-38.6378

>  <r_i_glide_einternal>  (193) 
1.44057

>  <r_i_glide_intrahb_reward>  (193) 
-0

>  <i_i_glide_confnum>  (193) 
1

>  <i_i_glide_posenum>  (193) 
25

>  <r_i_glide_eff_state_penalty>  (193) 
0

>  <ligand_id>  (193) 
45

>  <original_smiles>  (193) 
CC1=C2C(OC1=O)OC1C(C)(O)C3CCC4(C)C5CCC6(C)C(=O)CC(C)C(O)C6C5(O)CCC4C3(C)C21C

>  <smiles>  (193) 
[H]OC1([H])C([H])(C([H])([H])[H])C([H])([H])C(=O)C2(C([H])([H])[H])C([H])([H])C([H])([H])C3([H])C(O[H])(C([H])([H])C([H])([H])C4([H])C3(C([H])([H])[H])C([H])([H])C([H])([H])C3([H])C(O[H])(C([H])([H])[H])C5([H])OC6([H])OC(=O)C(C([H])([H])[H])=C6C5(C([H])([H])[H])C34C([H])([H])[H])C12[H]

$$$$
45:0:1
     RDKit          3D

 85 91  0  0  1  0  0  0  0  0999 V2000
    7.0083  -10.0498    2.9780 C   0  0  0  0  0  0  0  0  0  0  0  0
    5.9869  -11.0405    3.4738 C   0  0  0  0  0  0  0  0  0  0  0  0
    4.6512  -11.0120    3.6186 C   0  0  0  0  0  0  0  0  0  0  0  0
    4.1744  -12.2942    4.1941 C   0  0  1  0  0  0  0  0  0  0  0  0
    5.3287  -12.9546    4.6144 O   0  0  0  0  0  0  0  0  0  0  0  0
    6.3943  -12.3453    4.0026 C   0  0  0  0  0  0  0  0  0  0  0  0
    7.5441  -12.8076    3.9621 O   0  0  0  0  0  0  0  0  0  0  0  0
    3.2002  -11.9472    5.1424 O   0  0  0  0  0  0  0  0  0  0  0  0
    3.1153  -10.5321    5.0907 C   0  0  2  0  0  0  0  0  0  0  0  0
    1.8992   -9.7485    5.5258 C   0  0  1  0  0  0  0  0  0  0  0  0
    0.6126  -10.5126    5.2688 C   0  0  0  0  0  0  0  0  0  0  0  0
    1.9820   -9.4801    6.9064 O   0  0  0  0  0  0  0  0  0  0  0  0
    2.0361   -8.4675    4.6579 C   0  0  1  0  0  0  0  0  0  0  0  0
    1.6249   -7.1004    5.2358 C   0  0  0  0  0  0  0  0  0  0  0  0
    2.1672   -5.9199    4.3950 C   0  0  0  0  0  0  0  0  0  0  0  0
    2.3684   -6.1809    2.8695 C   0  0  1  0  0  0  0  0  0  0  0  0
    0.9391   -6.3538    2.2714 C   0  0  0  0  0  0  0  0  0  0  0  0
    2.9316   -4.8778    2.1423 C   0  0  1  0  0  0  0  0  0  0  0  0
    2.5912   -3.5361    2.8375 C   0  0  0  0  0  0  0  0  0  0  0  0
    2.9952   -2.2893    2.0353 C   0  0  0  0  0  0  0  0  0  0  0  0
    4.4848   -2.2788    1.6392 C   0  0  2  0  0  0  0  0  0  0  0  0
    5.3664   -2.0909    2.9039 C   0  0  0  0  0  0  0  0  0  0  0  0
    4.7524   -1.0344    0.7557 C   0  0  0  0  0  0  0  0  0  0  0  0
    5.3492   -0.0553    1.1587 O   0  0  0  0  0  0  0  0  0  0  0  0
    4.2068   -1.0518   -0.6692 C   0  0  0  0  0  0  0  0  0  0  0  0
    4.6777   -2.2981   -1.3988 C   0  0  1  0  0  0  0  0  0  0  0  0
    6.1873   -2.2579   -1.6845 C   0  0  0  0  0  0  0  0  0  0  0  0
    4.2388   -3.5439   -0.6117 C   0  0  1  0  0  0  0  0  0  0  0  0
    4.6889   -4.5910   -1.4355 O   0  0  0  0  0  0  0  0  0  0  0  0
    4.8132   -3.6059    0.8462 C   0  0  2  0  0  0  0  0  0  0  0  0
    4.3958   -4.9104    1.6414 C   0  0  1  0  0  0  0  0  0  0  0  0
    5.2566   -4.9963    2.7490 O   0  0  0  0  0  0  0  0  0  0  0  0
    4.5889   -6.2405    0.8855 C   0  0  0  0  0  0  0  0  0  0  0  0
    4.4900   -7.4490    1.8075 C   0  0  0  0  0  0  0  0  0  0  0  0
    3.1844   -7.5490    2.6169 C   0  0  1  0  0  0  0  0  0  0  0  0
    3.4040   -8.4820    3.8919 C   0  0  1  0  0  0  0  0  0  0  0  0
    4.5405   -7.9503    4.8262 C   0  0  0  0  0  0  0  0  0  0  0  0
    3.4801  -10.0517    3.6690 C   0  0  1  0  0  0  0  0  0  0  0  0
    2.5358  -10.5189    2.5147 C   0  0  0  0  0  0  0  0  0  0  0  0
    7.3486  -10.3595    1.9899 H   0  0  0  0  0  0  0  0  0  0  0  0
    7.8750  -10.0751    3.6323 H   0  0  0  0  0  0  0  0  0  0  0  0
    6.6530   -9.0366    2.9234 H   0  0  0  0  0  0  0  0  0  0  0  0
    3.6970  -12.8719    3.4002 H   0  0  0  0  0  0  0  0  0  0  0  0
    3.9239  -10.2250    5.7673 H   0  0  0  0  0  0  0  0  0  0  0  0
    0.4791  -10.8225    4.2375 H   0  0  0  0  0  0  0  0  0  0  0  0
   -0.2304   -9.8832    5.5575 H   0  0  0  0  0  0  0  0  0  0  0  0
    0.5378  -11.4213    5.8531 H   0  0  0  0  0  0  0  0  0  0  0  0
    1.8351  -10.3144    7.3400 H   0  0  0  0  0  0  0  0  0  0  0  0
    1.2626   -8.6136    3.9096 H   0  0  0  0  0  0  0  0  0  0  0  0
    0.5337   -7.0512    5.2168 H   0  0  0  0  0  0  0  0  0  0  0  0
    1.9073   -6.9807    6.2846 H   0  0  0  0  0  0  0  0  0  0  0  0
    1.4917   -5.0850    4.5720 H   0  0  0  0  0  0  0  0  0  0  0  0
    3.1166   -5.6172    4.8251 H   0  0  0  0  0  0  0  0  0  0  0  0
    0.9683   -6.5561    1.1939 H   0  0  0  0  0  0  0  0  0  0  0  0
    0.3495   -5.4564    2.4229 H   0  0  0  0  0  0  0  0  0  0  0  0
    0.3668   -7.1679    2.7145 H   0  0  0  0  0  0  0  0  0  0  0  0
    2.3839   -4.8198    1.2053 H   0  0  0  0  0  0  0  0  0  0  0  0
    1.5221   -3.4642    3.0152 H   0  0  0  0  0  0  0  0  0  0  0  0
    3.0771   -3.4859    3.8093 H   0  0  0  0  0  0  0  0  0  0  0  0
    2.3730   -2.2111    1.1468 H   0  0  0  0  0  0  0  0  0  0  0  0
    2.7762   -1.3877    2.6102 H   0  0  0  0  0  0  0  0  0  0  0  0
    5.1386   -2.7735    3.7180 H   0  0  0  0  0  0  0  0  0  0  0  0
    5.2780   -1.1013    3.3468 H   0  0  0  0  0  0  0  0  0  0  0  0
    6.4069   -2.2355    2.6275 H   0  0  0  0  0  0  0  0  0  0  0  0
    3.1218   -1.0013   -0.6426 H   0  0  0  0  0  0  0  0  0  0  0  0
    4.5575   -0.1581   -1.1861 H   0  0  0  0  0  0  0  0  0  0  0  0
    4.1793   -2.3021   -2.3693 H   0  0  0  0  0  0  0  0  0  0  0  0
    6.8154   -2.2878   -0.7974 H   0  0  0  0  0  0  0  0  0  0  0  0
    6.3732   -1.3134   -2.1945 H   0  0  0  0  0  0  0  0  0  0  0  0
    6.5190   -3.0377   -2.3642 H   0  0  0  0  0  0  0  0  0  0  0  0
    3.1429   -3.5667   -0.5829 H   0  0  0  0  0  0  0  0  0  0  0  0
    3.9511   -4.9900   -1.8818 H   0  0  0  0  0  0  0  0  0  0  0  0
    5.8994   -3.6783    0.7376 H   0  0  0  0  0  0  0  0  0  0  0  0
    5.0257   -5.7897    3.2227 H   0  0  0  0  0  0  0  0  0  0  0  0
    3.8300   -6.3498    0.1131 H   0  0  0  0  0  0  0  0  0  0  0  0
    5.5587   -6.2583    0.3895 H   0  0  0  0  0  0  0  0  0  0  0  0
    4.5843   -8.3399    1.1876 H   0  0  0  0  0  0  0  0  0  0  0  0
    5.3699   -7.4637    2.4461 H   0  0  0  0  0  0  0  0  0  0  0  0
    2.5433   -8.0900    1.9207 H   0  0  0  0  0  0  0  0  0  0  0  0
    5.4394   -8.5467    4.7619 H   0  0  0  0  0  0  0  0  0  0  0  0
    4.2352   -7.9568    5.8648 H   0  0  0  0  0  0  0  0  0  0  0  0
    4.8259   -6.9330    4.6042 H   0  0  0  0  0  0  0  0  0  0  0  0
    1.5900  -10.0033    2.4313 H   0  0  0  0  0  0  0  0  0  0  0  0
    2.2829  -11.5734    2.5736 H   0  0  0  0  0  0  0  0  0  0  0  0
    3.0501  -10.3644    1.5682 H   0  0  0  0  0  0  0  0  0  0  0  0
  1  2  1  0
  1 40  1  0
  1 41  1  0
  1 42  1  0
  2  6  1  0
  2  3  2  0
  3 38  1  0
  3  4  1  0
  4  5  1  0
  4  8  1  0
  4 43  1  6
  5  6  1  0
  6  7  2  0
  8  9  1  0
  9 38  1  0
  9 10  1  0
  9 44  1  1
 10 11  1  0
 10 12  1  1
 10 13  1  0
 11 45  1  0
 11 46  1  0
 11 47  1  0
 12 48  1  0
 13 36  1  0
 13 14  1  0
 13 49  1  6
 14 15  1  0
 14 50  1  0
 14 51  1  0
 15 16  1  0
 15 52  1  0
 15 53  1  0
 16 35  1  0
 16 17  1  6
 16 18  1  0
 17 54  1  0
 17 55  1  0
 17 56  1  0
 18 31  1  0
 18 19  1  0
 18 57  1  6
 19 20  1  0
 19 58  1  0
 19 59  1  0
 20 21  1  0
 20 60  1  0
 20 61  1  0
 21 30  1  0
 21 22  1  1
 21 23  1  0
 22 62  1  0
 22 63  1  0
 22 64  1  0
 23 24  2  0
 23 25  1  0
 25 26  1  0
 25 65  1  0
 25 66  1  0
 26 27  1  0
 26 28  1  0
 26 67  1  6
 27 68  1  0
 27 69  1  0
 27 70  1  0
 28 29  1  0
 28 30  1  0
 28 71  1  1
 29 72  1  0
 30 31  1  0
 30 73  1  6
 31 32  1  1
 31 33  1  0
 32 74  1  0
 33 34  1  0
 33 75  1  0
 33 76  1  0
 34 35  1  0
 34 77  1  0
 34 78  1  0
 35 36  1  0
 35 79  1  6
 36 37  1  1
 36 38  1  0
 37 80  1  0
 37 81  1  0
 37 82  1  0
 38 39  1  6
 39 83  1  0
 39 84  1  0
 39 85  1  0
M  END
>  <i_m_ct_stereo_status>  (194) 
1

>  <s_m_source_file>  (194) 
/var/tmp/pbs.5076255.sched01/tmpmtrcy7mx/460f9z2a7c.sdf

>  <i_m_source_file_index>  (194) 
38

>  <i_lp_mmshare_version>  (194) 
48012

>  <i_f3d_flags>  (194) 
0

>  <s_epik_input>  (194) 
W0NIM11DPTFDKD1PKU9bQ0BASF0oTzIpQzFbQ0BAXTMoW0NIM10pW0NASF0yW0NAQF0oW0NIM10pKFtPSF0pW0NAQEhdKFtDSDJdW0NIMl00KVtDQF0zKFtDSDNdKVtDQEBIXTVbQ0gyXVtDSDJdW0NAXShbT0hdKShbQ0BIXTZbQ0BdNDVbQ0gzXSlbQ0BASF03W0NAXShbQ0gzXSkoW0NIMl1bQ0gyXTYpQyg9TylbQ0gyXVtDQEBIXShbQ0gzXSlbQ0BIXTdbT0hd

>  <s_epik_cmdline>  (194) 
J2VwaWtfcHl0aG9uJywgJy1waHQnLCAnMi4wJywgJy1waCcsICc3LjAnLCAnLXRuJywgJzgnLCAnLW1hJywgJzIwMCcsICctaW1hZScsICc8aW5maWxlLm1hZT4nLCAnLW9tYWUnLCAnPG91dGZpbGUubWFlPic=

>  <r_lp_tautomer_probability>  (194) 
1

>  <r_epik_Ionization_Penalty>  (194) 
1.74196e-06

>  <r_epik_Ionization_Penalty_Charging>  (194) 
0

>  <r_epik_Ionization_Penalty_Neutral>  (194) 
1.74196e-06

>  <r_epik_State_Penalty>  (194) 
-0

>  <r_epik_Charging_Adjusted_Penalty>  (194) 
0

>  <i_epik_Tot_Q>  (194) 
0

>  <i_epik_Tot_abs_Q>  (194) 
0

>  <s_epik_Chemistry_Notes>  (194) 
This compound has an ester and may undergo hydrolysis at high or low pH. This compound contains an acetal/aminal-like group ( X-CH(R)-Y where X, Y are N, S, or O) that may be acid/base labile, releasing an aldehyde.

>  <s_lp_Force_Field>  (194) 
OPLS3e

>  <r_lp_Energy>  (194) 
101.908

>  <b_lp_Chiralities_Consistent>  (194) 
1

>  <s_lp_Variant>  (194) 
45:0-1

>  <s_i_glide_gridfile>  (194) 
pfpi4k_grid

>  <i_i_glide_lignum>  (194) 
38

>  <i_i_glide_rotatable_bonds>  (194) 
3

>  <r_i_docking_score>  (194) 
-3.80322

>  <r_i_glide_ligand_efficiency>  (194) 
-0.0975185

>  <r_i_glide_ligand_efficiency_sa>  (194) 
-0.330706

>  <r_i_glide_ligand_efficiency_ln>  (194) 
-0.815518

>  <r_i_glide_gscore>  (194) 
-3.80322

>  <r_i_glide_lipo>  (194) 
-0.323035

>  <r_i_glide_hbond>  (194) 
-0.501665

>  <r_i_glide_metal>  (194) 
-0

>  <r_i_glide_rewards>  (194) 
-0.0959608

>  <r_i_glide_evdw>  (194) 
-29.718

>  <r_i_glide_ecoul>  (194) 
-9.10968

>  <r_i_glide_erotb>  (194) 
0

>  <r_i_glide_esite>  (194) 
-0.0302098

>  <r_i_glide_emodel>  (194) 
-44.9731

>  <r_i_glide_energy>  (194) 
-38.8276

>  <r_i_glide_einternal>  (194) 
1.36327

>  <r_i_glide_intrahb_reward>  (194) 
-0

>  <i_i_glide_confnum>  (194) 
2

>  <i_i_glide_posenum>  (194) 
1

>  <r_i_glide_eff_state_penalty>  (194) 
0

>  <ligand_id>  (194) 
45

>  <original_smiles>  (194) 
CC1=C2C(OC1=O)OC1C(C)(O)C3CCC4(C)C5CCC6(C)C(=O)CC(C)C(O)C6C5(O)CCC4C3(C)C21C

>  <smiles>  (194) 
[H]OC1([H])C([H])(C([H])([H])[H])C([H])([H])C(=O)C2(C([H])([H])[H])C([H])([H])C([H])([H])C3([H])C(O[H])(C([H])([H])C([H])([H])C4([H])C3(C([H])([H])[H])C([H])([H])C([H])([H])C3([H])C(O[H])(C([H])([H])[H])C5([H])OC6([H])OC(=O)C(C([H])([H])[H])=C6C5(C([H])([H])[H])C34C([H])([H])[H])C12[H]

$$$$
45:0:2
     RDKit          3D

 85 91  0  0  1  0  0  0  0  0999 V2000
    7.0072  -10.0506    3.0294 C   0  0  0  0  0  0  0  0  0  0  0  0
    5.9708  -11.0341    3.5252 C   0  0  0  0  0  0  0  0  0  0  0  0
    4.6540  -10.9920    3.6904 C   0  0  0  0  0  0  0  0  0  0  0  0
    4.1675  -12.2782    4.2614 C   0  0  1  0  0  0  0  0  0  0  0  0
    5.3205  -12.9334    4.6812 O   0  0  0  0  0  0  0  0  0  0  0  0
    6.3913  -12.3376    4.0656 C   0  0  0  0  0  0  0  0  0  0  0  0
    7.5295  -12.8035    4.0200 O   0  0  0  0  0  0  0  0  0  0  0  0
    3.2058  -11.9308    5.2123 O   0  0  0  0  0  0  0  0  0  0  0  0
    3.1231  -10.5097    5.1563 C   0  0  2  0  0  0  0  0  0  0  0  0
    1.9023   -9.7226    5.6007 C   0  0  1  0  0  0  0  0  0  0  0  0
    0.6056  -10.4737    5.3519 C   0  0  0  0  0  0  0  0  0  0  0  0
    1.9901   -9.4660    6.9839 O   0  0  0  0  0  0  0  0  0  0  0  0
    2.0436   -8.4388    4.7320 C   0  0  1  0  0  0  0  0  0  0  0  0
    1.6332   -7.0716    5.2996 C   0  0  0  0  0  0  0  0  0  0  0  0
    2.1876   -5.8995    4.4584 C   0  0  0  0  0  0  0  0  0  0  0  0
    2.3705   -6.1626    2.9257 C   0  0  1  0  0  0  0  0  0  0  0  0
    0.9395   -6.3385    2.3335 C   0  0  0  0  0  0  0  0  0  0  0  0
    2.9324   -4.8645    2.1823 C   0  0  1  0  0  0  0  0  0  0  0  0
    2.6128   -3.5152    2.8824 C   0  0  0  0  0  0  0  0  0  0  0  0
    3.0139   -2.2688    2.0720 C   0  0  0  0  0  0  0  0  0  0  0  0
    4.5018   -2.2711    1.6700 C   0  0  2  0  0  0  0  0  0  0  0  0
    5.3882   -2.0847    2.9328 C   0  0  0  0  0  0  0  0  0  0  0  0
    4.7627   -1.0238    0.7837 C   0  0  0  0  0  0  0  0  0  0  0  0
    5.3816   -0.0419    1.1839 O   0  0  0  0  0  0  0  0  0  0  0  0
    4.2222   -1.0455   -0.6401 C   0  0  0  0  0  0  0  0  0  0  0  0
    4.6808   -2.3018   -1.3753 C   0  0  1  0  0  0  0  0  0  0  0  0
    6.1882   -2.2603   -1.7030 C   0  0  0  0  0  0  0  0  0  0  0  0
    4.2459   -3.5498   -0.5798 C   0  0  1  0  0  0  0  0  0  0  0  0
    4.6882   -4.6149   -1.3809 O   0  0  0  0  0  0  0  0  0  0  0  0
    4.8229   -3.6145    0.8851 C   0  0  2  0  0  0  0  0  0  0  0  0
    4.4003   -4.9102    1.7044 C   0  0  1  0  0  0  0  0  0  0  0  0
    5.2625   -4.9879    2.8221 O   0  0  0  0  0  0  0  0  0  0  0  0
    4.5883   -6.2384    0.9383 C   0  0  0  0  0  0  0  0  0  0  0  0
    4.4887   -7.4495    1.8537 C   0  0  0  0  0  0  0  0  0  0  0  0
    3.1898   -7.5314    2.6782 C   0  0  1  0  0  0  0  0  0  0  0  0
    3.4006   -8.4643    3.9530 C   0  0  1  0  0  0  0  0  0  0  0  0
    4.5428   -7.9358    4.8727 C   0  0  0  0  0  0  0  0  0  0  0  0
    3.4821  -10.0340    3.7292 C   0  0  1  0  0  0  0  0  0  0  0  0
    2.5316  -10.5075    2.5877 C   0  0  0  0  0  0  0  0  0  0  0  0
    7.3410  -10.3580    2.0417 H   0  0  0  0  0  0  0  0  0  0  0  0
    7.8754  -10.0689    3.6820 H   0  0  0  0  0  0  0  0  0  0  0  0
    6.6518   -9.0346    2.9728 H   0  0  0  0  0  0  0  0  0  0  0  0
    3.6834  -12.8613    3.4774 H   0  0  0  0  0  0  0  0  0  0  0  0
    3.9267  -10.2034    5.8317 H   0  0  0  0  0  0  0  0  0  0  0  0
    0.4728  -10.7911    4.3200 H   0  0  0  0  0  0  0  0  0  0  0  0
   -0.2386   -9.8427    5.6287 H   0  0  0  0  0  0  0  0  0  0  0  0
    0.5274  -11.3742    5.9506 H   0  0  0  0  0  0  0  0  0  0  0  0
    1.8472  -10.3026    7.4084 H   0  0  0  0  0  0  0  0  0  0  0  0
    1.2722   -8.5855    3.9854 H   0  0  0  0  0  0  0  0  0  0  0  0
    0.5420   -7.0204    5.2889 H   0  0  0  0  0  0  0  0  0  0  0  0
    1.9292   -6.9521    6.3411 H   0  0  0  0  0  0  0  0  0  0  0  0
    1.5147   -5.0627    4.6290 H   0  0  0  0  0  0  0  0  0  0  0  0
    3.1442   -5.5918    4.8774 H   0  0  0  0  0  0  0  0  0  0  0  0
    0.9694   -6.5385    1.2594 H   0  0  0  0  0  0  0  0  0  0  0  0
    0.3541   -5.4366    2.4897 H   0  0  0  0  0  0  0  0  0  0  0  0
    0.3747   -7.1495    2.7844 H   0  0  0  0  0  0  0  0  0  0  0  0
    2.3822   -4.8036    1.2442 H   0  0  0  0  0  0  0  0  0  0  0  0
    1.5420   -3.4454    3.0686 H   0  0  0  0  0  0  0  0  0  0  0  0
    3.0973   -3.4697    3.8612 H   0  0  0  0  0  0  0  0  0  0  0  0
    2.3810   -2.2015    1.1861 H   0  0  0  0  0  0  0  0  0  0  0  0
    2.7987   -1.3718    2.6548 H   0  0  0  0  0  0  0  0  0  0  0  0
    5.1618   -2.7626    3.7516 H   0  0  0  0  0  0  0  0  0  0  0  0
    5.3017   -1.0934    3.3766 H   0  0  0  0  0  0  0  0  0  0  0  0
    6.4287   -2.2277    2.6529 H   0  0  0  0  0  0  0  0  0  0  0  0
    3.1356   -0.9949   -0.6069 H   0  0  0  0  0  0  0  0  0  0  0  0
    4.5700   -0.1527   -1.1594 H   0  0  0  0  0  0  0  0  0  0  0  0
    4.1640   -2.3028   -2.3381 H   0  0  0  0  0  0  0  0  0  0  0  0
    6.8304   -2.2353   -0.8185 H   0  0  0  0  0  0  0  0  0  0  0  0
    6.3660   -1.3642   -2.2788 H   0  0  0  0  0  0  0  0  0  0  0  0
    6.5092   -3.0996   -2.3282 H   0  0  0  0  0  0  0  0  0  0  0  0
    3.1541   -3.5550   -0.5400 H   0  0  0  0  0  0  0  0  0  0  0  0
    3.9344   -4.9982   -1.8259 H   0  0  0  0  0  0  0  0  0  0  0  0
    5.9099   -3.6640    0.7605 H   0  0  0  0  0  0  0  0  0  0  0  0
    6.1402   -5.1292    2.5005 H   0  0  0  0  0  0  0  0  0  0  0  0
    3.8267   -6.3459    0.1597 H   0  0  0  0  0  0  0  0  0  0  0  0
    5.5514   -6.2623    0.4226 H   0  0  0  0  0  0  0  0  0  0  0  0
    4.5833   -8.3457    1.2400 H   0  0  0  0  0  0  0  0  0  0  0  0
    5.3594   -7.4457    2.4957 H   0  0  0  0  0  0  0  0  0  0  0  0
    2.5454   -8.0729    1.9866 H   0  0  0  0  0  0  0  0  0  0  0  0
    5.4477   -8.5305    4.8143 H   0  0  0  0  0  0  0  0  0  0  0  0
    4.2523   -7.9295    5.9198 H   0  0  0  0  0  0  0  0  0  0  0  0
    4.8378   -6.9162    4.6431 H   0  0  0  0  0  0  0  0  0  0  0  0
    1.5831   -9.9864    2.5033 H   0  0  0  0  0  0  0  0  0  0  0  0
    2.2628  -11.5610    2.6524 H   0  0  0  0  0  0  0  0  0  0  0  0
    3.0394  -10.3664    1.6354 H   0  0  0  0  0  0  0  0  0  0  0  0
  1  2  1  0
  1 40  1  0
  1 41  1  0
  1 42  1  0
  2  6  1  0
  2  3  2  0
  3 38  1  0
  3  4  1  0
  4  5  1  0
  4  8  1  0
  4 43  1  6
  5  6  1  0
  6  7  2  0
  8  9  1  0
  9 38  1  0
  9 10  1  0
  9 44  1  1
 10 11  1  0
 10 12  1  1
 10 13  1  0
 11 45  1  0
 11 46  1  0
 11 47  1  0
 12 48  1  0
 13 36  1  0
 13 14  1  0
 13 49  1  6
 14 15  1  0
 14 50  1  0
 14 51  1  0
 15 16  1  0
 15 52  1  0
 15 53  1  0
 16 35  1  0
 16 17  1  6
 16 18  1  0
 17 54  1  0
 17 55  1  0
 17 56  1  0
 18 31  1  0
 18 19  1  0
 18 57  1  6
 19 20  1  0
 19 58  1  0
 19 59  1  0
 20 21  1  0
 20 60  1  0
 20 61  1  0
 21 30  1  0
 21 22  1  1
 21 23  1  0
 22 62  1  0
 22 63  1  0
 22 64  1  0
 23 24  2  0
 23 25  1  0
 25 26  1  0
 25 65  1  0
 25 66  1  0
 26 27  1  0
 26 28  1  0
 26 67  1  6
 27 68  1  0
 27 69  1  0
 27 70  1  0
 28 29  1  0
 28 30  1  0
 28 71  1  1
 29 72  1  0
 30 31  1  0
 30 73  1  6
 31 32  1  1
 31 33  1  0
 32 74  1  0
 33 34  1  0
 33 75  1  0
 33 76  1  0
 34 35  1  0
 34 77  1  0
 34 78  1  0
 35 36  1  0
 35 79  1  6
 36 37  1  1
 36 38  1  0
 37 80  1  0
 37 81  1  0
 37 82  1  0
 38 39  1  6
 39 83  1  0
 39 84  1  0
 39 85  1  0
M  END
>  <i_m_ct_stereo_status>  (195) 
1

>  <s_m_source_file>  (195) 
/var/tmp/pbs.5076255.sched01/tmpmtrcy7mx/460f9z2a7c.sdf

>  <i_m_source_file_index>  (195) 
38

>  <i_lp_mmshare_version>  (195) 
48012

>  <i_f3d_flags>  (195) 
0

>  <s_epik_input>  (195) 
W0NIM11DPTFDKD1PKU9bQ0BASF0oTzIpQzFbQ0BAXTMoW0NIM10pW0NASF0yW0NAQF0oW0NIM10pKFtPSF0pW0NAQEhdKFtDSDJdW0NIMl00KVtDQF0zKFtDSDNdKVtDQEBIXTVbQ0gyXVtDSDJdW0NAXShbT0hdKShbQ0BIXTZbQ0BdNDVbQ0gzXSlbQ0BASF03W0NAXShbQ0gzXSkoW0NIMl1bQ0gyXTYpQyg9TylbQ0gyXVtDQEBIXShbQ0gzXSlbQ0BIXTdbT0hd

>  <s_epik_cmdline>  (195) 
J2VwaWtfcHl0aG9uJywgJy1waHQnLCAnMi4wJywgJy1waCcsICc3LjAnLCAnLXRuJywgJzgnLCAnLW1hJywgJzIwMCcsICctaW1hZScsICc8aW5maWxlLm1hZT4nLCAnLW9tYWUnLCAnPG91dGZpbGUubWFlPic=

>  <r_lp_tautomer_probability>  (195) 
1

>  <r_epik_Ionization_Penalty>  (195) 
1.74196e-06

>  <r_epik_Ionization_Penalty_Charging>  (195) 
0

>  <r_epik_Ionization_Penalty_Neutral>  (195) 
1.74196e-06

>  <r_epik_State_Penalty>  (195) 
-0

>  <r_epik_Charging_Adjusted_Penalty>  (195) 
0

>  <i_epik_Tot_Q>  (195) 
0

>  <i_epik_Tot_abs_Q>  (195) 
0

>  <s_epik_Chemistry_Notes>  (195) 
This compound has an ester and may undergo hydrolysis at high or low pH. This compound contains an acetal/aminal-like group ( X-CH(R)-Y where X, Y are N, S, or O) that may be acid/base labile, releasing an aldehyde.

>  <s_lp_Force_Field>  (195) 
OPLS3e

>  <r_lp_Energy>  (195) 
101.908

>  <b_lp_Chiralities_Consistent>  (195) 
1

>  <s_lp_Variant>  (195) 
45:0-1

>  <s_i_glide_gridfile>  (195) 
pfpi4k_grid

>  <i_i_glide_lignum>  (195) 
38

>  <i_i_glide_rotatable_bonds>  (195) 
3

>  <r_i_docking_score>  (195) 
-3.75024

>  <r_i_glide_ligand_efficiency>  (195) 
-0.0961599

>  <r_i_glide_ligand_efficiency_sa>  (195) 
-0.326099

>  <r_i_glide_ligand_efficiency_ln>  (195) 
-0.804157

>  <r_i_glide_gscore>  (195) 
-3.75024

>  <r_i_glide_lipo>  (195) 
-0.314216

>  <r_i_glide_hbond>  (195) 
-0.51442

>  <r_i_glide_metal>  (195) 
-0

>  <r_i_glide_rewards>  (195) 
-0.100299

>  <r_i_glide_evdw>  (195) 
-29.0417

>  <r_i_glide_ecoul>  (195) 
-8.94986

>  <r_i_glide_erotb>  (195) 
0

>  <r_i_glide_esite>  (195) 
-0.0267384

>  <r_i_glide_emodel>  (195) 
-44.6719

>  <r_i_glide_energy>  (195) 
-37.9915

>  <r_i_glide_einternal>  (195) 
1.39645

>  <r_i_glide_intrahb_reward>  (195) 
-0

>  <i_i_glide_confnum>  (195) 
2

>  <i_i_glide_posenum>  (195) 
37

>  <r_i_glide_eff_state_penalty>  (195) 
0

>  <ligand_id>  (195) 
45

>  <original_smiles>  (195) 
CC1=C2C(OC1=O)OC1C(C)(O)C3CCC4(C)C5CCC6(C)C(=O)CC(C)C(O)C6C5(O)CCC4C3(C)C21C

>  <smiles>  (195) 
[H]OC1([H])C([H])(C([H])([H])[H])C([H])([H])C(=O)C2(C([H])([H])[H])C([H])([H])C([H])([H])C3([H])C(O[H])(C([H])([H])C([H])([H])C4([H])C3(C([H])([H])[H])C([H])([H])C([H])([H])C3([H])C(O[H])(C([H])([H])[H])C5([H])OC6([H])OC(=O)C(C([H])([H])[H])=C6C5(C([H])([H])[H])C34C([H])([H])[H])C12[H]

$$$$
47:0:0
     RDKit          3D

 38 44  0  0  1  0  0  0  0  0999 V2000
   -7.6759   -4.4043   -4.7217 C   0  0  0  0  0  0  0  0  0  0  0  0
   -5.8955   -4.6920   -4.7667 S   0  0  0  0  0  0  0  0  0  0  0  0
   -5.7762   -6.7095   -4.5166 S   0  0  0  0  0  0  0  0  0  0  0  0
   -5.8830   -7.3310   -6.1982 C   0  0  2  0  0  0  0  0  0  0  0  0
   -7.2928   -7.5184   -6.6808 C   0  0  1  0  0  0  0  0  0  0  0  0
   -7.6608   -7.6392   -8.1396 C   0  0  0  0  0  0  0  0  0  0  0  0
   -7.3631   -9.0945   -8.5423 C   0  0  2  0  0  0  0  0  0  0  0  0
   -8.6378   -9.9613   -8.5588 C   0  0  2  0  0  0  0  0  0  0  0  0
   -9.2745  -10.3160   -7.2149 C   0  0  0  0  0  0  0  0  0  0  0  0
   -8.6565  -11.6932   -7.3276 C   0  0  1  0  0  0  0  0  0  0  0  0
   -8.5796  -11.4726   -8.8436 C   0  0  2  0  0  0  0  0  0  0  0  0
   -7.2754  -12.1161   -9.3263 C   0  0  2  0  0  0  0  0  0  0  0  0
   -6.8081  -12.8432   -8.1096 C   0  0  2  0  0  0  0  0  0  0  0  0
   -7.2160  -12.0511   -6.9117 C   0  0  1  0  0  0  0  0  0  0  0  0
   -6.0852  -11.0543   -7.2957 C   0  0  2  0  0  0  0  0  0  0  0  0
   -6.2540   -9.5446   -7.5370 C   0  0  2  0  0  0  0  0  0  0  0  0
   -6.4667   -8.7073   -6.2981 C   0  0  1  0  0  0  0  0  0  0  0  0
   -5.9658  -11.7584   -8.6210 C   0  0  2  0  0  0  0  0  0  0  0  0
   -7.9142   -3.3649   -4.9476 H   0  0  0  0  0  0  0  0  0  0  0  0
   -8.0598   -4.6501   -3.7313 H   0  0  0  0  0  0  0  0  0  0  0  0
   -8.1832   -5.0308   -5.4522 H   0  0  0  0  0  0  0  0  0  0  0  0
   -5.0742   -7.0626   -6.8719 H   0  0  0  0  0  0  0  0  0  0  0  0
   -8.1002   -7.2432   -6.0112 H   0  0  0  0  0  0  0  0  0  0  0  0
   -8.6961   -7.3383   -8.3218 H   0  0  0  0  0  0  0  0  0  0  0  0
   -7.0172   -6.9733   -8.7011 H   0  0  0  0  0  0  0  0  0  0  0  0
   -6.9389   -9.0971   -9.5469 H   0  0  0  0  0  0  0  0  0  0  0  0
   -9.3943   -9.5329   -9.2077 H   0  0  0  0  0  0  0  0  0  0  0  0
   -8.9307   -9.7556   -6.3437 H   0  0  0  0  0  0  0  0  0  0  0  0
  -10.3670  -10.3584   -7.2785 H   0  0  0  0  0  0  0  0  0  0  0  0
   -9.3631  -12.4877   -7.0860 H   0  0  0  0  0  0  0  0  0  0  0  0
   -9.4810  -11.8125   -9.3468 H   0  0  0  0  0  0  0  0  0  0  0  0
   -7.2600  -12.6611  -10.2758 H   0  0  0  0  0  0  0  0  0  0  0  0
   -6.4256  -13.8615   -8.0666 H   0  0  0  0  0  0  0  0  0  0  0  0
   -7.0797  -12.5320   -5.9520 H   0  0  0  0  0  0  0  0  0  0  0  0
   -5.2164  -11.2577   -6.6638 H   0  0  0  0  0  0  0  0  0  0  0  0
   -5.3106   -9.1810   -7.9625 H   0  0  0  0  0  0  0  0  0  0  0  0
   -6.7808   -9.2312   -5.4020 H   0  0  0  0  0  0  0  0  0  0  0  0
   -4.9849  -12.0129   -9.0047 H   0  0  0  0  0  0  0  0  0  0  0  0
  1  2  1  0
  1 19  1  0
  1 20  1  0
  1 21  1  0
  2  3  1  0
  3  4  1  0
  4 17  1  0
  4  5  1  0
  4 22  1  6
  5 17  1  0
  5  6  1  0
  5 23  1  1
  6  7  1  0
  6 24  1  0
  6 25  1  0
  7 16  1  0
  7  8  1  0
  7 26  1  6
  8 11  1  0
  8  9  1  0
  8 27  1  6
  9 10  1  0
  9 28  1  0
  9 29  1  0
 10 14  1  0
 10 11  1  0
 10 30  1  6
 11 12  1  0
 11 31  1  6
 12 18  1  0
 12 13  1  0
 12 32  1  6
 13 18  1  0
 13 14  1  0
 13 33  1  1
 14 15  1  0
 14 34  1  1
 15 16  1  0
 15 18  1  0
 15 35  1  1
 16 17  1  0
 16 36  1  6
 17 37  1  1
 18 38  1  6
M  END
>  <i_m_ct_stereo_status>  (196) 
1

>  <s_m_source_file>  (196) 
/var/tmp/pbs.5076255.sched01/tmpmtrcy7mx/460f9z2a7c.sdf

>  <i_m_source_file_index>  (196) 
40

>  <i_lp_mmshare_version>  (196) 
48012

>  <i_f3d_flags>  (196) 
0

>  <s_epik_input>  (196) 
W0NIM11TU1tDQEhdMVtDQEBIXShbQ0BASF0xMilbQ0BASF0zW0NASF0oW0NIMl0yKVtDQEhdNFtDQEBIXTVbQ0BIXShbQ0gyXTQpW0NASF02W0NASF03W0NAQEhdNVtDQEhdN1tDQEBIXTM2

>  <s_epik_cmdline>  (196) 
J2VwaWtfcHl0aG9uJywgJy1waHQnLCAnMi4wJywgJy1waCcsICc3LjAnLCAnLXRuJywgJzgnLCAnLW1hJywgJzIwMCcsICctaW1hZScsICc8aW5maWxlLm1hZT4nLCAnLW9tYWUnLCAnPG91dGZpbGUubWFlPic=

>  <r_lp_tautomer_probability>  (196) 
1

>  <r_epik_Ionization_Penalty>  (196) 
0

>  <r_epik_Ionization_Penalty_Charging>  (196) 
0

>  <r_epik_Ionization_Penalty_Neutral>  (196) 
0

>  <r_epik_State_Penalty>  (196) 
-0

>  <r_epik_Charging_Adjusted_Penalty>  (196) 
0

>  <i_epik_Tot_Q>  (196) 
0

>  <i_epik_Tot_abs_Q>  (196) 
0

>  <s_lp_Force_Field>  (196) 
OPLS3e

>  <r_lp_Energy>  (196) 
43.8169

>  <b_lp_Chiralities_Consistent>  (196) 
1

>  <s_lp_Variant>  (196) 
47:0-1

>  <s_i_glide_gridfile>  (196) 
pfpi4k_grid

>  <i_i_glide_lignum>  (196) 
40

>  <i_i_glide_rotatable_bonds>  (196) 
2

>  <r_i_docking_score>  (196) 
-5.73833

>  <r_i_glide_ligand_efficiency>  (196) 
-0.318796

>  <r_i_glide_ligand_efficiency_sa>  (196) 
-0.835482

>  <r_i_glide_ligand_efficiency_ln>  (196) 
-1.47501

>  <r_i_glide_gscore>  (196) 
-5.73833

>  <r_i_glide_lipo>  (196) 
-2.60426

>  <r_i_glide_hbond>  (196) 
0

>  <r_i_glide_metal>  (196) 
-0

>  <r_i_glide_rewards>  (196) 
-2.12095

>  <r_i_glide_evdw>  (196) 
-20.7844

>  <r_i_glide_ecoul>  (196) 
0.173982

>  <r_i_glide_erotb>  (196) 
0

>  <r_i_glide_esite>  (196) 
0

>  <r_i_glide_emodel>  (196) 
-27.3693

>  <r_i_glide_energy>  (196) 
-20.6105

>  <r_i_glide_einternal>  (196) 
0.0736034

>  <r_i_glide_intrahb_reward>  (196) 
-0

>  <i_i_glide_confnum>  (196) 
2

>  <i_i_glide_posenum>  (196) 
40

>  <r_i_glide_eff_state_penalty>  (196) 
0

>  <ligand_id>  (196) 
47

>  <original_smiles>  (196) 
CSSC1C2CC3C4CC5C4C4C6C5C(C3C21)C46

>  <smiles>  (196) 
[H]C([H])([H])SSC1([H])C2([H])C([H])([H])C3([H])C4([H])C([H])([H])C5([H])C4([H])C4([H])C6([H])C5([H])C([H])(C3([H])C12[H])C46[H]

$$$$
49:0:0
     RDKit          3D

 41 44  0  0  1  0  0  0  0  0999 V2000
    1.1758  -11.1880    3.2696 C   0  0  0  0  0  0  0  0  0  0  0  0
    0.2183  -10.2490    3.9214 N   0  0  2  0  0  0  0  0  0  0  0  0
   -0.5793   -9.3723    3.0472 C   0  0  1  0  0  0  0  0  0  0  0  0
   -1.3846   -8.5414    4.0641 C   0  0  0  0  0  0  0  0  0  0  0  0
   -0.4902   -8.5256    5.3240 C   0  0  0  0  0  0  0  0  0  0  0  0
    0.7649   -9.3170    4.9227 C   0  0  2  0  0  0  0  0  0  0  0  0
    1.8306   -8.3790    4.2897 C   0  0  0  0  0  0  0  0  0  0  0  0
    1.2600   -7.5698    3.0927 C   0  0  1  0  0  0  0  0  0  0  0  0
    2.3422   -6.9742    2.3071 N   0  0  0  0  0  0  0  0  0  0  0  0
    2.2032   -6.1475    1.2566 C   0  0  0  0  0  0  0  0  0  0  0  0
    1.1094   -5.8564    0.7775 O   0  0  0  0  0  0  0  0  0  0  0  0
    3.5019   -5.6100    0.7532 C   0  0  0  0  0  0  0  0  0  0  0  0
    4.7973   -6.1409    0.9323 C   0  0  0  0  0  0  0  0  0  0  0  0
    5.7423   -5.4397    0.3582 N   0  0  0  0  0  0  0  0  0  0  0  0
    5.0631   -4.4253   -0.2582 N   0  0  0  0  0  0  0  0  0  0  0  0
    5.6364   -3.4432   -1.0095 C   0  0  0  0  0  0  0  0  0  0  0  0
    4.8100   -2.4904   -1.5513 C   0  0  0  0  0  0  0  0  0  0  0  0
    3.4174   -2.5884   -1.2993 C   0  0  0  0  0  0  0  0  0  0  0  0
    2.8545   -3.5472   -0.5616 N   0  0  0  0  0  0  0  0  0  0  0  0
    3.6666   -4.4904   -0.0355 C   0  0  0  0  0  0  0  0  0  0  0  0
    0.3449   -8.4575    2.2115 C   0  0  0  0  0  0  0  0  0  0  0  0
    1.9534  -10.6944    2.6901 H   0  0  0  0  0  0  0  0  0  0  0  0
    0.6495  -11.8557    2.5913 H   0  0  0  0  0  0  0  0  0  0  0  0
    1.6810  -11.8008    4.0133 H   0  0  0  0  0  0  0  0  0  0  0  0
   -1.2271   -9.9568    2.3930 H   0  0  0  0  0  0  0  0  0  0  0  0
   -1.6192   -7.5411    3.6999 H   0  0  0  0  0  0  0  0  0  0  0  0
   -2.3312   -9.0345    4.2832 H   0  0  0  0  0  0  0  0  0  0  0  0
   -0.2533   -7.5181    5.6672 H   0  0  0  0  0  0  0  0  0  0  0  0
   -0.9866   -9.0548    6.1381 H   0  0  0  0  0  0  0  0  0  0  0  0
    1.1837   -9.8674    5.7681 H   0  0  0  0  0  0  0  0  0  0  0  0
    2.2162   -7.6951    5.0470 H   0  0  0  0  0  0  0  0  0  0  0  0
    2.6934   -8.9681    3.9753 H   0  0  0  0  0  0  0  0  0  0  0  0
    0.6715   -6.7435    3.4952 H   0  0  0  0  0  0  0  0  0  0  0  0
    3.2851   -7.1775    2.5978 H   0  0  0  0  0  0  0  0  0  0  0  0
    5.0667   -7.0235    1.4778 H   0  0  0  0  0  0  0  0  0  0  0  0
    6.7159   -3.4662   -1.1336 H   0  0  0  0  0  0  0  0  0  0  0  0
    5.2162   -1.6828   -2.1517 H   0  0  0  0  0  0  0  0  0  0  0  0
    2.7483   -1.8408   -1.7218 H   0  0  0  0  0  0  0  0  0  0  0  0
    0.9779   -9.0496    1.5517 H   0  0  0  0  0  0  0  0  0  0  0  0
   -0.2779   -7.8444    1.5615 H   0  0  0  0  0  0  0  0  0  0  0  0
   -0.4758  -10.7925    4.4311 H   0  0  0  0  0  0  0  0  0  0  0  0
  1  2  1  0
  1 22  1  0
  1 23  1  0
  1 24  1  0
  2  6  1  0
  2  3  1  0
  2 41  1  1
  3 21  1  0
  3  4  1  0
  3 25  1  6
  4  5  1  0
  4 26  1  0
  4 27  1  0
  5  6  1  0
  5 28  1  0
  5 29  1  0
  6  7  1  0
  6 30  1  1
  7  8  1  0
  7 31  1  0
  7 32  1  0
  8  9  1  0
  8 21  1  0
  8 33  1  1
  9 10  1  0
  9 34  1  0
 10 11  2  0
 10 12  1  0
 12 20  2  0
 12 13  1  0
 13 14  2  0
 13 35  1  0
 14 15  1  0
 15 20  1  0
 15 16  1  0
 16 17  2  0
 16 36  1  0
 17 18  1  0
 17 37  1  0
 18 19  2  0
 18 38  1  0
 19 20  1  0
 21 39  1  0
 21 40  1  0
M  CHG  1   2   1
M  END
>  <i_m_ct_stereo_status>  (197) 
1

>  <s_m_source_file>  (197) 
/var/tmp/pbs.5076255.sched01/tmpmtrcy7mx/460f9z2a7c.sdf

>  <i_m_source_file_index>  (197) 
42

>  <i_lp_mmshare_version>  (197) 
48012

>  <i_f3d_flags>  (197) 
0

>  <s_epik_input>  (197) 
W0NIM11OKFtDQEBIXTEyKVtDQEhdKFtDSDJdW0NIMl0xKVtDSDJdW0NASF0oW0NIMl0yKVtOSF1DKD1PKWMoW2NIXW4zKWMobjM0KW5bY0hdW2NIXVtjSF00

>  <s_epik_cmdline>  (197) 
J2VwaWtfcHl0aG9uJywgJy1waHQnLCAnMi4wJywgJy1waCcsICc3LjAnLCAnLXRuJywgJzgnLCAnLW1hJywgJzIwMCcsICctaW1hZScsICc8aW5maWxlLm1hZT4nLCAnLW9tYWUnLCAnPG91dGZpbGUubWFlPic=

>  <r_epik_Ionization_Penalty>  (197) 
0.00251495

>  <r_epik_Ionization_Penalty_Charging>  (197) 
0.00250323

>  <r_epik_Ionization_Penalty_Neutral>  (197) 
1.17215e-05

>  <r_epik_State_Penalty>  (197) 
0.00173613

>  <r_epik_Charging_Adjusted_Penalty>  (197) 
0.00423935

>  <i_epik_Tot_Q>  (197) 
1

>  <i_epik_Tot_abs_Q>  (197) 
1

>  <s_lp_Force_Field>  (197) 
OPLS3e

>  <r_lp_Energy>  (197) 
36.1571

>  <b_lp_Chiralities_Consistent>  (197) 
1

>  <s_lp_Variant>  (197) 
49:0-1

>  <s_i_glide_gridfile>  (197) 
pfpi4k_grid

>  <i_i_glide_lignum>  (197) 
42

>  <i_i_glide_rotatable_bonds>  (197) 
3

>  <r_i_docking_score>  (197) 
-4.18786

>  <r_i_glide_ligand_efficiency>  (197) 
-0.199422

>  <r_i_glide_ligand_efficiency_sa>  (197) 
-0.55019

>  <r_i_glide_ligand_efficiency_ln>  (197) 
-1.03544

>  <r_i_glide_gscore>  (197) 
-4.18786

>  <r_i_glide_lipo>  (197) 
-0.414319

>  <r_i_glide_hbond>  (197) 
-0.36

>  <r_i_glide_metal>  (197) 
-0

>  <r_i_glide_rewards>  (197) 
-1.53074

>  <r_i_glide_evdw>  (197) 
-23.0425

>  <r_i_glide_ecoul>  (197) 
-8.52062

>  <r_i_glide_erotb>  (197) 
0.66436

>  <r_i_glide_esite>  (197) 
-0.116946

>  <r_i_glide_emodel>  (197) 
-42.8042

>  <r_i_glide_energy>  (197) 
-31.5631

>  <r_i_glide_einternal>  (197) 
0.613472

>  <r_i_glide_intrahb_reward>  (197) 
-0

>  <i_i_glide_confnum>  (197) 
4

>  <i_i_glide_posenum>  (197) 
1

>  <r_i_glide_eff_state_penalty>  (197) 
0

>  <ligand_id>  (197) 
49

>  <original_smiles>  (197) 
CN1C2CCC1CC(NC(=O)c1cnn3cccnc13)C2

>  <smiles>  (197) 
[H]c1nc2c(C(=O)N([H])C3([H])C([H])([H])C4([H])C([H])([H])C([H])([H])C([H])(C3([H])[H])[N+]4([H])C([H])([H])[H])c([H])nn2c([H])c1[H]

$$$$
49:0:1
     RDKit          3D

 41 44  0  0  1  0  0  0  0  0999 V2000
    5.6613   -1.5541    0.6761 C   0  0  0  0  0  0  0  0  0  0  0  0
    4.9429   -1.6786   -0.6182 N   0  0  2  0  0  0  0  0  0  0  0  0
    3.4682   -1.6212   -0.5957 C   0  0  1  0  0  0  0  0  0  0  0  0
    3.1285   -1.8021   -2.0890 C   0  0  0  0  0  0  0  0  0  0  0  0
    4.2926   -2.6378   -2.6558 C   0  0  0  0  0  0  0  0  0  0  0  0
    5.2135   -2.8734   -1.4453 C   0  0  2  0  0  0  0  0  0  0  0  0
    4.8194   -4.1667   -0.6814 C   0  0  0  0  0  0  0  0  0  0  0  0
    3.3266   -4.1614   -0.2518 C   0  0  1  0  0  0  0  0  0  0  0  0
    3.0640   -5.1896    0.7597 N   0  0  0  0  0  0  0  0  0  0  0  0
    1.9526   -5.9406    0.8641 C   0  0  0  0  0  0  0  0  0  0  0  0
    0.9987   -5.8621    0.0976 O   0  0  0  0  0  0  0  0  0  0  0  0
    1.9803   -6.8678    2.0168 C   0  0  0  0  0  0  0  0  0  0  0  0
    3.0838   -7.5504    2.5689 C   0  0  0  0  0  0  0  0  0  0  0  0
    2.7815   -8.3258    3.5762 N   0  0  0  0  0  0  0  0  0  0  0  0
    1.4321   -8.1865    3.6998 N   0  0  0  0  0  0  0  0  0  0  0  0
    0.6599   -8.8144    4.6217 C   0  0  0  0  0  0  0  0  0  0  0  0
   -0.6887   -8.5491    4.6094 C   0  0  0  0  0  0  0  0  0  0  0  0
   -1.1984   -7.6637    3.6335 C   0  0  0  0  0  0  0  0  0  0  0  0
   -0.4502   -7.0373    2.7234 N   0  0  0  0  0  0  0  0  0  0  0  0
    0.8812   -7.2996    2.7373 C   0  0  0  0  0  0  0  0  0  0  0  0
    2.8971   -2.7709    0.2685 C   0  0  0  0  0  0  0  0  0  0  0  0
    5.4240   -2.3443    1.3888 H   0  0  0  0  0  0  0  0  0  0  0  0
    5.4220   -0.6071    1.1549 H   0  0  0  0  0  0  0  0  0  0  0  0
    6.7375   -1.5818    0.5223 H   0  0  0  0  0  0  0  0  0  0  0  0
    3.1184   -0.6590   -0.2153 H   0  0  0  0  0  0  0  0  0  0  0  0
    2.1587   -2.2830   -2.2364 H   0  0  0  0  0  0  0  0  0  0  0  0
    3.0774   -0.8330   -2.5835 H   0  0  0  0  0  0  0  0  0  0  0  0
    3.9565   -3.5763   -3.1054 H   0  0  0  0  0  0  0  0  0  0  0  0
    4.8139   -2.0774   -3.4299 H   0  0  0  0  0  0  0  0  0  0  0  0
    6.2639   -2.9066   -1.7434 H   0  0  0  0  0  0  0  0  0  0  0  0
    5.0144   -5.0419   -1.3068 H   0  0  0  0  0  0  0  0  0  0  0  0
    5.4617   -4.2872    0.1902 H   0  0  0  0  0  0  0  0  0  0  0  0
    2.7257   -4.3765   -1.1332 H   0  0  0  0  0  0  0  0  0  0  0  0
    3.7853   -5.3555    1.4444 H   0  0  0  0  0  0  0  0  0  0  0  0
    4.1077   -7.4839    2.2402 H   0  0  0  0  0  0  0  0  0  0  0  0
    1.1431   -9.4936    5.3177 H   0  0  0  0  0  0  0  0  0  0  0  0
   -1.3409   -9.0560    5.3143 H   0  0  0  0  0  0  0  0  0  0  0  0
   -2.2668   -7.4704    3.6117 H   0  0  0  0  0  0  0  0  0  0  0  0
    3.1999   -2.6438    1.3089 H   0  0  0  0  0  0  0  0  0  0  0  0
    1.8113   -2.7050    0.2821 H   0  0  0  0  0  0  0  0  0  0  0  0
    5.2055   -0.8822   -1.1861 H   0  0  0  0  0  0  0  0  0  0  0  0
  1  2  1  0
  1 22  1  0
  1 23  1  0
  1 24  1  0
  2  6  1  0
  2  3  1  0
  2 41  1  6
  3 21  1  0
  3  4  1  0
  3 25  1  1
  4  5  1  0
  4 26  1  0
  4 27  1  0
  5  6  1  0
  5 28  1  0
  5 29  1  0
  6  7  1  0
  6 30  1  6
  7  8  1  0
  7 31  1  0
  7 32  1  0
  8  9  1  0
  8 21  1  0
  8 33  1  6
  9 10  1  0
  9 34  1  0
 10 11  2  0
 10 12  1  0
 12 20  2  0
 12 13  1  0
 13 14  2  0
 13 35  1  0
 14 15  1  0
 15 20  1  0
 15 16  1  0
 16 17  2  0
 16 36  1  0
 17 18  1  0
 17 37  1  0
 18 19  2  0
 18 38  1  0
 19 20  1  0
 21 39  1  0
 21 40  1  0
M  CHG  1   2   1
M  END
>  <i_m_ct_stereo_status>  (198) 
1

>  <s_m_source_file>  (198) 
/var/tmp/pbs.5076255.sched01/tmpmtrcy7mx/460f9z2a7c.sdf

>  <i_m_source_file_index>  (198) 
42

>  <i_lp_mmshare_version>  (198) 
48012

>  <i_f3d_flags>  (198) 
0

>  <s_epik_input>  (198) 
W0NIM11OKFtDQEBIXTEyKVtDQEhdKFtDSDJdW0NIMl0xKVtDSDJdW0NASF0oW0NIMl0yKVtOSF1DKD1PKWMoW2NIXW4zKWMobjM0KW5bY0hdW2NIXVtjSF00

>  <s_epik_cmdline>  (198) 
J2VwaWtfcHl0aG9uJywgJy1waHQnLCAnMi4wJywgJy1waCcsICc3LjAnLCAnLXRuJywgJzgnLCAnLW1hJywgJzIwMCcsICctaW1hZScsICc8aW5maWxlLm1hZT4nLCAnLW9tYWUnLCAnPG91dGZpbGUubWFlPic=

>  <r_epik_Ionization_Penalty>  (198) 
0.00251495

>  <r_epik_Ionization_Penalty_Charging>  (198) 
0.00250323

>  <r_epik_Ionization_Penalty_Neutral>  (198) 
1.17215e-05

>  <r_epik_State_Penalty>  (198) 
0.00173613

>  <r_epik_Charging_Adjusted_Penalty>  (198) 
0.00423935

>  <i_epik_Tot_Q>  (198) 
1

>  <i_epik_Tot_abs_Q>  (198) 
1

>  <s_lp_Force_Field>  (198) 
OPLS3e

>  <r_lp_Energy>  (198) 
36.1571

>  <b_lp_Chiralities_Consistent>  (198) 
1

>  <s_lp_Variant>  (198) 
49:0-1

>  <s_i_glide_gridfile>  (198) 
pfpi4k_grid

>  <i_i_glide_lignum>  (198) 
42

>  <i_i_glide_rotatable_bonds>  (198) 
3

>  <r_i_docking_score>  (198) 
-4.18192

>  <r_i_glide_ligand_efficiency>  (198) 
-0.199139

>  <r_i_glide_ligand_efficiency_sa>  (198) 
-0.54941

>  <r_i_glide_ligand_efficiency_ln>  (198) 
-1.03397

>  <r_i_glide_gscore>  (198) 
-4.18192

>  <r_i_glide_lipo>  (198) 
-0.204992

>  <r_i_glide_hbond>  (198) 
-0.48605

>  <r_i_glide_metal>  (198) 
-0

>  <r_i_glide_rewards>  (198) 
-1.45669

>  <r_i_glide_evdw>  (198) 
-23.0231

>  <r_i_glide_ecoul>  (198) 
-9.36062

>  <r_i_glide_erotb>  (198) 
0.66436

>  <r_i_glide_esite>  (198) 
-0.143306

>  <r_i_glide_emodel>  (198) 
-43.7529

>  <r_i_glide_energy>  (198) 
-32.3837

>  <r_i_glide_einternal>  (198) 
0.396933

>  <r_i_glide_intrahb_reward>  (198) 
-0

>  <i_i_glide_confnum>  (198) 
6

>  <i_i_glide_posenum>  (198) 
3

>  <r_i_glide_eff_state_penalty>  (198) 
0

>  <ligand_id>  (198) 
49

>  <original_smiles>  (198) 
CN1C2CCC1CC(NC(=O)c1cnn3cccnc13)C2

>  <smiles>  (198) 
[H]c1nc2c(C(=O)N([H])C3([H])C([H])([H])C4([H])C([H])([H])C([H])([H])C([H])(C3([H])[H])[N+]4([H])C([H])([H])[H])c([H])nn2c([H])c1[H]

$$$$
49:0:2
     RDKit          3D

 41 44  0  0  1  0  0  0  0  0999 V2000
    3.2340   -3.3319   -3.9465 C   0  0  0  0  0  0  0  0  0  0  0  0
    3.9728   -2.4409   -3.0141 N   0  0  2  0  0  0  0  0  0  0  0  0
    5.2232   -2.9378   -2.4064 C   0  0  1  0  0  0  0  0  0  0  0  0
    5.6204   -1.7540   -1.5105 C   0  0  0  0  0  0  0  0  0  0  0  0
    4.2949   -1.0688   -1.1483 C   0  0  0  0  0  0  0  0  0  0  0  0
    3.2276   -1.9129   -1.8656 C   0  0  2  0  0  0  0  0  0  0  0  0
    2.7481   -3.0561   -0.9413 C   0  0  0  0  0  0  0  0  0  0  0  0
    3.9178   -3.9325   -0.4136 C   0  0  1  0  0  0  0  0  0  0  0  0
    3.4290   -5.2012    0.1401 N   0  0  0  0  0  0  0  0  0  0  0  0
    2.6432   -5.3458    1.2157 C   0  0  0  0  0  0  0  0  0  0  0  0
    2.2104   -4.3965    1.8611 O   0  0  0  0  0  0  0  0  0  0  0  0
    2.3644   -6.7586    1.5582 C   0  0  0  0  0  0  0  0  0  0  0  0
    3.2778   -7.8446    1.5789 C   0  0  0  0  0  0  0  0  0  0  0  0
    2.7426   -8.9791    1.9656 N   0  0  0  0  0  0  0  0  0  0  0  0
    1.4507   -8.6457    2.2416 N   0  0  0  0  0  0  0  0  0  0  0  0
    0.5027   -9.5031    2.6887 C   0  0  0  0  0  0  0  0  0  0  0  0
   -0.7567   -9.0015    2.9128 C   0  0  0  0  0  0  0  0  0  0  0  0
   -0.9918   -7.6256    2.6723 C   0  0  0  0  0  0  0  0  0  0  0  0
   -0.0817   -6.7617    2.2263 N   0  0  0  0  0  0  0  0  0  0  0  0
    1.1679   -7.2666    2.0085 C   0  0  0  0  0  0  0  0  0  0  0  0
    4.9674   -4.1881   -1.5315 C   0  0  0  0  0  0  0  0  0  0  0  0
    2.8643   -4.2373   -3.4786 H   0  0  0  0  0  0  0  0  0  0  0  0
    3.8823   -3.6566   -4.7437 H   0  0  0  0  0  0  0  0  0  0  0  0
    2.3435   -2.8676   -4.3498 H   0  0  0  0  0  0  0  0  0  0  0  0
    5.9773   -3.1393   -3.1753 H   0  0  0  0  0  0  0  0  0  0  0  0
    6.2283   -2.0451   -0.6445 H   0  0  0  0  0  0  0  0  0  0  0  0
    6.1825   -1.0537   -2.1091 H   0  0  0  0  0  0  0  0  0  0  0  0
    4.1291   -0.9827   -0.0678 H   0  0  0  0  0  0  0  0  0  0  0  0
    4.2889   -0.0669   -1.5665 H   0  0  0  0  0  0  0  0  0  0  0  0
    2.4017   -1.3097   -2.2504 H   0  0  0  0  0  0  0  0  0  0  0  0
    2.2117   -2.6269   -0.0950 H   0  0  0  0  0  0  0  0  0  0  0  0
    2.0255   -3.6802   -1.4637 H   0  0  0  0  0  0  0  0  0  0  0  0
    4.4316   -3.3899    0.3909 H   0  0  0  0  0  0  0  0  0  0  0  0
    3.7226   -6.0412   -0.3409 H   0  0  0  0  0  0  0  0  0  0  0  0
    4.3287   -7.8116    1.3081 H   0  0  0  0  0  0  0  0  0  0  0  0
    0.7853  -10.5406    2.8302 H   0  0  0  0  0  0  0  0  0  0  0  0
   -1.5340   -9.6710    3.2798 H   0  0  0  0  0  0  0  0  0  0  0  0
   -1.9838   -7.2398    2.8611 H   0  0  0  0  0  0  0  0  0  0  0  0
    4.6659   -5.0051   -2.1739 H   0  0  0  0  0  0  0  0  0  0  0  0
    5.8993   -4.5250   -1.0718 H   0  0  0  0  0  0  0  0  0  0  0  0
    4.2364   -1.6039   -3.5141 H   0  0  0  0  0  0  0  0  0  0  0  0
  1  2  1  0
  1 22  1  0
  1 23  1  0
  1 24  1  0
  2  6  1  0
  2  3  1  0
  2 41  1  6
  3 21  1  0
  3  4  1  0
  3 25  1  6
  4  5  1  0
  4 26  1  0
  4 27  1  0
  5  6  1  0
  5 28  1  0
  5 29  1  0
  6  7  1  0
  6 30  1  6
  7  8  1  0
  7 31  1  0
  7 32  1  0
  8  9  1  0
  8 21  1  0
  8 33  1  1
  9 10  1  0
  9 34  1  0
 10 11  2  0
 10 12  1  0
 12 20  2  0
 12 13  1  0
 13 14  2  0
 13 35  1  0
 14 15  1  0
 15 20  1  0
 15 16  1  0
 16 17  2  0
 16 36  1  0
 17 18  1  0
 17 37  1  0
 18 19  2  0
 18 38  1  0
 19 20  1  0
 21 39  1  0
 21 40  1  0
M  CHG  1   2   1
M  END
>  <i_m_ct_stereo_status>  (199) 
1

>  <s_m_source_file>  (199) 
/var/tmp/pbs.5076255.sched01/tmpmtrcy7mx/460f9z2a7c.sdf

>  <i_m_source_file_index>  (199) 
42

>  <i_lp_mmshare_version>  (199) 
48012

>  <i_f3d_flags>  (199) 
0

>  <s_epik_input>  (199) 
W0NIM11OKFtDQEBIXTEyKVtDQEhdKFtDSDJdW0NIMl0xKVtDSDJdW0NASF0oW0NIMl0yKVtOSF1DKD1PKWMoW2NIXW4zKWMobjM0KW5bY0hdW2NIXVtjSF00

>  <s_epik_cmdline>  (199) 
J2VwaWtfcHl0aG9uJywgJy1waHQnLCAnMi4wJywgJy1waCcsICc3LjAnLCAnLXRuJywgJzgnLCAnLW1hJywgJzIwMCcsICctaW1hZScsICc8aW5maWxlLm1hZT4nLCAnLW9tYWUnLCAnPG91dGZpbGUubWFlPic=

>  <r_epik_Ionization_Penalty>  (199) 
0.00251495

>  <r_epik_Ionization_Penalty_Charging>  (199) 
0.00250323

>  <r_epik_Ionization_Penalty_Neutral>  (199) 
1.17215e-05

>  <r_epik_State_Penalty>  (199) 
0.00173613

>  <r_epik_Charging_Adjusted_Penalty>  (199) 
0.00423935

>  <i_epik_Tot_Q>  (199) 
1

>  <i_epik_Tot_abs_Q>  (199) 
1

>  <s_lp_Force_Field>  (199) 
OPLS3e

>  <r_lp_Energy>  (199) 
36.1571

>  <b_lp_Chiralities_Consistent>  (199) 
1

>  <s_lp_Variant>  (199) 
49:0-1

>  <s_i_glide_gridfile>  (199) 
pfpi4k_grid

>  <i_i_glide_lignum>  (199) 
42

>  <i_i_glide_rotatable_bonds>  (199) 
3

>  <r_i_docking_score>  (199) 
-3.17817

>  <r_i_glide_ligand_efficiency>  (199) 
-0.151341

>  <r_i_glide_ligand_efficiency_sa>  (199) 
-0.41754

>  <r_i_glide_ligand_efficiency_ln>  (199) 
-0.785796

>  <r_i_glide_gscore>  (199) 
-3.17817

>  <r_i_glide_lipo>  (199) 
-0.246061

>  <r_i_glide_hbond>  (199) 
-0.14592

>  <r_i_glide_metal>  (199) 
-0

>  <r_i_glide_rewards>  (199) 
-1.45669

>  <r_i_glide_evdw>  (199) 
-25.0805

>  <r_i_glide_ecoul>  (199) 
-4.26201

>  <r_i_glide_erotb>  (199) 
0.66436

>  <r_i_glide_esite>  (199) 
-0.100532

>  <r_i_glide_emodel>  (199) 
-37.516

>  <r_i_glide_energy>  (199) 
-29.3425

>  <r_i_glide_einternal>  (199) 
0.878401

>  <r_i_glide_intrahb_reward>  (199) 
-0

>  <i_i_glide_confnum>  (199) 
4

>  <i_i_glide_posenum>  (199) 
32

>  <r_i_glide_eff_state_penalty>  (199) 
0

>  <ligand_id>  (199) 
49

>  <original_smiles>  (199) 
CN1C2CCC1CC(NC(=O)c1cnn3cccnc13)C2

>  <smiles>  (199) 
[H]c1nc2c(C(=O)N([H])C3([H])C([H])([H])C4([H])C([H])([H])C([H])([H])C([H])(C3([H])[H])[N+]4([H])C([H])([H])[H])c([H])nn2c([H])c1[H]

$$$$
49:1:0
     RDKit          3D

 41 44  0  0  1  0  0  0  0  0999 V2000
   -1.3716    2.3152    2.6432 C   0  0  0  0  0  0  0  0  0  0  0  0
   -0.1316    1.5452    2.3788 N   0  0  1  0  0  0  0  0  0  0  0  0
    1.1049    2.2361    2.7944 C   0  0  1  0  0  0  0  0  0  0  0  0
    1.1705    2.0063    4.3171 C   0  0  0  0  0  0  0  0  0  0  0  0
    0.4010    0.6897    4.5378 C   0  0  0  0  0  0  0  0  0  0  0  0
   -0.0449    0.2719    3.1250 C   0  0  2  0  0  0  0  0  0  0  0  0
    1.0081   -0.6207    2.4338 C   0  0  0  0  0  0  0  0  0  0  0  0
    2.3980    0.0517    2.3962 C   0  0  1  0  0  0  0  0  0  0  0  0
    3.2349   -0.6202    1.4029 N   0  0  0  0  0  0  0  0  0  0  0  0
    4.5730   -0.7124    1.4848 C   0  0  0  0  0  0  0  0  0  0  0  0
    5.2141   -0.2550    2.4269 O   0  0  0  0  0  0  0  0  0  0  0  0
    5.2631   -1.4313    0.3807 C   0  0  0  0  0  0  0  0  0  0  0  0
    6.6273   -1.7800    0.3147 C   0  0  0  0  0  0  0  0  0  0  0  0
    6.9670   -2.3701   -0.8081 N   0  0  0  0  0  0  0  0  0  0  0  0
    5.7872   -2.4629   -1.4965 N   0  0  0  0  0  0  0  0  0  0  0  0
    5.6165   -3.0376   -2.7168 C   0  0  0  0  0  0  0  0  0  0  0  0
    4.3575   -3.0030   -3.2732 C   0  0  0  0  0  0  0  0  0  0  0  0
    3.3125   -2.3877   -2.5397 C   0  0  0  0  0  0  0  0  0  0  0  0
    3.4741   -1.8403   -1.3405 N   0  0  0  0  0  0  0  0  0  0  0  0
    4.7085   -1.8692   -0.7979 C   0  0  0  0  0  0  0  0  0  0  0  0
    2.2908    1.5616    2.0764 C   0  0  0  0  0  0  0  0  0  0  0  0
   -1.4865    2.5589    3.7001 H   0  0  0  0  0  0  0  0  0  0  0  0
   -2.2442    1.7433    2.3407 H   0  0  0  0  0  0  0  0  0  0  0  0
   -1.3912    3.2512    2.0883 H   0  0  0  0  0  0  0  0  0  0  0  0
    1.0741    3.2967    2.5376 H   0  0  0  0  0  0  0  0  0  0  0  0
    2.1951    1.9636    4.6907 H   0  0  0  0  0  0  0  0  0  0  0  0
    0.6713    2.8210    4.8420 H   0  0  0  0  0  0  0  0  0  0  0  0
    0.9997   -0.0763    5.0342 H   0  0  0  0  0  0  0  0  0  0  0  0
   -0.4714    0.8708    5.1657 H   0  0  0  0  0  0  0  0  0  0  0  0
   -1.0039   -0.2447    3.1492 H   0  0  0  0  0  0  0  0  0  0  0  0
    1.0729   -1.5971    2.9188 H   0  0  0  0  0  0  0  0  0  0  0  0
    0.6750   -0.8142    1.4158 H   0  0  0  0  0  0  0  0  0  0  0  0
    2.8391   -0.0485    3.3912 H   0  0  0  0  0  0  0  0  0  0  0  0
    2.7768   -1.0335    0.5929 H   0  0  0  0  0  0  0  0  0  0  0  0
    7.3766   -1.5888    1.0675 H   0  0  0  0  0  0  0  0  0  0  0  0
    6.4902   -3.4751   -3.1864 H   0  0  0  0  0  0  0  0  0  0  0  0
    4.1692   -3.4508   -4.2437 H   0  0  0  0  0  0  0  0  0  0  0  0
    2.3090   -2.3530   -2.9572 H   0  0  0  0  0  0  0  0  0  0  0  0
    2.1524    1.6746    1.0071 H   0  0  0  0  0  0  0  0  0  0  0  0
    3.2198    2.0786    2.3182 H   0  0  0  0  0  0  0  0  0  0  0  0
   -0.0874    1.3619    1.3817 H   0  0  0  0  0  0  0  0  0  0  0  0
  1  2  1  0
  1 22  1  0
  1 23  1  0
  1 24  1  0
  2  6  1  0
  2  3  1  0
  2 41  1  6
  3 21  1  0
  3  4  1  0
  3 25  1  1
  4  5  1  0
  4 26  1  0
  4 27  1  0
  5  6  1  0
  5 28  1  0
  5 29  1  0
  6  7  1  0
  6 30  1  1
  7  8  1  0
  7 31  1  0
  7 32  1  0
  8  9  1  0
  8 21  1  0
  8 33  1  1
  9 10  1  0
  9 34  1  0
 10 11  2  0
 10 12  1  0
 12 20  2  0
 12 13  1  0
 13 14  2  0
 13 35  1  0
 14 15  1  0
 15 20  1  0
 15 16  1  0
 16 17  2  0
 16 36  1  0
 17 18  1  0
 17 37  1  0
 18 19  2  0
 18 38  1  0
 19 20  1  0
 21 39  1  0
 21 40  1  0
M  CHG  1   2   1
M  END
>  <i_m_ct_stereo_status>  (200) 
1

>  <s_m_source_file>  (200) 
/var/tmp/pbs.5076255.sched01/tmpmtrcy7mx/460f9z2a7c.sdf

>  <i_m_source_file_index>  (200) 
43

>  <i_lp_mmshare_version>  (200) 
48012

>  <i_f3d_flags>  (200) 
0

>  <s_epik_input>  (200) 
W0NIM11OKFtDQEBIXTEyKVtDQEhdKFtDSDJdW0NIMl0xKVtDSDJdW0NASF0oW0NIMl0yKVtOSF1DKD1PKWMoW2NIXW4zKWMobjM0KW5bY0hdW2NIXVtjSF00

>  <s_epik_cmdline>  (200) 
J2VwaWtfcHl0aG9uJywgJy1waHQnLCAnMi4wJywgJy1waCcsICc3LjAnLCAnLXRuJywgJzgnLCAnLW1hJywgJzIwMCcsICctaW1hZScsICc8aW5maWxlLm1hZT4nLCAnLW9tYWUnLCAnPG91dGZpbGUubWFlPic=

>  <r_epik_Ionization_Penalty>  (200) 
0.00251495

>  <r_epik_Ionization_Penalty_Charging>  (200) 
0.00250323

>  <r_epik_Ionization_Penalty_Neutral>  (200) 
1.17215e-05

>  <r_epik_State_Penalty>  (200) 
0.00173613

>  <r_epik_Charging_Adjusted_Penalty>  (200) 
0.00423935

>  <i_epik_Tot_Q>  (200) 
1

>  <i_epik_Tot_abs_Q>  (200) 
1

>  <s_lp_Force_Field>  (200) 
OPLS3e

>  <r_lp_Energy>  (200) 
33.4647

>  <b_lp_Chiralities_Consistent>  (200) 
1

>  <s_lp_Variant>  (200) 
49:0-2

>  <s_i_glide_gridfile>  (200) 
pfpi4k_grid

>  <i_i_glide_lignum>  (200) 
43

>  <i_i_glide_rotatable_bonds>  (200) 
3

>  <r_i_docking_score>  (200) 
-4.02474

>  <r_i_glide_ligand_efficiency>  (200) 
-0.191654

>  <r_i_glide_ligand_efficiency_sa>  (200) 
-0.52876

>  <r_i_glide_ligand_efficiency_ln>  (200) 
-0.995109

>  <r_i_glide_gscore>  (200) 
-4.02474

>  <r_i_glide_lipo>  (200) 
-0.431264

>  <r_i_glide_hbond>  (200) 
-0.235381

>  <r_i_glide_metal>  (200) 
-0

>  <r_i_glide_rewards>  (200) 
-1.5942

>  <r_i_glide_evdw>  (200) 
-26.266

>  <r_i_glide_ecoul>  (200) 
-6.44023

>  <r_i_glide_erotb>  (200) 
0.66436

>  <r_i_glide_esite>  (200) 
-0.148917

>  <r_i_glide_emodel>  (200) 
-43.1463

>  <r_i_glide_energy>  (200) 
-32.7062

>  <r_i_glide_einternal>  (200) 
0.111046

>  <r_i_glide_intrahb_reward>  (200) 
-0

>  <i_i_glide_confnum>  (200) 
1

>  <i_i_glide_posenum>  (200) 
2

>  <r_i_glide_eff_state_penalty>  (200) 
0

>  <ligand_id>  (200) 
49

>  <original_smiles>  (200) 
CN1C2CCC1CC(NC(=O)c1cnn3cccnc13)C2

>  <smiles>  (200) 
[H]c1nc2c(C(=O)N([H])C3([H])C([H])([H])C4([H])C([H])([H])C([H])([H])C([H])(C3([H])[H])[N+]4([H])C([H])([H])[H])c([H])nn2c([H])c1[H]

$$$$
49:1:1
     RDKit          3D

 41 44  0  0  1  0  0  0  0  0999 V2000
    2.4450   -2.9491   -3.8421 C   0  0  0  0  0  0  0  0  0  0  0  0
    3.2671   -3.4134   -2.7060 N   0  0  1  0  0  0  0  0  0  0  0  0
    4.6934   -3.0712   -2.8362 C   0  0  1  0  0  0  0  0  0  0  0  0
    4.7669   -1.5871   -2.4296 C   0  0  0  0  0  0  0  0  0  0  0  0
    3.5659   -1.3973   -1.4854 C   0  0  0  0  0  0  0  0  0  0  0  0
    2.9036   -2.7881   -1.4234 C   0  0  2  0  0  0  0  0  0  0  0  0
    3.4842   -3.6561   -0.2875 C   0  0  0  0  0  0  0  0  0  0  0  0
    5.0216   -3.7768   -0.3885 C   0  0  1  0  0  0  0  0  0  0  0  0
    5.4781   -4.8916    0.4402 N   0  0  0  0  0  0  0  0  0  0  0  0
    6.7390   -5.0514    0.8709 C   0  0  0  0  0  0  0  0  0  0  0  0
    7.6360   -4.2476    0.6214 O   0  0  0  0  0  0  0  0  0  0  0  0
    6.9864   -6.2367    1.7311 C   0  0  0  0  0  0  0  0  0  0  0  0
    8.0494   -6.4250    2.6406 C   0  0  0  0  0  0  0  0  0  0  0  0
    8.0225   -7.5881    3.2498 N   0  0  0  0  0  0  0  0  0  0  0  0
    6.9331   -8.2118    2.7107 N   0  0  0  0  0  0  0  0  0  0  0  0
    6.5016   -9.4627    3.0232 C   0  0  0  0  0  0  0  0  0  0  0  0
    5.3800   -9.9278    2.3800 C   0  0  0  0  0  0  0  0  0  0  0  0
    4.7400   -9.0895    1.4368 C   0  0  0  0  0  0  0  0  0  0  0  0
    5.1510   -7.8603    1.1311 N   0  0  0  0  0  0  0  0  0  0  0  0
    6.2612   -7.4059    1.7585 C   0  0  0  0  0  0  0  0  0  0  0  0
    5.4726   -3.9655   -1.8583 C   0  0  0  0  0  0  0  0  0  0  0  0
    2.5077   -1.8734   -4.0039 H   0  0  0  0  0  0  0  0  0  0  0  0
    1.4034   -3.1812   -3.6758 H   0  0  0  0  0  0  0  0  0  0  0  0
    2.7639   -3.4532   -4.7460 H   0  0  0  0  0  0  0  0  0  0  0  0
    5.0529   -3.2395   -3.8526 H   0  0  0  0  0  0  0  0  0  0  0  0
    5.7158   -1.3249   -1.9603 H   0  0  0  0  0  0  0  0  0  0  0  0
    4.6481   -0.9474   -3.3048 H   0  0  0  0  0  0  0  0  0  0  0  0
    3.8506   -1.0210   -0.5018 H   0  0  0  0  0  0  0  0  0  0  0  0
    2.8767   -0.6727   -1.9204 H   0  0  0  0  0  0  0  0  0  0  0  0
    1.8214   -2.7339   -1.3222 H   0  0  0  0  0  0  0  0  0  0  0  0
    3.2015   -3.2509    0.6851 H   0  0  0  0  0  0  0  0  0  0  0  0
    3.0335   -4.6475   -0.3478 H   0  0  0  0  0  0  0  0  0  0  0  0
    5.4592   -2.8489   -0.0126 H   0  0  0  0  0  0  0  0  0  0  0  0
    4.8034   -5.6016    0.6988 H   0  0  0  0  0  0  0  0  0  0  0  0
    8.8330   -5.7207    2.8741 H   0  0  0  0  0  0  0  0  0  0  0  0
    7.0643  -10.0205    3.7617 H   0  0  0  0  0  0  0  0  0  0  0  0
    4.9927  -10.9244    2.5868 H   0  0  0  0  0  0  0  0  0  0  0  0
    3.8565   -9.4570    0.9207 H   0  0  0  0  0  0  0  0  0  0  0  0
    5.2970   -5.0006   -2.1447 H   0  0  0  0  0  0  0  0  0  0  0  0
    6.5447   -3.7871   -1.9610 H   0  0  0  0  0  0  0  0  0  0  0  0
    3.1574   -4.4256   -2.6375 H   0  0  0  0  0  0  0  0  0  0  0  0
  1  2  1  0
  1 22  1  0
  1 23  1  0
  1 24  1  0
  2  6  1  0
  2  3  1  0
  2 41  1  1
  3 21  1  0
  3  4  1  0
  3 25  1  6
  4  5  1  0
  4 26  1  0
  4 27  1  0
  5  6  1  0
  5 28  1  0
  5 29  1  0
  6  7  1  0
  6 30  1  1
  7  8  1  0
  7 31  1  0
  7 32  1  0
  8  9  1  0
  8 21  1  0
  8 33  1  1
  9 10  1  0
  9 34  1  0
 10 11  2  0
 10 12  1  0
 12 20  2  0
 12 13  1  0
 13 14  2  0
 13 35  1  0
 14 15  1  0
 15 20  1  0
 15 16  1  0
 16 17  2  0
 16 36  1  0
 17 18  1  0
 17 37  1  0
 18 19  2  0
 18 38  1  0
 19 20  1  0
 21 39  1  0
 21 40  1  0
M  CHG  1   2   1
M  END
>  <i_m_ct_stereo_status>  (201) 
1

>  <s_m_source_file>  (201) 
/var/tmp/pbs.5076255.sched01/tmpmtrcy7mx/460f9z2a7c.sdf

>  <i_m_source_file_index>  (201) 
43

>  <i_lp_mmshare_version>  (201) 
48012

>  <i_f3d_flags>  (201) 
0

>  <s_epik_input>  (201) 
W0NIM11OKFtDQEBIXTEyKVtDQEhdKFtDSDJdW0NIMl0xKVtDSDJdW0NASF0oW0NIMl0yKVtOSF1DKD1PKWMoW2NIXW4zKWMobjM0KW5bY0hdW2NIXVtjSF00

>  <s_epik_cmdline>  (201) 
J2VwaWtfcHl0aG9uJywgJy1waHQnLCAnMi4wJywgJy1waCcsICc3LjAnLCAnLXRuJywgJzgnLCAnLW1hJywgJzIwMCcsICctaW1hZScsICc8aW5maWxlLm1hZT4nLCAnLW9tYWUnLCAnPG91dGZpbGUubWFlPic=

>  <r_epik_Ionization_Penalty>  (201) 
0.00251495

>  <r_epik_Ionization_Penalty_Charging>  (201) 
0.00250323

>  <r_epik_Ionization_Penalty_Neutral>  (201) 
1.17215e-05

>  <r_epik_State_Penalty>  (201) 
0.00173613

>  <r_epik_Charging_Adjusted_Penalty>  (201) 
0.00423935

>  <i_epik_Tot_Q>  (201) 
1

>  <i_epik_Tot_abs_Q>  (201) 
1

>  <s_lp_Force_Field>  (201) 
OPLS3e

>  <r_lp_Energy>  (201) 
33.4647

>  <b_lp_Chiralities_Consistent>  (201) 
1

>  <s_lp_Variant>  (201) 
49:0-2

>  <s_i_glide_gridfile>  (201) 
pfpi4k_grid

>  <i_i_glide_lignum>  (201) 
43

>  <i_i_glide_rotatable_bonds>  (201) 
3

>  <r_i_docking_score>  (201) 
-3.86799

>  <r_i_glide_ligand_efficiency>  (201) 
-0.18419

>  <r_i_glide_ligand_efficiency_sa>  (201) 
-0.508167

>  <r_i_glide_ligand_efficiency_ln>  (201) 
-0.956354

>  <r_i_glide_gscore>  (201) 
-3.86799

>  <r_i_glide_lipo>  (201) 
-0.42894

>  <r_i_glide_hbond>  (201) 
0

>  <r_i_glide_metal>  (201) 
-0

>  <r_i_glide_rewards>  (201) 
-1.78081

>  <r_i_glide_evdw>  (201) 
-23.6737

>  <r_i_glide_ecoul>  (201) 
-7.3802

>  <r_i_glide_erotb>  (201) 
0.66436

>  <r_i_glide_esite>  (201) 
-0.0318934

>  <r_i_glide_emodel>  (201) 
-41.1342

>  <r_i_glide_energy>  (201) 
-31.0539

>  <r_i_glide_einternal>  (201) 
0.0145071

>  <r_i_glide_intrahb_reward>  (201) 
-0

>  <i_i_glide_confnum>  (201) 
5

>  <i_i_glide_posenum>  (201) 
5

>  <r_i_glide_eff_state_penalty>  (201) 
0

>  <ligand_id>  (201) 
49

>  <original_smiles>  (201) 
CN1C2CCC1CC(NC(=O)c1cnn3cccnc13)C2

>  <smiles>  (201) 
[H]c1nc2c(C(=O)N([H])C3([H])C([H])([H])C4([H])C([H])([H])C([H])([H])C([H])(C3([H])[H])[N+]4([H])C([H])([H])[H])c([H])nn2c([H])c1[H]

$$$$
49:1:2
     RDKit          3D

 41 44  0  0  1  0  0  0  0  0999 V2000
   -1.5093    3.0499    3.0079 C   0  0  0  0  0  0  0  0  0  0  0  0
   -0.3902    2.1469    2.6319 N   0  0  1  0  0  0  0  0  0  0  0  0
    0.9246    2.5680    3.1556 C   0  0  1  0  0  0  0  0  0  0  0  0
    0.9103    2.0888    4.6193 C   0  0  0  0  0  0  0  0  0  0  0  0
   -0.0609    0.8892    4.6192 C   0  0  0  0  0  0  0  0  0  0  0  0
   -0.5203    0.7752    3.1527 C   0  0  2  0  0  0  0  0  0  0  0  0
    0.4133   -0.1341    2.3269 C   0  0  0  0  0  0  0  0  0  0  0  0
    1.8945    0.3157    2.4165 C   0  0  1  0  0  0  0  0  0  0  0  0
    2.6772   -0.3259    1.3623 N   0  0  0  0  0  0  0  0  0  0  0  0
    3.9973   -0.5785    1.4020 C   0  0  0  0  0  0  0  0  0  0  0  0
    4.7093   -0.2751    2.3610 O   0  0  0  0  0  0  0  0  0  0  0  0
    4.5100   -1.2633    0.1816 C   0  0  0  0  0  0  0  0  0  0  0  0
    3.8114   -1.6038   -0.9989 C   0  0  0  0  0  0  0  0  0  0  0  0
    4.5434   -2.1998   -1.9043 N   0  0  0  0  0  0  0  0  0  0  0  0
    5.7646   -2.2865   -1.3182 N   0  0  0  0  0  0  0  0  0  0  0  0
    6.8599   -2.8501   -1.8912 C   0  0  0  0  0  0  0  0  0  0  0  0
    8.0318   -2.8273   -1.1792 C   0  0  0  0  0  0  0  0  0  0  0  0
    8.0303   -2.2457    0.1073 C   0  0  0  0  0  0  0  0  0  0  0  0
    6.9592   -1.6907    0.6727 N   0  0  0  0  0  0  0  0  0  0  0  0
    5.8005   -1.7054   -0.0227 C   0  0  0  0  0  0  0  0  0  0  0  0
    2.0185    1.8579    2.3307 C   0  0  0  0  0  0  0  0  0  0  0  0
   -1.6150    3.1498    4.0894 H   0  0  0  0  0  0  0  0  0  0  0  0
   -2.4608    2.6811    2.6214 H   0  0  0  0  0  0  0  0  0  0  0  0
   -1.3558    4.0527    2.6089 H   0  0  0  0  0  0  0  0  0  0  0  0
    1.0547    3.6470    3.0717 H   0  0  0  0  0  0  0  0  0  0  0  0
    1.9061    1.8285    4.9867 H   0  0  0  0  0  0  0  0  0  0  0  0
    0.5280    2.8783    5.2689 H   0  0  0  0  0  0  0  0  0  0  0  0
    0.3987   -0.0281    4.9912 H   0  0  0  0  0  0  0  0  0  0  0  0
   -0.9120    1.1056    5.2660 H   0  0  0  0  0  0  0  0  0  0  0  0
   -1.5489    0.4219    3.0763 H   0  0  0  0  0  0  0  0  0  0  0  0
    0.3174   -1.1711    2.6539 H   0  0  0  0  0  0  0  0  0  0  0  0
    0.0853   -0.1033    1.2867 H   0  0  0  0  0  0  0  0  0  0  0  0
    2.2775   -0.0160    3.3843 H   0  0  0  0  0  0  0  0  0  0  0  0
    2.1586   -0.6208    0.5373 H   0  0  0  0  0  0  0  0  0  0  0  0
    2.7718   -1.4276   -1.2153 H   0  0  0  0  0  0  0  0  0  0  0  0
    6.7515   -3.2638   -2.8888 H   0  0  0  0  0  0  0  0  0  0  0  0
    8.9427   -3.2340   -1.6179 H   0  0  0  0  0  0  0  0  0  0  0  0
    8.9555   -2.2158    0.6746 H   0  0  0  0  0  0  0  0  0  0  0  0
    1.9144    2.1791    1.2938 H   0  0  0  0  0  0  0  0  0  0  0  0
    3.0125    2.1756    2.6531 H   0  0  0  0  0  0  0  0  0  0  0  0
   -0.3326    2.1488    1.6194 H   0  0  0  0  0  0  0  0  0  0  0  0
  1  2  1  0
  1 22  1  0
  1 23  1  0
  1 24  1  0
  2  6  1  0
  2  3  1  0
  2 41  1  6
  3 21  1  0
  3  4  1  0
  3 25  1  1
  4  5  1  0
  4 26  1  0
  4 27  1  0
  5  6  1  0
  5 28  1  0
  5 29  1  0
  6  7  1  0
  6 30  1  1
  7  8  1  0
  7 31  1  0
  7 32  1  0
  8  9  1  0
  8 21  1  0
  8 33  1  1
  9 10  1  0
  9 34  1  0
 10 11  2  0
 10 12  1  0
 12 20  2  0
 12 13  1  0
 13 14  2  0
 13 35  1  0
 14 15  1  0
 15 20  1  0
 15 16  1  0
 16 17  2  0
 16 36  1  0
 17 18  1  0
 17 37  1  0
 18 19  2  0
 18 38  1  0
 19 20  1  0
 21 39  1  0
 21 40  1  0
M  CHG  1   2   1
M  END
>  <i_m_ct_stereo_status>  (202) 
1

>  <s_m_source_file>  (202) 
/var/tmp/pbs.5076255.sched01/tmpmtrcy7mx/460f9z2a7c.sdf

>  <i_m_source_file_index>  (202) 
43

>  <i_lp_mmshare_version>  (202) 
48012

>  <i_f3d_flags>  (202) 
0

>  <s_epik_input>  (202) 
W0NIM11OKFtDQEBIXTEyKVtDQEhdKFtDSDJdW0NIMl0xKVtDSDJdW0NASF0oW0NIMl0yKVtOSF1DKD1PKWMoW2NIXW4zKWMobjM0KW5bY0hdW2NIXVtjSF00

>  <s_epik_cmdline>  (202) 
J2VwaWtfcHl0aG9uJywgJy1waHQnLCAnMi4wJywgJy1waCcsICc3LjAnLCAnLXRuJywgJzgnLCAnLW1hJywgJzIwMCcsICctaW1hZScsICc8aW5maWxlLm1hZT4nLCAnLW9tYWUnLCAnPG91dGZpbGUubWFlPic=

>  <r_epik_Ionization_Penalty>  (202) 
0.00251495

>  <r_epik_Ionization_Penalty_Charging>  (202) 
0.00250323

>  <r_epik_Ionization_Penalty_Neutral>  (202) 
1.17215e-05

>  <r_epik_State_Penalty>  (202) 
0.00173613

>  <r_epik_Charging_Adjusted_Penalty>  (202) 
0.00423935

>  <i_epik_Tot_Q>  (202) 
1

>  <i_epik_Tot_abs_Q>  (202) 
1

>  <s_lp_Force_Field>  (202) 
OPLS3e

>  <r_lp_Energy>  (202) 
33.4647

>  <b_lp_Chiralities_Consistent>  (202) 
1

>  <s_lp_Variant>  (202) 
49:0-2

>  <s_i_glide_gridfile>  (202) 
pfpi4k_grid

>  <i_i_glide_lignum>  (202) 
43

>  <i_i_glide_rotatable_bonds>  (202) 
3

>  <r_i_docking_score>  (202) 
-3.72448

>  <r_i_glide_ligand_efficiency>  (202) 
-0.177356

>  <r_i_glide_ligand_efficiency_sa>  (202) 
-0.489312

>  <r_i_glide_ligand_efficiency_ln>  (202) 
-0.920869

>  <r_i_glide_gscore>  (202) 
-3.72448

>  <r_i_glide_lipo>  (202) 
-0.0910646

>  <r_i_glide_hbond>  (202) 
-0.17196

>  <r_i_glide_metal>  (202) 
-0

>  <r_i_glide_rewards>  (202) 
-1.53213

>  <r_i_glide_evdw>  (202) 
-25.6896

>  <r_i_glide_ecoul>  (202) 
-7.44606

>  <r_i_glide_erotb>  (202) 
0.66436

>  <r_i_glide_esite>  (202) 
-0.1923

>  <r_i_glide_emodel>  (202) 
-42.6389

>  <r_i_glide_energy>  (202) 
-33.1356

>  <r_i_glide_einternal>  (202) 
0.0926629

>  <r_i_glide_intrahb_reward>  (202) 
-0

>  <i_i_glide_confnum>  (202) 
1

>  <i_i_glide_posenum>  (202) 
33

>  <r_i_glide_eff_state_penalty>  (202) 
0

>  <ligand_id>  (202) 
49

>  <original_smiles>  (202) 
CN1C2CCC1CC(NC(=O)c1cnn3cccnc13)C2

>  <smiles>  (202) 
[H]c1nc2c(C(=O)N([H])C3([H])C([H])([H])C4([H])C([H])([H])C([H])([H])C([H])(C3([H])[H])[N+]4([H])C([H])([H])[H])c([H])nn2c([H])c1[H]

$$$$
50:0:0
     RDKit          3D

 80 84  0  0  1  0  0  0  0  0999 V2000
    0.9956   -9.7513    7.7526 C   0  0  0  0  0  0  0  0  0  0  0  0
    1.7628   -9.7216    6.6387 C   0  0  0  0  0  0  0  0  0  0  0  0
    3.1428  -10.3909    6.6281 C   0  0  0  0  0  0  0  0  0  0  0  0
    1.2339   -9.0776    5.3462 C   0  0  2  0  0  0  0  0  0  0  0  0
    1.5640   -9.8334    4.0586 C   0  0  0  0  0  0  0  0  0  0  0  0
    1.3358   -8.8291    2.9229 C   0  0  0  0  0  0  0  0  0  0  0  0
    1.1190   -7.4186    3.5482 C   0  0  2  0  0  0  0  0  0  0  0  0
   -0.4212   -7.1437    3.5125 C   0  0  0  0  0  0  0  0  0  0  0  0
    1.8789   -6.2647    2.7662 C   0  0  2  0  0  0  0  0  0  0  0  0
    1.5482   -6.1146    1.2773 C   0  0  0  0  0  0  0  0  0  0  0  0
    0.6907   -6.7928    0.6975 O   0  0  0  0  0  0  0  0  0  0  0  0
    2.2443   -4.9921    0.5235 C   0  0  0  0  0  0  0  0  0  0  0  0
    3.7444   -4.8928    0.7536 C   0  0  0  0  0  0  0  0  0  0  0  0
    4.4419   -3.8664    0.1847 C   0  0  0  0  0  0  0  0  0  0  0  0
    3.7742   -2.8133   -0.7222 C   0  0  1  0  0  0  0  0  0  0  0  0
    3.4709   -1.5118    0.0470 C   0  0  0  0  0  0  0  0  0  0  0  0
    4.5496   -2.6050   -2.0412 C   0  0  1  0  0  0  0  0  0  0  0  0
    3.8959   -1.6054   -3.0092 C   0  0  0  0  0  0  0  0  0  0  0  0
    6.0062   -2.2602   -1.7665 C   0  0  0  0  0  0  0  0  0  0  0  0
    6.6573   -3.3487   -0.9349 C   0  0  0  0  0  0  0  0  0  0  0  0
    5.9531   -3.6887    0.3860 C   0  0  1  0  0  0  0  0  0  0  0  0
    6.2432   -2.5593    1.3769 C   0  0  0  0  0  0  0  0  0  0  0  0
    6.5877   -4.9978    0.9080 C   0  0  0  0  0  0  0  0  0  0  0  0
    5.8093   -5.5649    2.0911 C   0  0  0  0  0  0  0  0  0  0  0  0
    4.3385   -5.9354    1.7249 C   0  0  2  0  0  0  0  0  0  0  0  0
    4.4387   -7.2789    0.9455 C   0  0  0  0  0  0  0  0  0  0  0  0
    3.4223   -6.0409    3.0345 C   0  0  1  0  0  0  0  0  0  0  0  0
    3.5108   -4.7017    3.8330 C   0  0  0  0  0  0  0  0  0  0  0  0
    3.9316   -7.1748    3.9509 C   0  0  0  0  0  0  0  0  0  0  0  0
    3.1132   -7.2658    5.2506 C   0  0  0  0  0  0  0  0  0  0  0  0
    1.5945   -7.5834    5.0539 C   0  0  2  0  0  0  0  0  0  0  0  0
    0.8458   -6.6554    6.0407 C   0  0  0  0  0  0  0  0  0  0  0  0
    1.3584  -10.2393    8.6400 H   0  0  0  0  0  0  0  0  0  0  0  0
    0.0014   -9.3322    7.7972 H   0  0  0  0  0  0  0  0  0  0  0  0
    3.9793   -9.8234    6.2710 H   0  0  0  0  0  0  0  0  0  0  0  0
    3.0693  -11.3031    6.0235 H   0  0  0  0  0  0  0  0  0  0  0  0
    3.3787  -10.7388    7.6425 H   0  0  0  0  0  0  0  0  0  0  0  0
    0.1499   -9.1440    5.4418 H   0  0  0  0  0  0  0  0  0  0  0  0
    2.6083  -10.1351    4.0469 H   0  0  0  0  0  0  0  0  0  0  0  0
    0.9649  -10.7402    3.9362 H   0  0  0  0  0  0  0  0  0  0  0  0
    2.1939   -8.8518    2.2534 H   0  0  0  0  0  0  0  0  0  0  0  0
    0.4906   -9.1403    2.3039 H   0  0  0  0  0  0  0  0  0  0  0  0
   -0.6588   -6.1434    3.8764 H   0  0  0  0  0  0  0  0  0  0  0  0
   -0.9966   -7.8424    4.1214 H   0  0  0  0  0  0  0  0  0  0  0  0
   -0.8523   -7.2300    2.5146 H   0  0  0  0  0  0  0  0  0  0  0  0
    1.3874   -5.3699    3.1491 H   0  0  0  0  0  0  0  0  0  0  0  0
    2.0299   -5.0870   -0.5387 H   0  0  0  0  0  0  0  0  0  0  0  0
    1.8428   -4.0457    0.8782 H   0  0  0  0  0  0  0  0  0  0  0  0
    2.8071   -3.1849   -1.0466 H   0  0  0  0  0  0  0  0  0  0  0  0
    2.9844   -1.7252    0.9997 H   0  0  0  0  0  0  0  0  0  0  0  0
    2.7943   -0.8811   -0.5207 H   0  0  0  0  0  0  0  0  0  0  0  0
    4.3402   -0.8868    0.2314 H   0  0  0  0  0  0  0  0  0  0  0  0
    4.5505   -3.5655   -2.5587 H   0  0  0  0  0  0  0  0  0  0  0  0
    3.9115   -0.5876   -2.6192 H   0  0  0  0  0  0  0  0  0  0  0  0
    2.8574   -1.8740   -3.2050 H   0  0  0  0  0  0  0  0  0  0  0  0
    4.4151   -1.5940   -3.9679 H   0  0  0  0  0  0  0  0  0  0  0  0
    6.5407   -2.2658   -2.7130 H   0  0  0  0  0  0  0  0  0  0  0  0
    6.0994   -1.2799   -1.2911 H   0  0  0  0  0  0  0  0  0  0  0  0
    6.5772   -4.2226   -1.5537 H   0  0  0  0  0  0  0  0  0  0  0  0
    7.7173   -3.1232   -0.7833 H   0  0  0  0  0  0  0  0  0  0  0  0
    7.2840   -2.6682    1.6524 H   0  0  0  0  0  0  0  0  0  0  0  0
    5.6157   -2.6125    2.2661 H   0  0  0  0  0  0  0  0  0  0  0  0
    6.1662   -1.5609    0.9575 H   0  0  0  0  0  0  0  0  0  0  0  0
    6.6334   -5.7471    0.1175 H   0  0  0  0  0  0  0  0  0  0  0  0
    7.6256   -4.8401    1.2001 H   0  0  0  0  0  0  0  0  0  0  0  0
    6.3341   -6.4372    2.4793 H   0  0  0  0  0  0  0  0  0  0  0  0
    5.8721   -4.8290    2.8860 H   0  0  0  0  0  0  0  0  0  0  0  0
    5.0609   -8.0121    1.4573 H   0  0  0  0  0  0  0  0  0  0  0  0
    4.8709   -7.1200   -0.0429 H   0  0  0  0  0  0  0  0  0  0  0  0
    3.4835   -7.7636    0.7714 H   0  0  0  0  0  0  0  0  0  0  0  0
    4.4355   -4.6157    4.4045 H   0  0  0  0  0  0  0  0  0  0  0  0
    2.7181   -4.6044    4.5769 H   0  0  0  0  0  0  0  0  0  0  0  0
    3.4232   -3.8193    3.1960 H   0  0  0  0  0  0  0  0  0  0  0  0
    3.9305   -8.1361    3.4396 H   0  0  0  0  0  0  0  0  0  0  0  0
    4.9689   -7.0028    4.2218 H   0  0  0  0  0  0  0  0  0  0  0  0
    3.5941   -7.9252    5.9174 H   0  0  0  0  0  0  0  0  0  0  0  0
    3.2136   -6.3001    5.7735 H   0  0  0  0  0  0  0  0  0  0  0  0
    0.8724   -5.6222    5.6952 H   0  0  0  0  0  0  0  0  0  0  0  0
    1.3238   -6.6803    7.0234 H   0  0  0  0  0  0  0  0  0  0  0  0
   -0.1926   -6.9354    6.1985 H   0  0  0  0  0  0  0  0  0  0  0  0
  1  2  2  0
  1 33  1  0
  1 34  1  0
  2  3  1  0
  2  4  1  0
  3 35  1  0
  3 36  1  0
  3 37  1  0
  4 31  1  0
  4  5  1  0
  4 38  1  1
  5  6  1  0
  5 39  1  0
  5 40  1  0
  6  7  1  0
  6 41  1  0
  6 42  1  0
  7 31  1  0
  7  8  1  1
  7  9  1  0
  8 43  1  0
  8 44  1  0
  8 45  1  0
  9 27  1  0
  9 10  1  0
  9 46  1  1
 10 11  2  0
 10 12  1  0
 12 13  1  0
 12 47  1  0
 12 48  1  0
 13 25  1  0
 13 14  2  0
 14 21  1  0
 14 15  1  0
 15 16  1  0
 15 17  1  0
 15 49  1  6
 16 50  1  0
 16 51  1  0
 16 52  1  0
 17 18  1  0
 17 19  1  0
 17 53  1  6
 18 54  1  0
 18 55  1  0
 18 56  1  0
 19 20  1  0
 19 57  1  0
 19 58  1  0
 20 21  1  0
 20 59  1  0
 20 60  1  0
 21 22  1  1
 21 23  1  0
 22 61  1  0
 22 62  1  0
 22 63  1  0
 23 24  1  0
 23 64  1  0
 23 65  1  0
 24 25  1  0
 24 66  1  0
 24 67  1  0
 25 26  1  6
 25 27  1  0
 26 68  1  0
 26 69  1  0
 26 70  1  0
 27 28  1  1
 27 29  1  0
 28 71  1  0
 28 72  1  0
 28 73  1  0
 29 30  1  0
 29 74  1  0
 29 75  1  0
 30 31  1  0
 30 76  1  0
 30 77  1  0
 31 32  1  1
 32 78  1  0
 32 79  1  0
 32 80  1  0
M  END
>  <i_m_ct_stereo_status>  (203) 
1

>  <s_m_source_file>  (203) 
/var/tmp/pbs.5076255.sched01/tmpmtrcy7mx/460f9z2a7c.sdf

>  <i_m_source_file_index>  (203) 
44

>  <i_lp_mmshare_version>  (203) 
48012

>  <i_f3d_flags>  (203) 
0

>  <s_epik_input>  (203) 
W0NIMl09QyhbQ0gzXSlbQ0BIXShbQ0gyXVtDSDJdMSlbQ0BAXTIoW0NIM10pW0NIMl1bQ0gyXVtDQF0oW0NIM10pKFtDQEBIXTNbQ0BAXTEyW0NIM10pW0NAQF00KFtDSDNdKUMoW0NIMl1DMz1PKT1DNVtDQEBdKFtDSDNdKShbQ0gyXVtDSDJdNClbQ0gyXVtDSDJdW0NASF0oW0NIM10pW0NAQEhdNVtDSDNd

>  <s_epik_cmdline>  (203) 
J2VwaWtfcHl0aG9uJywgJy1waHQnLCAnMi4wJywgJy1waCcsICc3LjAnLCAnLXRuJywgJzgnLCAnLW1hJywgJzIwMCcsICctaW1hZScsICc8aW5maWxlLm1hZT4nLCAnLW9tYWUnLCAnPG91dGZpbGUubWFlPic=

>  <r_lp_tautomer_probability>  (203) 
1

>  <r_epik_Ionization_Penalty>  (203) 
7.63038e-14

>  <r_epik_Ionization_Penalty_Charging>  (203) 
0

>  <r_epik_Ionization_Penalty_Neutral>  (203) 
7.63038e-14

>  <r_epik_State_Penalty>  (203) 
-0

>  <r_epik_Charging_Adjusted_Penalty>  (203) 
0

>  <i_epik_Tot_Q>  (203) 
0

>  <i_epik_Tot_abs_Q>  (203) 
0

>  <s_lp_Force_Field>  (203) 
OPLS3e

>  <r_lp_Energy>  (203) 
86.7603

>  <b_lp_Chiralities_Consistent>  (203) 
1

>  <s_lp_Variant>  (203) 
50:0-1

>  <s_i_glide_gridfile>  (203) 
pfpi4k_grid

>  <i_i_glide_lignum>  (203) 
44

>  <i_i_glide_rotatable_bonds>  (203) 
1

>  <r_i_docking_score>  (203) 
-2.66346

>  <r_i_glide_ligand_efficiency>  (203) 
-0.0832332

>  <r_i_glide_ligand_efficiency_sa>  (203) 
-0.264249

>  <r_i_glide_ligand_efficiency_ln>  (203) 
-0.596421

>  <r_i_glide_gscore>  (203) 
-2.66346

>  <r_i_glide_lipo>  (203) 
-0.674735

>  <r_i_glide_hbond>  (203) 
-0.0656462

>  <r_i_glide_metal>  (203) 
-0

>  <r_i_glide_rewards>  (203) 
-0.431508

>  <r_i_glide_evdw>  (203) 
-28.2219

>  <r_i_glide_ecoul>  (203) 
-0.772714

>  <r_i_glide_erotb>  (203) 
0.104527

>  <r_i_glide_esite>  (203) 
-0.0690965

>  <r_i_glide_emodel>  (203) 
-31.7934

>  <r_i_glide_energy>  (203) 
-28.9946

>  <r_i_glide_einternal>  (203) 
2.47378

>  <r_i_glide_intrahb_reward>  (203) 
-0

>  <i_i_glide_confnum>  (203) 
3

>  <i_i_glide_posenum>  (203) 
10

>  <r_i_glide_eff_state_penalty>  (203) 
0

>  <ligand_id>  (203) 
50

>  <original_smiles>  (203) 
C=C(C)C1CCC2(C)C3C(=O)CC4=C5C(C)C(C)CCC5(C)CCC4(C)C3(C)CCC12C

>  <smiles>  (203) 
[H]C([H])=C(C([H])([H])[H])C1([H])C([H])([H])C([H])([H])C2(C([H])([H])[H])C3([H])C(=O)C([H])([H])C4=C5C([H])(C([H])([H])[H])C([H])(C([H])([H])[H])C([H])([H])C([H])([H])C5(C([H])([H])[H])C([H])([H])C([H])([H])C4(C([H])([H])[H])C3(C([H])([H])[H])C([H])([H])C([H])([H])C12C([H])([H])[H]

$$$$
50:0:1
     RDKit          3D

 80 84  0  0  1  0  0  0  0  0999 V2000
    3.8180  -12.6047    5.7098 C   0  0  0  0  0  0  0  0  0  0  0  0
    3.4815  -11.8242    4.6748 C   0  0  0  0  0  0  0  0  0  0  0  0
    3.7941  -12.2844    3.2565 C   0  0  0  0  0  0  0  0  0  0  0  0
    2.7397  -10.4961    4.8594 C   0  0  2  0  0  0  0  0  0  0  0  0
    1.6431  -10.1991    3.8311 C   0  0  0  0  0  0  0  0  0  0  0  0
    1.3572   -8.6999    3.9485 C   0  0  0  0  0  0  0  0  0  0  0  0
    2.4500   -8.0602    4.8610 C   0  0  2  0  0  0  0  0  0  0  0  0
    1.7882   -7.8493    6.2658 C   0  0  0  0  0  0  0  0  0  0  0  0
    2.9741   -6.6561    4.3249 C   0  0  2  0  0  0  0  0  0  0  0  0
    1.9062   -5.5598    4.1123 C   0  0  0  0  0  0  0  0  0  0  0  0
    0.7000   -5.7417    4.2691 O   0  0  0  0  0  0  0  0  0  0  0  0
    2.4277   -4.2045    3.6414 C   0  0  0  0  0  0  0  0  0  0  0  0
    3.4066   -4.2645    2.4618 C   0  0  0  0  0  0  0  0  0  0  0  0
    3.9697   -3.1138    1.9721 C   0  0  0  0  0  0  0  0  0  0  0  0
    3.6191   -1.7341    2.5719 C   0  0  1  0  0  0  0  0  0  0  0  0
    4.6758   -1.2617    3.5932 C   0  0  0  0  0  0  0  0  0  0  0  0
    3.2782   -0.6971    1.4759 C   0  0  1  0  0  0  0  0  0  0  0  0
    2.8665    0.6735    2.0374 C   0  0  0  0  0  0  0  0  0  0  0  0
    4.4120   -0.5966    0.4478 C   0  0  0  0  0  0  0  0  0  0  0  0
    4.6343   -1.9575   -0.2174 C   0  0  0  0  0  0  0  0  0  0  0  0
    4.9624   -3.0987    0.7788 C   0  0  1  0  0  0  0  0  0  0  0  0
    6.4120   -2.9233    1.2789 C   0  0  0  0  0  0  0  0  0  0  0  0
    4.8787   -4.4241   -0.0017 C   0  0  0  0  0  0  0  0  0  0  0  0
    4.9303   -5.6351    0.9280 C   0  0  0  0  0  0  0  0  0  0  0  0
    3.7374   -5.6879    1.9342 C   0  0  2  0  0  0  0  0  0  0  0  0
    2.5208   -6.1699    1.0930 C   0  0  0  0  0  0  0  0  0  0  0  0
    4.0638   -6.6514    3.1725 C   0  0  1  0  0  0  0  0  0  0  0  0
    5.3837   -6.1718    3.8555 C   0  0  0  0  0  0  0  0  0  0  0  0
    4.2777   -8.1010    2.6783 C   0  0  0  0  0  0  0  0  0  0  0  0
    4.6465   -9.0544    3.8278 C   0  0  0  0  0  0  0  0  0  0  0  0
    3.5722   -9.1739    4.9606 C   0  0  2  0  0  0  0  0  0  0  0  0
    4.3594   -9.1362    6.2920 C   0  0  0  0  0  0  0  0  0  0  0  0
    4.3174  -13.5460    5.5630 H   0  0  0  0  0  0  0  0  0  0  0  0
    3.5835  -12.3343    6.7304 H   0  0  0  0  0  0  0  0  0  0  0  0
    4.3062  -11.5472    2.6343 H   0  0  0  0  0  0  0  0  0  0  0  0
    2.8664  -12.5579    2.7555 H   0  0  0  0  0  0  0  0  0  0  0  0
    4.3904  -13.1993    3.2674 H   0  0  0  0  0  0  0  0  0  0  0  0
    2.2162  -10.6236    5.8080 H   0  0  0  0  0  0  0  0  0  0  0  0
    1.9982  -10.4031    2.8230 H   0  0  0  0  0  0  0  0  0  0  0  0
    0.7485  -10.8066    3.9872 H   0  0  0  0  0  0  0  0  0  0  0  0
    1.3527   -8.2619    2.9510 H   0  0  0  0  0  0  0  0  0  0  0  0
    0.3503   -8.5371    4.3370 H   0  0  0  0  0  0  0  0  0  0  0  0
    2.4589   -7.3364    6.9561 H   0  0  0  0  0  0  0  0  0  0  0  0
    1.4998   -8.7857    6.7443 H   0  0  0  0  0  0  0  0  0  0  0  0
    0.8760   -7.2564    6.2282 H   0  0  0  0  0  0  0  0  0  0  0  0
    3.4779   -6.2531    5.2004 H   0  0  0  0  0  0  0  0  0  0  0  0
    1.5641   -3.5961    3.3690 H   0  0  0  0  0  0  0  0  0  0  0  0
    2.9170   -3.7261    4.4897 H   0  0  0  0  0  0  0  0  0  0  0  0
    2.7018   -1.8176    3.1421 H   0  0  0  0  0  0  0  0  0  0  0  0
    4.9403   -2.0699    4.2760 H   0  0  0  0  0  0  0  0  0  0  0  0
    4.2878   -0.4427    4.1981 H   0  0  0  0  0  0  0  0  0  0  0  0
    5.5908   -0.9034    3.1276 H   0  0  0  0  0  0  0  0  0  0  0  0
    2.4021   -1.0750    0.9458 H   0  0  0  0  0  0  0  0  0  0  0  0
    3.6988    1.1784    2.5257 H   0  0  0  0  0  0  0  0  0  0  0  0
    2.0542    0.5829    2.7594 H   0  0  0  0  0  0  0  0  0  0  0  0
    2.5103    1.3275    1.2440 H   0  0  0  0  0  0  0  0  0  0  0  0
    4.1624    0.1341   -0.3189 H   0  0  0  0  0  0  0  0  0  0  0  0
    5.3235   -0.2153    0.9094 H   0  0  0  0  0  0  0  0  0  0  0  0
    3.7346   -2.2053   -0.7773 H   0  0  0  0  0  0  0  0  0  0  0  0
    5.4297   -1.8703   -0.9567 H   0  0  0  0  0  0  0  0  0  0  0  0
    7.1476   -3.2100    0.5245 H   0  0  0  0  0  0  0  0  0  0  0  0
    6.5970   -3.5399    2.1561 H   0  0  0  0  0  0  0  0  0  0  0  0
    6.6446   -1.8983    1.5527 H   0  0  0  0  0  0  0  0  0  0  0  0
    3.9683   -4.4639   -0.5957 H   0  0  0  0  0  0  0  0  0  0  0  0
    5.6923   -4.4837   -0.7266 H   0  0  0  0  0  0  0  0  0  0  0  0
    4.9618   -6.5393    0.3197 H   0  0  0  0  0  0  0  0  0  0  0  0
    5.8947   -5.6080    1.4219 H   0  0  0  0  0  0  0  0  0  0  0  0
    2.7759   -7.0504    0.5060 H   0  0  0  0  0  0  0  0  0  0  0  0
    2.1998   -5.4065    0.3850 H   0  0  0  0  0  0  0  0  0  0  0  0
    1.6409   -6.4317    1.6717 H   0  0  0  0  0  0  0  0  0  0  0  0
    6.2724   -6.4705    3.3003 H   0  0  0  0  0  0  0  0  0  0  0  0
    5.5172   -6.6021    4.8457 H   0  0  0  0  0  0  0  0  0  0  0  0
    5.4209   -5.0905    3.9954 H   0  0  0  0  0  0  0  0  0  0  0  0
    3.4111   -8.4853    2.1499 H   0  0  0  0  0  0  0  0  0  0  0  0
    5.0855   -8.1354    1.9470 H   0  0  0  0  0  0  0  0  0  0  0  0
    4.9278  -10.0181    3.4268 H   0  0  0  0  0  0  0  0  0  0  0  0
    5.5856   -8.6843    4.2626 H   0  0  0  0  0  0  0  0  0  0  0  0
    4.7260   -8.1310    6.4986 H   0  0  0  0  0  0  0  0  0  0  0  0
    5.2284   -9.7940    6.2459 H   0  0  0  0  0  0  0  0  0  0  0  0
    3.7722   -9.4648    7.1480 H   0  0  0  0  0  0  0  0  0  0  0  0
  1  2  2  0
  1 33  1  0
  1 34  1  0
  2  3  1  0
  2  4  1  0
  3 35  1  0
  3 36  1  0
  3 37  1  0
  4 31  1  0
  4  5  1  0
  4 38  1  1
  5  6  1  0
  5 39  1  0
  5 40  1  0
  6  7  1  0
  6 41  1  0
  6 42  1  0
  7 31  1  0
  7  8  1  1
  7  9  1  0
  8 43  1  0
  8 44  1  0
  8 45  1  0
  9 27  1  0
  9 10  1  0
  9 46  1  1
 10 11  2  0
 10 12  1  0
 12 13  1  0
 12 47  1  0
 12 48  1  0
 13 25  1  0
 13 14  2  0
 14 21  1  0
 14 15  1  0
 15 16  1  0
 15 17  1  0
 15 49  1  1
 16 50  1  0
 16 51  1  0
 16 52  1  0
 17 18  1  0
 17 19  1  0
 17 53  1  6
 18 54  1  0
 18 55  1  0
 18 56  1  0
 19 20  1  0
 19 57  1  0
 19 58  1  0
 20 21  1  0
 20 59  1  0
 20 60  1  0
 21 22  1  1
 21 23  1  0
 22 61  1  0
 22 62  1  0
 22 63  1  0
 23 24  1  0
 23 64  1  0
 23 65  1  0
 24 25  1  0
 24 66  1  0
 24 67  1  0
 25 26  1  6
 25 27  1  0
 26 68  1  0
 26 69  1  0
 26 70  1  0
 27 28  1  1
 27 29  1  0
 28 71  1  0
 28 72  1  0
 28 73  1  0
 29 30  1  0
 29 74  1  0
 29 75  1  0
 30 31  1  0
 30 76  1  0
 30 77  1  0
 31 32  1  1
 32 78  1  0
 32 79  1  0
 32 80  1  0
M  END
>  <i_m_ct_stereo_status>  (204) 
1

>  <s_m_source_file>  (204) 
/var/tmp/pbs.5076255.sched01/tmpmtrcy7mx/460f9z2a7c.sdf

>  <i_m_source_file_index>  (204) 
44

>  <i_lp_mmshare_version>  (204) 
48012

>  <i_f3d_flags>  (204) 
0

>  <s_epik_input>  (204) 
W0NIMl09QyhbQ0gzXSlbQ0BIXShbQ0gyXVtDSDJdMSlbQ0BAXTIoW0NIM10pW0NIMl1bQ0gyXVtDQF0oW0NIM10pKFtDQEBIXTNbQ0BAXTEyW0NIM10pW0NAQF00KFtDSDNdKUMoW0NIMl1DMz1PKT1DNVtDQEBdKFtDSDNdKShbQ0gyXVtDSDJdNClbQ0gyXVtDSDJdW0NASF0oW0NIM10pW0NAQEhdNVtDSDNd

>  <s_epik_cmdline>  (204) 
J2VwaWtfcHl0aG9uJywgJy1waHQnLCAnMi4wJywgJy1waCcsICc3LjAnLCAnLXRuJywgJzgnLCAnLW1hJywgJzIwMCcsICctaW1hZScsICc8aW5maWxlLm1hZT4nLCAnLW9tYWUnLCAnPG91dGZpbGUubWFlPic=

>  <r_lp_tautomer_probability>  (204) 
1

>  <r_epik_Ionization_Penalty>  (204) 
7.63038e-14

>  <r_epik_Ionization_Penalty_Charging>  (204) 
0

>  <r_epik_Ionization_Penalty_Neutral>  (204) 
7.63038e-14

>  <r_epik_State_Penalty>  (204) 
-0

>  <r_epik_Charging_Adjusted_Penalty>  (204) 
0

>  <i_epik_Tot_Q>  (204) 
0

>  <i_epik_Tot_abs_Q>  (204) 
0

>  <s_lp_Force_Field>  (204) 
OPLS3e

>  <r_lp_Energy>  (204) 
86.7603

>  <b_lp_Chiralities_Consistent>  (204) 
1

>  <s_lp_Variant>  (204) 
50:0-1

>  <s_i_glide_gridfile>  (204) 
pfpi4k_grid

>  <i_i_glide_lignum>  (204) 
44

>  <i_i_glide_rotatable_bonds>  (204) 
1

>  <r_i_docking_score>  (204) 
-2.29583

>  <r_i_glide_ligand_efficiency>  (204) 
-0.0717447

>  <r_i_glide_ligand_efficiency_sa>  (204) 
-0.227775

>  <r_i_glide_ligand_efficiency_ln>  (204) 
-0.514099

>  <r_i_glide_gscore>  (204) 
-2.29583

>  <r_i_glide_lipo>  (204) 
-0.482104

>  <r_i_glide_hbond>  (204) 
0

>  <r_i_glide_metal>  (204) 
-0

>  <r_i_glide_rewards>  (204) 
-0.431508

>  <r_i_glide_evdw>  (204) 
-26.7957

>  <r_i_glide_ecoul>  (204) 
-0.964794

>  <r_i_glide_erotb>  (204) 
0.104527

>  <r_i_glide_esite>  (204) 
-0.00224289

>  <r_i_glide_emodel>  (204) 
-29.8558

>  <r_i_glide_energy>  (204) 
-27.7604

>  <r_i_glide_einternal>  (204) 
2.49953

>  <r_i_glide_intrahb_reward>  (204) 
-0

>  <i_i_glide_confnum>  (204) 
5

>  <i_i_glide_posenum>  (204) 
6

>  <r_i_glide_eff_state_penalty>  (204) 
0

>  <ligand_id>  (204) 
50

>  <original_smiles>  (204) 
C=C(C)C1CCC2(C)C3C(=O)CC4=C5C(C)C(C)CCC5(C)CCC4(C)C3(C)CCC12C

>  <smiles>  (204) 
[H]C([H])=C(C([H])([H])[H])C1([H])C([H])([H])C([H])([H])C2(C([H])([H])[H])C3([H])C(=O)C([H])([H])C4=C5C([H])(C([H])([H])[H])C([H])(C([H])([H])[H])C([H])([H])C([H])([H])C5(C([H])([H])[H])C([H])([H])C([H])([H])C4(C([H])([H])[H])C3(C([H])([H])[H])C([H])([H])C([H])([H])C12C([H])([H])[H]

$$$$
50:0:2
     RDKit          3D

 80 84  0  0  1  0  0  0  0  0999 V2000
   10.7386  -13.0281    7.4068 C   0  0  0  0  0  0  0  0  0  0  0  0
   10.1272  -11.8356    7.2833 C   0  0  0  0  0  0  0  0  0  0  0  0
   10.2384  -10.8044    8.4114 C   0  0  0  0  0  0  0  0  0  0  0  0
    9.3778  -11.4641    5.9908 C   0  0  2  0  0  0  0  0  0  0  0  0
    9.5106  -10.0035    5.5611 C   0  0  0  0  0  0  0  0  0  0  0  0
    8.3868   -9.7618    4.5502 C   0  0  0  0  0  0  0  0  0  0  0  0
    7.4382  -11.0019    4.5605 C   0  0  2  0  0  0  0  0  0  0  0  0
    7.7982  -11.8556    3.2972 C   0  0  0  0  0  0  0  0  0  0  0  0
    5.8954  -10.6182    4.4928 C   0  0  2  0  0  0  0  0  0  0  0  0
    5.4555   -9.7646    3.2934 C   0  0  0  0  0  0  0  0  0  0  0  0
    6.2359   -9.3309    2.4451 O   0  0  0  0  0  0  0  0  0  0  0  0
    3.9695   -9.4341    3.2054 C   0  0  0  0  0  0  0  0  0  0  0  0
    3.3526   -8.9129    4.5175 C   0  0  0  0  0  0  0  0  0  0  0  0
    2.0229   -8.6253    4.5814 C   0  0  0  0  0  0  0  0  0  0  0  0
    1.1031   -8.7718    3.3480 C   0  0  1  0  0  0  0  0  0  0  0  0
    0.3398  -10.1064    3.3495 C   0  0  0  0  0  0  0  0  0  0  0  0
    0.2236   -7.5223    3.1298 C   0  0  1  0  0  0  0  0  0  0  0  0
   -0.6553   -7.6141    1.8811 C   0  0  0  0  0  0  0  0  0  0  0  0
   -0.5873   -7.1747    4.3842 C   0  0  0  0  0  0  0  0  0  0  0  0
    0.3629   -6.9223    5.5580 C   0  0  0  0  0  0  0  0  0  0  0  0
    1.3235   -8.0989    5.8640 C   0  0  1  0  0  0  0  0  0  0  0  0
    0.5351   -9.2362    6.5599 C   0  0  0  0  0  0  0  0  0  0  0  0
    2.3784   -7.5644    6.8562 C   0  0  0  0  0  0  0  0  0  0  0  0
    3.5351   -8.5439    7.0423 C   0  0  0  0  0  0  0  0  0  0  0  0
    4.3251   -8.8142    5.7222 C   0  0  2  0  0  0  0  0  0  0  0  0
    5.2179   -7.5516    5.5239 C   0  0  0  0  0  0  0  0  0  0  0  0
    5.1736  -10.1691    5.8305 C   0  0  1  0  0  0  0  0  0  0  0  0
    4.2148  -11.3439    6.1956 C   0  0  0  0  0  0  0  0  0  0  0  0
    6.2357  -10.0546    6.9601 C   0  0  0  0  0  0  0  0  0  0  0  0
    7.0248  -11.3548    7.1243 C   0  0  0  0  0  0  0  0  0  0  0  0
    7.8522  -11.7919    5.8787 C   0  0  2  0  0  0  0  0  0  0  0  0
    7.6393  -13.3237    5.7551 C   0  0  0  0  0  0  0  0  0  0  0  0
   11.2816  -13.2798    8.3010 H   0  0  0  0  0  0  0  0  0  0  0  0
   10.7242  -13.7702    6.6204 H   0  0  0  0  0  0  0  0  0  0  0  0
    9.2899  -10.3642    8.7315 H   0  0  0  0  0  0  0  0  0  0  0  0
   10.8964   -9.9984    8.0880 H   0  0  0  0  0  0  0  0  0  0  0  0
   10.7047  -11.2558    9.2864 H   0  0  0  0  0  0  0  0  0  0  0  0
    9.8857  -12.0407    5.2236 H   0  0  0  0  0  0  0  0  0  0  0  0
    9.3510   -9.3431    6.4119 H   0  0  0  0  0  0  0  0  0  0  0  0
   10.4940   -9.7729    5.1503 H   0  0  0  0  0  0  0  0  0  0  0  0
    7.8611   -8.8474    4.8121 H   0  0  0  0  0  0  0  0  0  0  0  0
    8.8060   -9.5754    3.5617 H   0  0  0  0  0  0  0  0  0  0  0  0
    7.1335  -12.7079    3.1819 H   0  0  0  0  0  0  0  0  0  0  0  0
    8.8167  -12.2392    3.3230 H   0  0  0  0  0  0  0  0  0  0  0  0
    7.7267  -11.2883    2.3763 H   0  0  0  0  0  0  0  0  0  0  0  0
    5.4355  -11.5668    4.2283 H   0  0  0  0  0  0  0  0  0  0  0  0
    3.8348   -8.6878    2.4216 H   0  0  0  0  0  0  0  0  0  0  0  0
    3.4385  -10.3347    2.8950 H   0  0  0  0  0  0  0  0  0  0  0  0
    1.7190   -8.8146    2.4550 H   0  0  0  0  0  0  0  0  0  0  0  0
    0.9978  -10.9351    3.6142 H   0  0  0  0  0  0  0  0  0  0  0  0
   -0.0759  -10.3230    2.3669 H   0  0  0  0  0  0  0  0  0  0  0  0
   -0.4901  -10.1067    4.0501 H   0  0  0  0  0  0  0  0  0  0  0  0
    0.9030   -6.6858    2.9544 H   0  0  0  0  0  0  0  0  0  0  0  0
   -1.4301   -8.3755    1.9831 H   0  0  0  0  0  0  0  0  0  0  0  0
   -0.0680   -7.8513    0.9947 H   0  0  0  0  0  0  0  0  0  0  0  0
   -1.1475   -6.6629    1.6981 H   0  0  0  0  0  0  0  0  0  0  0  0
   -1.1847   -6.2792    4.2057 H   0  0  0  0  0  0  0  0  0  0  0  0
   -1.2961   -7.9715    4.6144 H   0  0  0  0  0  0  0  0  0  0  0  0
    0.9401   -6.0295    5.3210 H   0  0  0  0  0  0  0  0  0  0  0  0
   -0.2136   -6.6749    6.4451 H   0  0  0  0  0  0  0  0  0  0  0  0
    0.3070   -8.9891    7.5952 H   0  0  0  0  0  0  0  0  0  0  0  0
    1.0984  -10.1704    6.5632 H   0  0  0  0  0  0  0  0  0  0  0  0
   -0.4190   -9.4425    6.0832 H   0  0  0  0  0  0  0  0  0  0  0  0
    2.7711   -6.6071    6.5164 H   0  0  0  0  0  0  0  0  0  0  0  0
    1.9145   -7.3560    7.8199 H   0  0  0  0  0  0  0  0  0  0  0  0
    4.1980   -8.1608    7.8157 H   0  0  0  0  0  0  0  0  0  0  0  0
    3.1080   -9.4453    7.4692 H   0  0  0  0  0  0  0  0  0  0  0  0
    5.7567   -7.2834    6.4297 H   0  0  0  0  0  0  0  0  0  0  0  0
    4.6118   -6.6891    5.2523 H   0  0  0  0  0  0  0  0  0  0  0  0
    5.9583   -7.6462    4.7367 H   0  0  0  0  0  0  0  0  0  0  0  0
    3.9441  -11.3533    7.2506 H   0  0  0  0  0  0  0  0  0  0  0  0
    4.6702  -12.3170    6.0201 H   0  0  0  0  0  0  0  0  0  0  0  0
    3.2980  -11.3401    5.6129 H   0  0  0  0  0  0  0  0  0  0  0  0
    6.9128   -9.2186    6.7904 H   0  0  0  0  0  0  0  0  0  0  0  0
    5.7484   -9.8288    7.9055 H   0  0  0  0  0  0  0  0  0  0  0  0
    7.6356  -11.2847    8.0138 H   0  0  0  0  0  0  0  0  0  0  0  0
    6.3154  -12.1501    7.3836 H   0  0  0  0  0  0  0  0  0  0  0  0
    6.6288  -13.5437    5.4147 H   0  0  0  0  0  0  0  0  0  0  0  0
    7.7705  -13.7987    6.7234 H   0  0  0  0  0  0  0  0  0  0  0  0
    8.3404  -13.8065    5.0740 H   0  0  0  0  0  0  0  0  0  0  0  0
  1  2  2  0
  1 33  1  0
  1 34  1  0
  2  3  1  0
  2  4  1  0
  3 35  1  0
  3 36  1  0
  3 37  1  0
  4 31  1  0
  4  5  1  0
  4 38  1  6
  5  6  1  0
  5 39  1  0
  5 40  1  0
  6  7  1  0
  6 41  1  0
  6 42  1  0
  7 31  1  0
  7  8  1  6
  7  9  1  0
  8 43  1  0
  8 44  1  0
  8 45  1  0
  9 27  1  0
  9 10  1  0
  9 46  1  6
 10 11  2  0
 10 12  1  0
 12 13  1  0
 12 47  1  0
 12 48  1  0
 13 25  1  0
 13 14  2  0
 14 21  1  0
 14 15  1  0
 15 16  1  0
 15 17  1  0
 15 49  1  6
 16 50  1  0
 16 51  1  0
 16 52  1  0
 17 18  1  0
 17 19  1  0
 17 53  1  6
 18 54  1  0
 18 55  1  0
 18 56  1  0
 19 20  1  0
 19 57  1  0
 19 58  1  0
 20 21  1  0
 20 59  1  0
 20 60  1  0
 21 22  1  1
 21 23  1  0
 22 61  1  0
 22 62  1  0
 22 63  1  0
 23 24  1  0
 23 64  1  0
 23 65  1  0
 24 25  1  0
 24 66  1  0
 24 67  1  0
 25 26  1  6
 25 27  1  0
 26 68  1  0
 26 69  1  0
 26 70  1  0
 27 28  1  1
 27 29  1  0
 28 71  1  0
 28 72  1  0
 28 73  1  0
 29 30  1  0
 29 74  1  0
 29 75  1  0
 30 31  1  0
 30 76  1  0
 30 77  1  0
 31 32  1  6
 32 78  1  0
 32 79  1  0
 32 80  1  0
M  END
>  <i_m_ct_stereo_status>  (205) 
1

>  <s_m_source_file>  (205) 
/var/tmp/pbs.5076255.sched01/tmpmtrcy7mx/460f9z2a7c.sdf

>  <i_m_source_file_index>  (205) 
44

>  <i_lp_mmshare_version>  (205) 
48012

>  <i_f3d_flags>  (205) 
0

>  <s_epik_input>  (205) 
W0NIMl09QyhbQ0gzXSlbQ0BIXShbQ0gyXVtDSDJdMSlbQ0BAXTIoW0NIM10pW0NIMl1bQ0gyXVtDQF0oW0NIM10pKFtDQEBIXTNbQ0BAXTEyW0NIM10pW0NAQF00KFtDSDNdKUMoW0NIMl1DMz1PKT1DNVtDQEBdKFtDSDNdKShbQ0gyXVtDSDJdNClbQ0gyXVtDSDJdW0NASF0oW0NIM10pW0NAQEhdNVtDSDNd

>  <s_epik_cmdline>  (205) 
J2VwaWtfcHl0aG9uJywgJy1waHQnLCAnMi4wJywgJy1waCcsICc3LjAnLCAnLXRuJywgJzgnLCAnLW1hJywgJzIwMCcsICctaW1hZScsICc8aW5maWxlLm1hZT4nLCAnLW9tYWUnLCAnPG91dGZpbGUubWFlPic=

>  <r_lp_tautomer_probability>  (205) 
1

>  <r_epik_Ionization_Penalty>  (205) 
7.63038e-14

>  <r_epik_Ionization_Penalty_Charging>  (205) 
0

>  <r_epik_Ionization_Penalty_Neutral>  (205) 
7.63038e-14

>  <r_epik_State_Penalty>  (205) 
-0

>  <r_epik_Charging_Adjusted_Penalty>  (205) 
0

>  <i_epik_Tot_Q>  (205) 
0

>  <i_epik_Tot_abs_Q>  (205) 
0

>  <s_lp_Force_Field>  (205) 
OPLS3e

>  <r_lp_Energy>  (205) 
86.7603

>  <b_lp_Chiralities_Consistent>  (205) 
1

>  <s_lp_Variant>  (205) 
50:0-1

>  <s_i_glide_gridfile>  (205) 
pfpi4k_grid

>  <i_i_glide_lignum>  (205) 
44

>  <i_i_glide_rotatable_bonds>  (205) 
1

>  <r_i_docking_score>  (205) 
-1.61612

>  <r_i_glide_ligand_efficiency>  (205) 
-0.0505037

>  <r_i_glide_ligand_efficiency_sa>  (205) 
-0.160339

>  <r_i_glide_ligand_efficiency_ln>  (205) 
-0.361893

>  <r_i_glide_gscore>  (205) 
-1.61612

>  <r_i_glide_lipo>  (205) 
-0.0326941

>  <r_i_glide_hbond>  (205) 
0

>  <r_i_glide_metal>  (205) 
-0

>  <r_i_glide_rewards>  (205) 
-0.431508

>  <r_i_glide_evdw>  (205) 
-22.1389

>  <r_i_glide_ecoul>  (205) 
-0.938168

>  <r_i_glide_erotb>  (205) 
0.104527

>  <r_i_glide_esite>  (205) 
-0.0087721

>  <r_i_glide_emodel>  (205) 
-24.3975

>  <r_i_glide_energy>  (205) 
-23.0771

>  <r_i_glide_einternal>  (205) 
2.39736

>  <r_i_glide_intrahb_reward>  (205) 
-0

>  <i_i_glide_confnum>  (205) 
5

>  <i_i_glide_posenum>  (205) 
1

>  <r_i_glide_eff_state_penalty>  (205) 
0

>  <ligand_id>  (205) 
50

>  <original_smiles>  (205) 
C=C(C)C1CCC2(C)C3C(=O)CC4=C5C(C)C(C)CCC5(C)CCC4(C)C3(C)CCC12C

>  <smiles>  (205) 
[H]C([H])=C(C([H])([H])[H])C1([H])C([H])([H])C([H])([H])C2(C([H])([H])[H])C3([H])C(=O)C([H])([H])C4=C5C([H])(C([H])([H])[H])C([H])(C([H])([H])[H])C([H])([H])C([H])([H])C5(C([H])([H])[H])C([H])([H])C([H])([H])C4(C([H])([H])[H])C3(C([H])([H])[H])C([H])([H])C([H])([H])C12C([H])([H])[H]

$$$$
51:0:0
     RDKit          3D

 38 41  0  0  1  0  0  0  0  0999 V2000
    5.8517   -0.7916    0.5148 C   0  0  0  0  0  0  0  0  0  0  0  0
    4.5336   -1.5381    0.2181 C   0  0  2  0  0  0  0  0  0  0  0  0
    4.4625   -2.7985    0.9121 O   0  0  0  0  0  0  0  0  0  0  0  0
    4.8502   -3.9491    0.1406 C   0  0  1  0  0  0  0  0  0  0  0  0
    4.1290   -5.1594    0.6792 C   0  0  0  0  0  0  0  0  0  0  0  0
    2.8454   -5.2859    1.0564 N   0  0  0  0  0  0  0  0  0  0  0  0
    2.7834   -6.6326    1.2970 C   0  0  0  0  0  0  0  0  0  0  0  0
    1.5563   -7.2938    1.7356 C   0  0  0  0  0  0  0  0  0  0  0  0
    1.3506   -8.5634    2.2262 C   0  0  0  0  0  0  0  0  0  0  0  0
    0.0000   -8.6055    2.4956 N   0  0  0  0  0  0  0  0  0  0  0  0
   -0.7855   -9.6779    3.0341 C   0  0  0  0  0  0  0  0  0  0  0  0
   -0.6024   -7.4441    2.1770 N   0  0  0  0  0  0  0  0  0  0  0  0
    0.3068   -6.6517    1.7142 N   0  0  0  0  0  0  0  0  0  0  0  0
    3.9239   -7.3027    1.1641 N   0  0  0  0  0  0  0  0  0  0  0  0
    4.8201   -6.3262    0.7102 O   0  0  0  0  0  0  0  0  0  0  0  0
    4.5911   -3.7295   -1.3699 C   0  0  2  0  0  0  0  0  0  0  0  0
    5.4382   -2.5793   -1.9590 C   0  0  0  0  0  0  0  0  0  0  0  0
    4.3248   -1.7353   -1.3025 C   0  0  1  0  0  0  0  0  0  0  0  0
    3.3507   -2.8666   -1.7499 C   0  0  1  0  0  0  0  0  0  0  0  0
    2.7702   -2.9006   -3.1827 C   0  0  0  0  0  0  0  0  0  0  0  0
    2.2187   -3.0322   -0.9457 O   0  0  0  0  0  0  0  0  0  0  0  0
    5.9116    0.0898   -0.1246 H   0  0  0  0  0  0  0  0  0  0  0  0
    6.7374   -1.4000    0.3173 H   0  0  0  0  0  0  0  0  0  0  0  0
    5.9250   -0.4470    1.5479 H   0  0  0  0  0  0  0  0  0  0  0  0
    3.7065   -0.9679    0.6299 H   0  0  0  0  0  0  0  0  0  0  0  0
    5.9258   -4.0686    0.2947 H   0  0  0  0  0  0  0  0  0  0  0  0
    2.0230   -9.3940    2.3867 H   0  0  0  0  0  0  0  0  0  0  0  0
   -0.1833  -10.5830    3.0496 H   0  0  0  0  0  0  0  0  0  0  0  0
   -1.6758   -9.8394    2.4153 H   0  0  0  0  0  0  0  0  0  0  0  0
   -1.0832   -9.4326    4.0573 H   0  0  0  0  0  0  0  0  0  0  0  0
    4.6737   -4.6447   -1.9559 H   0  0  0  0  0  0  0  0  0  0  0  0
    6.4408   -2.4936   -1.5155 H   0  0  0  0  0  0  0  0  0  0  0  0
    5.4946   -2.5102   -3.0491 H   0  0  0  0  0  0  0  0  0  0  0  0
    4.0967   -0.7934   -1.8036 H   0  0  0  0  0  0  0  0  0  0  0  0
    3.5179   -2.7878   -3.9604 H   0  0  0  0  0  0  0  0  0  0  0  0
    2.0438   -2.0942   -3.3278 H   0  0  0  0  0  0  0  0  0  0  0  0
    2.2688   -3.8556   -3.3723 H   0  0  0  0  0  0  0  0  0  0  0  0
    1.7843   -2.1859   -0.8453 H   0  0  0  0  0  0  0  0  0  0  0  0
  1  2  1  0
  1 22  1  0
  1 23  1  0
  1 24  1  0
  2 18  1  0
  2  3  1  0
  2 25  1  1
  3  4  1  0
  4  5  1  0
  4 16  1  0
  4 26  1  6
  5 15  1  0
  5  6  2  0
  6  7  1  0
  7  8  1  0
  7 14  2  0
  8 13  1  0
  8  9  2  0
  9 10  1  0
  9 27  1  0
 10 11  1  0
 10 12  1  0
 11 28  1  0
 11 29  1  0
 11 30  1  0
 12 13  2  0
 14 15  1  0
 16 19  1  0
 16 17  1  0
 16 31  1  6
 17 18  1  0
 17 32  1  0
 17 33  1  0
 18 19  1  0
 18 34  1  6
 19 20  1  0
 19 21  1  1
 20 35  1  0
 20 36  1  0
 20 37  1  0
 21 38  1  0
M  END
>  <i_m_ct_stereo_status>  (206) 
1

>  <s_m_source_file>  (206) 
/var/tmp/pbs.5076255.sched01/tmpmtrcy7mx/460f9z2a7c.sdf

>  <i_m_source_file_index>  (206) 
45

>  <i_lp_mmshare_version>  (206) 
48012

>  <i_f3d_flags>  (206) 
0

>  <s_epik_input>  (206) 
W0NIM11bQ0BdMShbT0hdKVtDQEhdKFtDSDJdMilbQ0BIXShbQ0gzXSlPW0NASF0oW0NAQEhdMTIpYzNuYyhubzMpLWM0W2NIXW4oW0NIM10pbm40

>  <s_epik_cmdline>  (206) 
J2VwaWtfcHl0aG9uJywgJy1waHQnLCAnMi4wJywgJy1waCcsICc3LjAnLCAnLXRuJywgJzgnLCAnLW1hJywgJzIwMCcsICctaW1hZScsICc8aW5maWxlLm1hZT4nLCAnLW9tYWUnLCAnPG91dGZpbGUubWFlPic=

>  <r_lp_tautomer_probability>  (206) 
1

>  <r_epik_Ionization_Penalty>  (206) 
5.74198e-08

>  <r_epik_Ionization_Penalty_Charging>  (206) 
0

>  <r_epik_Ionization_Penalty_Neutral>  (206) 
5.74198e-08

>  <r_epik_State_Penalty>  (206) 
-0

>  <r_epik_Charging_Adjusted_Penalty>  (206) 
0

>  <i_epik_Tot_Q>  (206) 
0

>  <i_epik_Tot_abs_Q>  (206) 
0

>  <s_lp_Force_Field>  (206) 
OPLS3e

>  <r_lp_Energy>  (206) 
25.342

>  <b_lp_Chiralities_Consistent>  (206) 
1

>  <s_lp_Variant>  (206) 
51:0-1

>  <s_i_glide_gridfile>  (206) 
pfpi4k_grid

>  <i_i_glide_lignum>  (206) 
45

>  <i_i_glide_rotatable_bonds>  (206) 
3

>  <r_i_docking_score>  (206) 
-3.82449

>  <r_i_glide_ligand_efficiency>  (206) 
-0.182119

>  <r_i_glide_ligand_efficiency_sa>  (206) 
-0.502452

>  <r_i_glide_ligand_efficiency_ln>  (206) 
-0.945598

>  <r_i_glide_gscore>  (206) 
-3.82449

>  <r_i_glide_lipo>  (206) 
-0.321624

>  <r_i_glide_hbond>  (206) 
0

>  <r_i_glide_metal>  (206) 
-0

>  <r_i_glide_rewards>  (206) 
-1.43513

>  <r_i_glide_evdw>  (206) 
-24.9314

>  <r_i_glide_ecoul>  (206) 
-6.85467

>  <r_i_glide_erotb>  (206) 
0.429864

>  <r_i_glide_esite>  (206) 
-0.222837

>  <r_i_glide_emodel>  (206) 
-40.0716

>  <r_i_glide_energy>  (206) 
-31.7861

>  <r_i_glide_einternal>  (206) 
1.30555

>  <r_i_glide_intrahb_reward>  (206) 
-0

>  <i_i_glide_confnum>  (206) 
3

>  <i_i_glide_posenum>  (206) 
1

>  <r_i_glide_eff_state_penalty>  (206) 
0

>  <ligand_id>  (206) 
51

>  <original_smiles>  (206) 
CC1OC(c2nc(-c3cn(C)nn3)no2)C2CC1C2(C)O

>  <smiles>  (206) 
[H]OC1(C([H])([H])[H])C2([H])C([H])(c3nc(-c4nnn(C([H])([H])[H])c4[H])no3)OC([H])(C([H])([H])[H])C1([H])C2([H])[H]

$$$$
51:0:1
     RDKit          3D

 38 41  0  0  1  0  0  0  0  0999 V2000
    0.9074  -10.9624    3.5035 C   0  0  0  0  0  0  0  0  0  0  0  0
    0.3528   -9.6097    3.0101 C   0  0  2  0  0  0  0  0  0  0  0  0
    1.2710   -8.8896    2.1587 O   0  0  0  0  0  0  0  0  0  0  0  0
    2.1283   -7.9263    2.8023 C   0  0  1  0  0  0  0  0  0  0  0  0
    2.5461   -6.8857    1.7917 C   0  0  0  0  0  0  0  0  0  0  0  0
    3.7561   -6.3461    1.6576 N   0  0  0  0  0  0  0  0  0  0  0  0
    3.5235   -5.4112    0.6920 C   0  0  0  0  0  0  0  0  0  0  0  0
    4.6268   -4.5945    0.1580 C   0  0  0  0  0  0  0  0  0  0  0  0
    5.9633   -4.6189    0.4868 C   0  0  0  0  0  0  0  0  0  0  0  0
    6.5301   -3.6602   -0.3250 N   0  0  0  0  0  0  0  0  0  0  0  0
    7.9246   -3.2687   -0.4181 C   0  0  0  0  0  0  0  0  0  0  0  0
    5.6108   -3.0717   -1.1109 N   0  0  0  0  0  0  0  0  0  0  0  0
    4.4674   -3.6177   -0.8280 N   0  0  0  0  0  0  0  0  0  0  0  0
    2.2674   -5.2985    0.2641 N   0  0  0  0  0  0  0  0  0  0  0  0
    1.6104   -6.3058    0.9872 O   0  0  0  0  0  0  0  0  0  0  0  0
    1.4140   -7.3252    4.0265 C   0  0  2  0  0  0  0  0  0  0  0  0
    1.1298   -8.3628    5.1294 C   0  0  0  0  0  0  0  0  0  0  0  0
   -0.0512   -8.7186    4.1998 C   0  0  1  0  0  0  0  0  0  0  0  0
   -0.1284   -7.1993    3.9384 C   0  0  1  0  0  0  0  0  0  0  0  0
   -0.8553   -6.2846    4.9378 C   0  0  0  0  0  0  0  0  0  0  0  0
   -0.6763   -6.8320    2.6841 O   0  0  0  0  0  0  0  0  0  0  0  0
    0.2347  -11.3853    4.2513 H   0  0  0  0  0  0  0  0  0  0  0  0
    1.8894  -10.8675    3.9680 H   0  0  0  0  0  0  0  0  0  0  0  0
    1.0045  -11.6914    2.7023 H   0  0  0  0  0  0  0  0  0  0  0  0
   -0.5234   -9.8160    2.3986 H   0  0  0  0  0  0  0  0  0  0  0  0
    3.0268   -8.4467    3.1342 H   0  0  0  0  0  0  0  0  0  0  0  0
    6.5054   -5.2234    1.1914 H   0  0  0  0  0  0  0  0  0  0  0  0
    8.4869   -3.7201    0.4028 H   0  0  0  0  0  0  0  0  0  0  0  0
    8.0173   -2.1820   -0.3478 H   0  0  0  0  0  0  0  0  0  0  0  0
    8.3438   -3.6079   -1.3691 H   0  0  0  0  0  0  0  0  0  0  0  0
    1.9037   -6.4431    4.4295 H   0  0  0  0  0  0  0  0  0  0  0  0
    1.8974   -9.1376    5.2304 H   0  0  0  0  0  0  0  0  0  0  0  0
    0.8553   -7.9964    6.1130 H   0  0  0  0  0  0  0  0  0  0  0  0
   -0.9351   -9.0777    4.7296 H   0  0  0  0  0  0  0  0  0  0  0  0
   -0.5726   -6.4630    5.9700 H   0  0  0  0  0  0  0  0  0  0  0  0
   -1.9390   -6.4336    4.8924 H   0  0  0  0  0  0  0  0  0  0  0  0
   -0.6055   -5.2364    4.7428 H   0  0  0  0  0  0  0  0  0  0  0  0
   -0.3351   -7.4602    2.0584 H   0  0  0  0  0  0  0  0  0  0  0  0
  1  2  1  0
  1 22  1  0
  1 23  1  0
  1 24  1  0
  2 18  1  0
  2  3  1  0
  2 25  1  6
  3  4  1  0
  4  5  1  0
  4 16  1  0
  4 26  1  1
  5 15  1  0
  5  6  2  0
  6  7  1  0
  7  8  1  0
  7 14  2  0
  8 13  1  0
  8  9  2  0
  9 10  1  0
  9 27  1  0
 10 11  1  0
 10 12  1  0
 11 28  1  0
 11 29  1  0
 11 30  1  0
 12 13  2  0
 14 15  1  0
 16 19  1  0
 16 17  1  0
 16 31  1  1
 17 18  1  0
 17 32  1  0
 17 33  1  0
 18 19  1  0
 18 34  1  1
 19 20  1  0
 19 21  1  6
 20 35  1  0
 20 36  1  0
 20 37  1  0
 21 38  1  0
M  END
>  <i_m_ct_stereo_status>  (207) 
1

>  <s_m_source_file>  (207) 
/var/tmp/pbs.5076255.sched01/tmpmtrcy7mx/460f9z2a7c.sdf

>  <i_m_source_file_index>  (207) 
45

>  <i_lp_mmshare_version>  (207) 
48012

>  <i_f3d_flags>  (207) 
0

>  <s_epik_input>  (207) 
W0NIM11bQ0BdMShbT0hdKVtDQEhdKFtDSDJdMilbQ0BIXShbQ0gzXSlPW0NASF0oW0NAQEhdMTIpYzNuYyhubzMpLWM0W2NIXW4oW0NIM10pbm40

>  <s_epik_cmdline>  (207) 
J2VwaWtfcHl0aG9uJywgJy1waHQnLCAnMi4wJywgJy1waCcsICc3LjAnLCAnLXRuJywgJzgnLCAnLW1hJywgJzIwMCcsICctaW1hZScsICc8aW5maWxlLm1hZT4nLCAnLW9tYWUnLCAnPG91dGZpbGUubWFlPic=

>  <r_lp_tautomer_probability>  (207) 
1

>  <r_epik_Ionization_Penalty>  (207) 
5.74198e-08

>  <r_epik_Ionization_Penalty_Charging>  (207) 
0

>  <r_epik_Ionization_Penalty_Neutral>  (207) 
5.74198e-08

>  <r_epik_State_Penalty>  (207) 
-0

>  <r_epik_Charging_Adjusted_Penalty>  (207) 
0

>  <i_epik_Tot_Q>  (207) 
0

>  <i_epik_Tot_abs_Q>  (207) 
0

>  <s_lp_Force_Field>  (207) 
OPLS3e

>  <r_lp_Energy>  (207) 
25.342

>  <b_lp_Chiralities_Consistent>  (207) 
1

>  <s_lp_Variant>  (207) 
51:0-1

>  <s_i_glide_gridfile>  (207) 
pfpi4k_grid

>  <i_i_glide_lignum>  (207) 
45

>  <i_i_glide_rotatable_bonds>  (207) 
3

>  <r_i_docking_score>  (207) 
-3.35236

>  <r_i_glide_ligand_efficiency>  (207) 
-0.159636

>  <r_i_glide_ligand_efficiency_sa>  (207) 
-0.440425

>  <r_i_glide_ligand_efficiency_ln>  (207) 
-0.828865

>  <r_i_glide_gscore>  (207) 
-3.35236

>  <r_i_glide_lipo>  (207) 
-0.460727

>  <r_i_glide_hbond>  (207) 
0

>  <r_i_glide_metal>  (207) 
-0

>  <r_i_glide_rewards>  (207) 
-1.54875

>  <r_i_glide_evdw>  (207) 
-22.9175

>  <r_i_glide_ecoul>  (207) 
-3.31278

>  <r_i_glide_erotb>  (207) 
0.429864

>  <r_i_glide_esite>  (207) 
-0.129958

>  <r_i_glide_emodel>  (207) 
-33.6289

>  <r_i_glide_energy>  (207) 
-26.2302

>  <r_i_glide_einternal>  (207) 
0.794286

>  <r_i_glide_intrahb_reward>  (207) 
-0

>  <i_i_glide_confnum>  (207) 
6

>  <i_i_glide_posenum>  (207) 
14

>  <r_i_glide_eff_state_penalty>  (207) 
0

>  <ligand_id>  (207) 
51

>  <original_smiles>  (207) 
CC1OC(c2nc(-c3cn(C)nn3)no2)C2CC1C2(C)O

>  <smiles>  (207) 
[H]OC1(C([H])([H])[H])C2([H])C([H])(c3nc(-c4nnn(C([H])([H])[H])c4[H])no3)OC([H])(C([H])([H])[H])C1([H])C2([H])[H]

$$$$
51:0:2
     RDKit          3D

 38 41  0  0  1  0  0  0  0  0999 V2000
   -1.5667   -9.0608    2.1889 C   0  0  0  0  0  0  0  0  0  0  0  0
   -0.9097   -7.7290    2.6158 C   0  0  2  0  0  0  0  0  0  0  0  0
    0.0944   -7.2619    1.6760 O   0  0  0  0  0  0  0  0  0  0  0  0
    1.4616   -7.6458    1.9831 C   0  0  1  0  0  0  0  0  0  0  0  0
    2.3917   -6.6197    1.3968 C   0  0  0  0  0  0  0  0  0  0  0  0
    2.1065   -5.6127    0.5664 N   0  0  0  0  0  0  0  0  0  0  0  0
    3.3339   -5.0179    0.4585 C   0  0  0  0  0  0  0  0  0  0  0  0
    3.5539   -3.8679   -0.4088 C   0  0  0  0  0  0  0  0  0  0  0  0
    2.7870   -3.4391   -1.4558 C   0  0  0  0  0  0  0  0  0  0  0  0
    3.4150   -2.3061   -1.9131 N   0  0  0  0  0  0  0  0  0  0  0  0
    3.0226   -1.4333   -2.9953 C   0  0  0  0  0  0  0  0  0  0  0  0
    4.5365   -2.0464   -1.1986 N   0  0  0  0  0  0  0  0  0  0  0  0
    4.6482   -2.9963   -0.3128 N   0  0  0  0  0  0  0  0  0  0  0  0
    4.3203   -5.5965    1.1252 N   0  0  0  0  0  0  0  0  0  0  0  0
    3.6961   -6.6755    1.7481 O   0  0  0  0  0  0  0  0  0  0  0  0
    1.6404   -7.7761    3.5206 C   0  0  2  0  0  0  0  0  0  0  0  0
    0.7984   -8.9141    4.1292 C   0  0  0  0  0  0  0  0  0  0  0  0
   -0.3062   -7.8412    4.0295 C   0  0  1  0  0  0  0  0  0  0  0  0
    0.7989   -6.8219    4.4138 C   0  0  1  0  0  0  0  0  0  0  0  0
    1.1945   -6.6291    5.8905 C   0  0  0  0  0  0  0  0  0  0  0  0
    0.6175   -5.4942    3.9440 O   0  0  0  0  0  0  0  0  0  0  0  0
   -2.2071   -9.4225    2.9934 H   0  0  0  0  0  0  0  0  0  0  0  0
   -0.8350   -9.8423    1.9857 H   0  0  0  0  0  0  0  0  0  0  0  0
   -2.1763   -8.9703    1.2928 H   0  0  0  0  0  0  0  0  0  0  0  0
   -1.6787   -6.9605    2.6115 H   0  0  0  0  0  0  0  0  0  0  0  0
    1.6538   -8.6164    1.5022 H   0  0  0  0  0  0  0  0  0  0  0  0
    1.8806   -3.8391   -1.8805 H   0  0  0  0  0  0  0  0  0  0  0  0
    2.2305   -1.9215   -3.5652 H   0  0  0  0  0  0  0  0  0  0  0  0
    3.8698   -1.2474   -3.6476 H   0  0  0  0  0  0  0  0  0  0  0  0
    2.6415   -0.4987   -2.5877 H   0  0  0  0  0  0  0  0  0  0  0  0
    2.6784   -7.8577    3.8338 H   0  0  0  0  0  0  0  0  0  0  0  0
    0.6874   -9.7869    3.4670 H   0  0  0  0  0  0  0  0  0  0  0  0
    1.0555   -9.2335    5.1361 H   0  0  0  0  0  0  0  0  0  0  0  0
   -1.0700   -7.9308    4.8023 H   0  0  0  0  0  0  0  0  0  0  0  0
    1.3741   -7.5652    6.4119 H   0  0  0  0  0  0  0  0  0  0  0  0
    0.4033   -6.1111    6.4457 H   0  0  0  0  0  0  0  0  0  0  0  0
    2.1197   -6.0463    5.9824 H   0  0  0  0  0  0  0  0  0  0  0  0
    1.4626   -5.0639    3.9582 H   0  0  0  0  0  0  0  0  0  0  0  0
  1  2  1  0
  1 22  1  0
  1 23  1  0
  1 24  1  0
  2 18  1  0
  2  3  1  0
  2 25  1  1
  3  4  1  0
  4  5  1  0
  4 16  1  0
  4 26  1  6
  5 15  1  0
  5  6  2  0
  6  7  1  0
  7  8  1  0
  7 14  2  0
  8 13  1  0
  8  9  2  0
  9 10  1  0
  9 27  1  0
 10 11  1  0
 10 12  1  0
 11 28  1  0
 11 29  1  0
 11 30  1  0
 12 13  2  0
 14 15  1  0
 16 19  1  0
 16 17  1  0
 16 31  1  6
 17 18  1  0
 17 32  1  0
 17 33  1  0
 18 19  1  0
 18 34  1  1
 19 20  1  0
 19 21  1  6
 20 35  1  0
 20 36  1  0
 20 37  1  0
 21 38  1  0
M  END
>  <i_m_ct_stereo_status>  (208) 
1

>  <s_m_source_file>  (208) 
/var/tmp/pbs.5076255.sched01/tmpmtrcy7mx/460f9z2a7c.sdf

>  <i_m_source_file_index>  (208) 
45

>  <i_lp_mmshare_version>  (208) 
48012

>  <i_f3d_flags>  (208) 
0

>  <s_epik_input>  (208) 
W0NIM11bQ0BdMShbT0hdKVtDQEhdKFtDSDJdMilbQ0BIXShbQ0gzXSlPW0NASF0oW0NAQEhdMTIpYzNuYyhubzMpLWM0W2NIXW4oW0NIM10pbm40

>  <s_epik_cmdline>  (208) 
J2VwaWtfcHl0aG9uJywgJy1waHQnLCAnMi4wJywgJy1waCcsICc3LjAnLCAnLXRuJywgJzgnLCAnLW1hJywgJzIwMCcsICctaW1hZScsICc8aW5maWxlLm1hZT4nLCAnLW9tYWUnLCAnPG91dGZpbGUubWFlPic=

>  <r_lp_tautomer_probability>  (208) 
1

>  <r_epik_Ionization_Penalty>  (208) 
5.74198e-08

>  <r_epik_Ionization_Penalty_Charging>  (208) 
0

>  <r_epik_Ionization_Penalty_Neutral>  (208) 
5.74198e-08

>  <r_epik_State_Penalty>  (208) 
-0

>  <r_epik_Charging_Adjusted_Penalty>  (208) 
0

>  <i_epik_Tot_Q>  (208) 
0

>  <i_epik_Tot_abs_Q>  (208) 
0

>  <s_lp_Force_Field>  (208) 
OPLS3e

>  <r_lp_Energy>  (208) 
25.342

>  <b_lp_Chiralities_Consistent>  (208) 
1

>  <s_lp_Variant>  (208) 
51:0-1

>  <s_i_glide_gridfile>  (208) 
pfpi4k_grid

>  <i_i_glide_lignum>  (208) 
45

>  <i_i_glide_rotatable_bonds>  (208) 
3

>  <r_i_docking_score>  (208) 
-3.14609

>  <r_i_glide_ligand_efficiency>  (208) 
-0.149814

>  <r_i_glide_ligand_efficiency_sa>  (208) 
-0.413325

>  <r_i_glide_ligand_efficiency_ln>  (208) 
-0.777864

>  <r_i_glide_gscore>  (208) 
-3.14609

>  <r_i_glide_lipo>  (208) 
-0.298664

>  <r_i_glide_hbond>  (208) 
-0.0144891

>  <r_i_glide_metal>  (208) 
-0

>  <r_i_glide_rewards>  (208) 
-1.42292

>  <r_i_glide_evdw>  (208) 
-24.8971

>  <r_i_glide_ecoul>  (208) 
-3.37761

>  <r_i_glide_erotb>  (208) 
0.429864

>  <r_i_glide_esite>  (208) 
-0.0883884

>  <r_i_glide_emodel>  (208) 
-34.0024

>  <r_i_glide_energy>  (208) 
-28.2747

>  <r_i_glide_einternal>  (208) 
2.95724

>  <r_i_glide_intrahb_reward>  (208) 
-0

>  <i_i_glide_confnum>  (208) 
1

>  <i_i_glide_posenum>  (208) 
24

>  <r_i_glide_eff_state_penalty>  (208) 
0

>  <ligand_id>  (208) 
51

>  <original_smiles>  (208) 
CC1OC(c2nc(-c3cn(C)nn3)no2)C2CC1C2(C)O

>  <smiles>  (208) 
[H]OC1(C([H])([H])[H])C2([H])C([H])(c3nc(-c4nnn(C([H])([H])[H])c4[H])no3)OC([H])(C([H])([H])[H])C1([H])C2([H])[H]

$$$$
52:0:0
     RDKit          3D

 39 42  0  0  1  0  0  0  0  0999 V2000
   -2.1671    0.1610    6.4733 O   0  0  0  0  0  0  0  0  0  0  0  0
   -1.7238   -0.6459    5.6184 C   0  0  0  0  0  0  0  0  0  0  0  0
   -2.0300   -1.8606    5.6879 O   0  0  0  0  0  0  0  0  0  0  0  0
   -0.8132   -0.1856    4.5198 C   0  0  0  0  0  0  0  0  0  0  0  0
   -0.9102    1.1265    3.9899 C   0  0  0  0  0  0  0  0  0  0  0  0
   -0.0847    1.5259    2.9114 C   0  0  0  0  0  0  0  0  0  0  0  0
    0.8559    0.6177    2.3751 C   0  0  0  0  0  0  0  0  0  0  0  0
    0.9889   -0.6827    2.9120 C   0  0  0  0  0  0  0  0  0  0  0  0
    1.9223   -1.5585    2.2928 N   0  0  0  0  0  0  0  0  0  0  0  0
    2.5938   -2.6161    2.7817 C   0  0  0  0  0  0  0  0  0  0  0  0
    2.4416   -3.0733    3.9208 O   0  0  0  0  0  0  0  0  0  0  0  0
    3.6044   -3.3001    1.8382 C   0  0  2  0  0  0  0  0  0  0  0  0
    4.7843   -2.5103    1.2755 C   0  0  0  0  0  0  0  0  0  0  0  0
    4.4530   -1.4358    0.5351 C   0  0  0  0  0  0  0  0  0  0  0  0
    3.8805   -1.9109   -0.7896 C   0  0  0  0  0  0  0  0  0  0  0  0
    3.9603   -3.4324   -0.5627 C   0  0  2  0  0  0  0  0  0  0  0  0
    2.9170   -3.8295    0.5248 C   0  0  1  0  0  0  0  0  0  0  0  0
    2.6240   -5.3411    0.5856 C   0  0  0  0  0  0  0  0  0  0  0  0
    1.4329   -5.6897    0.5021 O   0  0  0  0  0  0  0  0  0  0  0  0
    3.6008   -6.1287    0.7181 O   0  0  0  0  0  0  0  0  0  0  0  0
    5.2197   -3.4251    0.2175 C   0  0  0  0  0  0  0  0  0  0  0  0
    6.6014   -3.3206   -0.3880 C   0  0  0  0  0  0  0  0  0  0  0  0
    6.1845   -4.5631    0.3716 C   0  0  0  0  0  0  0  0  0  0  0  0
    0.1421   -1.0811    3.9797 C   0  0  0  0  0  0  0  0  0  0  0  0
   -1.6510    1.7977    4.3932 H   0  0  0  0  0  0  0  0  0  0  0  0
   -0.1786    2.5197    2.4785 H   0  0  0  0  0  0  0  0  0  0  0  0
    1.4699    0.9243    1.5358 H   0  0  0  0  0  0  0  0  0  0  0  0
    2.1908   -1.3039    1.3476 H   0  0  0  0  0  0  0  0  0  0  0  0
    4.0625   -4.1246    2.3932 H   0  0  0  0  0  0  0  0  0  0  0  0
    3.9010   -0.6361    0.9892 H   0  0  0  0  0  0  0  0  0  0  0  0
    2.8631   -1.5652   -0.9731 H   0  0  0  0  0  0  0  0  0  0  0  0
    4.5401   -1.5347   -1.5695 H   0  0  0  0  0  0  0  0  0  0  0  0
    4.0102   -4.0622   -1.4504 H   0  0  0  0  0  0  0  0  0  0  0  0
    1.9697   -3.3133    0.3299 H   0  0  0  0  0  0  0  0  0  0  0  0
    6.6544   -3.3597   -1.4765 H   0  0  0  0  0  0  0  0  0  0  0  0
    7.3569   -2.7178    0.1027 H   0  0  0  0  0  0  0  0  0  0  0  0
    6.6564   -4.7263    1.3315 H   0  0  0  0  0  0  0  0  0  0  0  0
    5.9452   -5.4495   -0.2144 H   0  0  0  0  0  0  0  0  0  0  0  0
    0.1684   -2.0857    4.3693 H   0  0  0  0  0  0  0  0  0  0  0  0
  1  2  2  0
  2  3  1  0
  2  4  1  0
  4 24  2  0
  4  5  1  0
  5  6  2  0
  5 25  1  0
  6  7  1  0
  6 26  1  0
  7  8  2  0
  7 27  1  0
  8  9  1  0
  8 24  1  0
  9 10  1  0
  9 28  1  0
 10 11  2  0
 10 12  1  0
 12 17  1  0
 12 13  1  0
 12 29  1  1
 13 21  1  0
 13 14  2  0
 14 15  1  0
 14 30  1  0
 15 16  1  0
 15 31  1  0
 15 32  1  0
 16 17  1  0
 16 21  1  0
 16 33  1  6
 17 18  1  0
 17 34  1  6
 18 19  2  0
 18 20  1  0
 21 23  1  0
 21 22  1  0
 22 23  1  0
 22 35  1  0
 22 36  1  0
 23 37  1  0
 23 38  1  0
 24 39  1  0
M  CHG  2   3  -1  20  -1
M  END
>  <i_m_ct_stereo_status>  (209) 
1

>  <s_m_source_file>  (209) 
/var/tmp/pbs.5076255.sched01/tmpmtrcy7mx/460f9z2a7c.sdf

>  <i_m_source_file_index>  (209) 
46

>  <i_lp_mmshare_version>  (209) 
48012

>  <i_f3d_flags>  (209) 
0

>  <s_epik_input>  (209) 
Tz1DKFtPSF0pYzFbY0hdW2NIXVtjSF1jKFtjSF0xKVtOSF1DKD1PKVtDQEhdMltDQEhdKEMoPU8pW09IXSlbQ0BIXTNbQ0gyXVtDSF09QzJDMzRbQ0gyXVtDSDJdNA==

>  <s_epik_cmdline>  (209) 
J2VwaWtfcHl0aG9uJywgJy1waHQnLCAnMi4wJywgJy1waCcsICc3LjAnLCAnLXRuJywgJzgnLCAnLW1hJywgJzIwMCcsICctaW1hZScsICc8aW5maWxlLm1hZT4nLCAnLW9tYWUnLCAnPG91dGZpbGUubWFlPic=

>  <r_lp_tautomer_probability>  (209) 
1

>  <r_epik_Ionization_Penalty>  (209) 
0.00473841

>  <r_epik_Ionization_Penalty_Charging>  (209) 
0.00472322

>  <r_epik_Ionization_Penalty_Neutral>  (209) 
1.51891e-05

>  <r_epik_State_Penalty>  (209) 
-0

>  <r_epik_Charging_Adjusted_Penalty>  (209) 
0.00472322

>  <i_epik_Tot_Q>  (209) 
-2

>  <i_epik_Tot_abs_Q>  (209) 
2

>  <s_lp_Force_Field>  (209) 
OPLS3e

>  <r_lp_Energy>  (209) 
92.8654

>  <b_lp_Chiralities_Consistent>  (209) 
1

>  <s_lp_Variant>  (209) 
52:0-1

>  <s_i_glide_gridfile>  (209) 
pfpi4k_grid

>  <i_i_glide_lignum>  (209) 
46

>  <i_i_glide_rotatable_bonds>  (209) 
5

>  <r_i_docking_score>  (209) 
-3.93934

>  <r_i_glide_ligand_efficiency>  (209) 
-0.164139

>  <r_i_glide_ligand_efficiency_sa>  (209) 
-0.473459

>  <r_i_glide_ligand_efficiency_ln>  (209) 
-0.942864

>  <r_i_glide_gscore>  (209) 
-3.93934

>  <r_i_glide_lipo>  (209) 
-0.337841

>  <r_i_glide_hbond>  (209) 
-0.378171

>  <r_i_glide_metal>  (209) 
-0

>  <r_i_glide_rewards>  (209) 
-1.19103

>  <r_i_glide_evdw>  (209) 
-22.0509

>  <r_i_glide_ecoul>  (209) 
-8.74888

>  <r_i_glide_erotb>  (209) 
0.531217

>  <r_i_glide_esite>  (209) 
-0.148629

>  <r_i_glide_emodel>  (209) 
-41.0883

>  <r_i_glide_energy>  (209) 
-30.7998

>  <r_i_glide_einternal>  (209) 
6.64864

>  <r_i_glide_intrahb_reward>  (209) 
-0

>  <i_i_glide_confnum>  (209) 
5

>  <i_i_glide_posenum>  (209) 
1

>  <r_i_glide_eff_state_penalty>  (209) 
0

>  <ligand_id>  (209) 
52

>  <original_smiles>  (209) 
O=C(O)c1cccc(NC(=O)C2C3=CCC(C2C(=O)O)C32CC2)c1

>  <smiles>  (209) 
[H]C1=C2C([H])(C(=O)N([H])c3c([H])c([H])c([H])c(C(=O)[O-])c3[H])C([H])(C(=O)[O-])C([H])(C1([H])[H])C21C([H])([H])C1([H])[H]

$$$$
52:0:1
     RDKit          3D

 39 42  0  0  1  0  0  0  0  0999 V2000
    6.6182   -1.8636   -1.2832 O   0  0  0  0  0  0  0  0  0  0  0  0
    5.4106   -1.5830   -1.1067 C   0  0  0  0  0  0  0  0  0  0  0  0
    4.5902   -1.5981   -2.0459 O   0  0  0  0  0  0  0  0  0  0  0  0
    4.9609   -1.1977    0.2843 C   0  0  0  0  0  0  0  0  0  0  0  0
    5.8513   -1.2905    1.3739 C   0  0  0  0  0  0  0  0  0  0  0  0
    5.4395   -0.9372    2.6717 C   0  0  0  0  0  0  0  0  0  0  0  0
    4.1269   -0.4853    2.8980 C   0  0  0  0  0  0  0  0  0  0  0  0
    3.2046   -0.4002    1.8206 C   0  0  0  0  0  0  0  0  0  0  0  0
    1.8799    0.0871    2.0198 N   0  0  0  0  0  0  0  0  0  0  0  0
    1.1230   -0.1824    3.0993 C   0  0  0  0  0  0  0  0  0  0  0  0
    1.3489   -1.1334    3.8391 O   0  0  0  0  0  0  0  0  0  0  0  0
   -0.0874    0.7326    3.3886 C   0  0  2  0  0  0  0  0  0  0  0  0
    0.0162    2.2204    3.0719 C   0  0  0  0  0  0  0  0  0  0  0  0
    1.0402    2.8566    3.6800 C   0  0  0  0  0  0  0  0  0  0  0  0
    0.6696    3.0686    5.1435 C   0  0  0  0  0  0  0  0  0  0  0  0
   -0.6826    2.3315    5.1629 C   0  0  2  0  0  0  0  0  0  0  0  0
   -0.4427    0.8003    4.9319 C   0  0  1  0  0  0  0  0  0  0  0  0
   -1.6433   -0.0685    5.3407 C   0  0  0  0  0  0  0  0  0  0  0  0
   -2.1946    0.2190    6.4365 O   0  0  0  0  0  0  0  0  0  0  0  0
   -1.9778   -1.0507    4.6238 O   0  0  0  0  0  0  0  0  0  0  0  0
   -1.1395    2.7430    3.8129 C   0  0  0  0  0  0  0  0  0  0  0  0
   -1.7736    4.0744    3.5149 C   0  0  0  0  0  0  0  0  0  0  0  0
   -2.5652    2.8002    3.3627 C   0  0  0  0  0  0  0  0  0  0  0  0
    3.6422   -0.7397    0.5175 C   0  0  0  0  0  0  0  0  0  0  0  0
    6.8594   -1.6494    1.2123 H   0  0  0  0  0  0  0  0  0  0  0  0
    6.1320   -1.0077    3.5002 H   0  0  0  0  0  0  0  0  0  0  0  0
    3.8402   -0.1966    3.8997 H   0  0  0  0  0  0  0  0  0  0  0  0
    1.5123    0.7451    1.3427 H   0  0  0  0  0  0  0  0  0  0  0  0
   -0.9202    0.3523    2.7941 H   0  0  0  0  0  0  0  0  0  0  0  0
    2.0535    2.5340    3.5155 H   0  0  0  0  0  0  0  0  0  0  0  0
    1.3982    2.6411    5.8444 H   0  0  0  0  0  0  0  0  0  0  0  0
    0.5787    4.1438    5.3144 H   0  0  0  0  0  0  0  0  0  0  0  0
   -1.3756    2.6231    5.9440 H   0  0  0  0  0  0  0  0  0  0  0  0
    0.3976    0.4757    5.5584 H   0  0  0  0  0  0  0  0  0  0  0  0
   -1.9616    4.7115    4.3733 H   0  0  0  0  0  0  0  0  0  0  0  0
   -1.5308    4.5915    2.5828 H   0  0  0  0  0  0  0  0  0  0  0  0
   -2.8211    2.5108    2.3402 H   0  0  0  0  0  0  0  0  0  0  0  0
   -3.3121    2.5696    4.1170 H   0  0  0  0  0  0  0  0  0  0  0  0
    2.9524   -0.6566   -0.3101 H   0  0  0  0  0  0  0  0  0  0  0  0
  1  2  2  0
  2  3  1  0
  2  4  1  0
  4 24  2  0
  4  5  1  0
  5  6  2  0
  5 25  1  0
  6  7  1  0
  6 26  1  0
  7  8  2  0
  7 27  1  0
  8  9  1  0
  8 24  1  0
  9 10  1  0
  9 28  1  0
 10 11  2  0
 10 12  1  0
 12 17  1  0
 12 13  1  0
 12 29  1  6
 13 21  1  0
 13 14  2  0
 14 15  1  0
 14 30  1  0
 15 16  1  0
 15 31  1  0
 15 32  1  0
 16 17  1  0
 16 21  1  0
 16 33  1  1
 17 18  1  0
 17 34  1  1
 18 19  2  0
 18 20  1  0
 21 23  1  0
 21 22  1  0
 22 23  1  0
 22 35  1  0
 22 36  1  0
 23 37  1  0
 23 38  1  0
 24 39  1  0
M  CHG  2   3  -1  20  -1
M  END
>  <i_m_ct_stereo_status>  (210) 
1

>  <s_m_source_file>  (210) 
/var/tmp/pbs.5076255.sched01/tmpmtrcy7mx/460f9z2a7c.sdf

>  <i_m_source_file_index>  (210) 
46

>  <i_lp_mmshare_version>  (210) 
48012

>  <i_f3d_flags>  (210) 
0

>  <s_epik_input>  (210) 
Tz1DKFtPSF0pYzFbY0hdW2NIXVtjSF1jKFtjSF0xKVtOSF1DKD1PKVtDQEhdMltDQEhdKEMoPU8pW09IXSlbQ0BIXTNbQ0gyXVtDSF09QzJDMzRbQ0gyXVtDSDJdNA==

>  <s_epik_cmdline>  (210) 
J2VwaWtfcHl0aG9uJywgJy1waHQnLCAnMi4wJywgJy1waCcsICc3LjAnLCAnLXRuJywgJzgnLCAnLW1hJywgJzIwMCcsICctaW1hZScsICc8aW5maWxlLm1hZT4nLCAnLW9tYWUnLCAnPG91dGZpbGUubWFlPic=

>  <r_lp_tautomer_probability>  (210) 
1

>  <r_epik_Ionization_Penalty>  (210) 
0.00473841

>  <r_epik_Ionization_Penalty_Charging>  (210) 
0.00472322

>  <r_epik_Ionization_Penalty_Neutral>  (210) 
1.51891e-05

>  <r_epik_State_Penalty>  (210) 
-0

>  <r_epik_Charging_Adjusted_Penalty>  (210) 
0.00472322

>  <i_epik_Tot_Q>  (210) 
-2

>  <i_epik_Tot_abs_Q>  (210) 
2

>  <s_lp_Force_Field>  (210) 
OPLS3e

>  <r_lp_Energy>  (210) 
92.8654

>  <b_lp_Chiralities_Consistent>  (210) 
1

>  <s_lp_Variant>  (210) 
52:0-1

>  <s_i_glide_gridfile>  (210) 
pfpi4k_grid

>  <i_i_glide_lignum>  (210) 
46

>  <i_i_glide_rotatable_bonds>  (210) 
5

>  <r_i_docking_score>  (210) 
-3.7109

>  <r_i_glide_ligand_efficiency>  (210) 
-0.154621

>  <r_i_glide_ligand_efficiency_sa>  (210) 
-0.446003

>  <r_i_glide_ligand_efficiency_ln>  (210) 
-0.888188

>  <r_i_glide_gscore>  (210) 
-3.7109

>  <r_i_glide_lipo>  (210) 
-0.366318

>  <r_i_glide_hbond>  (210) 
-0.407565

>  <r_i_glide_metal>  (210) 
-0

>  <r_i_glide_rewards>  (210) 
-1.19103

>  <r_i_glide_evdw>  (210) 
-24.7627

>  <r_i_glide_ecoul>  (210) 
-5.7971

>  <r_i_glide_erotb>  (210) 
0.531217

>  <r_i_glide_esite>  (210) 
-0.169501

>  <r_i_glide_emodel>  (210) 
-41.3882

>  <r_i_glide_energy>  (210) 
-30.5598

>  <r_i_glide_einternal>  (210) 
4.3834

>  <r_i_glide_intrahb_reward>  (210) 
-0

>  <i_i_glide_confnum>  (210) 
2

>  <i_i_glide_posenum>  (210) 
26

>  <r_i_glide_eff_state_penalty>  (210) 
0

>  <ligand_id>  (210) 
52

>  <original_smiles>  (210) 
O=C(O)c1cccc(NC(=O)C2C3=CCC(C2C(=O)O)C32CC2)c1

>  <smiles>  (210) 
[H]C1=C2C([H])(C(=O)N([H])c3c([H])c([H])c([H])c(C(=O)[O-])c3[H])C([H])(C(=O)[O-])C([H])(C1([H])[H])C21C([H])([H])C1([H])[H]

$$$$
52:0:2
     RDKit          3D

 39 42  0  0  1  0  0  0  0  0999 V2000
   -2.0804    0.1665    6.4766 O   0  0  0  0  0  0  0  0  0  0  0  0
   -1.3955   -0.4888    5.6493 C   0  0  0  0  0  0  0  0  0  0  0  0
   -1.3625   -1.7360    5.7000 O   0  0  0  0  0  0  0  0  0  0  0  0
   -0.6372    0.2548    4.5743 C   0  0  0  0  0  0  0  0  0  0  0  0
   -0.7810    1.6570    4.4548 C   0  0  0  0  0  0  0  0  0  0  0  0
   -0.1182    2.3687    3.4324 C   0  0  0  0  0  0  0  0  0  0  0  0
    0.7105    1.6791    2.5255 C   0  0  0  0  0  0  0  0  0  0  0  0
    0.9075    0.2843    2.6446 C   0  0  0  0  0  0  0  0  0  0  0  0
    1.7526   -0.3411    1.6928 N   0  0  0  0  0  0  0  0  0  0  0  0
    2.5897   -1.3849    1.8511 C   0  0  0  0  0  0  0  0  0  0  0  0
    2.6060   -2.0693    2.8834 O   0  0  0  0  0  0  0  0  0  0  0  0
    3.5500   -1.7132    0.6711 C   0  0  2  0  0  0  0  0  0  0  0  0
    3.1347   -2.6861   -0.4194 C   0  0  0  0  0  0  0  0  0  0  0  0
    2.7885   -3.8991    0.0292 C   0  0  0  0  0  0  0  0  0  0  0  0
    4.0677   -4.6526    0.4002 C   0  0  0  0  0  0  0  0  0  0  0  0
    5.0878   -3.5492    0.1195 C   0  0  2  0  0  0  0  0  0  0  0  0
    4.8870   -2.4075    1.1546 C   0  0  1  0  0  0  0  0  0  0  0  0
    6.0390   -1.4101    1.2097 C   0  0  0  0  0  0  0  0  0  0  0  0
    6.9085   -1.4231    0.3143 O   0  0  0  0  0  0  0  0  0  0  0  0
    6.0022   -0.6459    2.1930 O   0  0  0  0  0  0  0  0  0  0  0  0
    4.4110   -2.9509   -1.0730 C   0  0  0  0  0  0  0  0  0  0  0  0
    4.5308   -3.5019   -2.4700 C   0  0  0  0  0  0  0  0  0  0  0  0
    5.0693   -2.1218   -2.1340 C   0  0  0  0  0  0  0  0  0  0  0  0
    0.2183   -0.4274    3.6672 C   0  0  0  0  0  0  0  0  0  0  0  0
   -1.4192    2.1849    5.1539 H   0  0  0  0  0  0  0  0  0  0  0  0
   -0.2346    3.4463    3.3408 H   0  0  0  0  0  0  0  0  0  0  0  0
    1.2073    2.2397    1.7394 H   0  0  0  0  0  0  0  0  0  0  0  0
    1.7530    0.0570    0.7549 H   0  0  0  0  0  0  0  0  0  0  0  0
    3.7699   -0.7830    0.1482 H   0  0  0  0  0  0  0  0  0  0  0  0
    2.0277   -3.9830    0.7713 H   0  0  0  0  0  0  0  0  0  0  0  0
    4.0797   -4.9830    1.4429 H   0  0  0  0  0  0  0  0  0  0  0  0
    4.1573   -5.5002   -0.2771 H   0  0  0  0  0  0  0  0  0  0  0  0
    6.1098   -3.8529   -0.0948 H   0  0  0  0  0  0  0  0  0  0  0  0
    4.7984   -2.8438    2.1633 H   0  0  0  0  0  0  0  0  0  0  0  0
    5.2161   -4.3314   -2.5923 H   0  0  0  0  0  0  0  0  0  0  0  0
    3.6490   -3.5307   -3.1029 H   0  0  0  0  0  0  0  0  0  0  0  0
    4.5341   -1.2899   -2.5885 H   0  0  0  0  0  0  0  0  0  0  0  0
    6.1445   -2.0327   -2.0853 H   0  0  0  0  0  0  0  0  0  0  0  0
    0.3130   -1.5021    3.7376 H   0  0  0  0  0  0  0  0  0  0  0  0
  1  2  2  0
  2  3  1  0
  2  4  1  0
  4 24  2  0
  4  5  1  0
  5  6  2  0
  5 25  1  0
  6  7  1  0
  6 26  1  0
  7  8  2  0
  7 27  1  0
  8  9  1  0
  8 24  1  0
  9 10  1  0
  9 28  1  0
 10 11  2  0
 10 12  1  0
 12 17  1  0
 12 13  1  0
 12 29  1  6
 13 21  1  0
 13 14  2  0
 14 15  1  0
 14 30  1  0
 15 16  1  0
 15 31  1  0
 15 32  1  0
 16 17  1  0
 16 21  1  0
 16 33  1  6
 17 18  1  0
 17 34  1  1
 18 19  2  0
 18 20  1  0
 21 23  1  0
 21 22  1  0
 22 23  1  0
 22 35  1  0
 22 36  1  0
 23 37  1  0
 23 38  1  0
 24 39  1  0
M  CHG  2   3  -1  20  -1
M  END
>  <i_m_ct_stereo_status>  (211) 
1

>  <s_m_source_file>  (211) 
/var/tmp/pbs.5076255.sched01/tmpmtrcy7mx/460f9z2a7c.sdf

>  <i_m_source_file_index>  (211) 
46

>  <i_lp_mmshare_version>  (211) 
48012

>  <i_f3d_flags>  (211) 
0

>  <s_epik_input>  (211) 
Tz1DKFtPSF0pYzFbY0hdW2NIXVtjSF1jKFtjSF0xKVtOSF1DKD1PKVtDQEhdMltDQEhdKEMoPU8pW09IXSlbQ0BIXTNbQ0gyXVtDSF09QzJDMzRbQ0gyXVtDSDJdNA==

>  <s_epik_cmdline>  (211) 
J2VwaWtfcHl0aG9uJywgJy1waHQnLCAnMi4wJywgJy1waCcsICc3LjAnLCAnLXRuJywgJzgnLCAnLW1hJywgJzIwMCcsICctaW1hZScsICc8aW5maWxlLm1hZT4nLCAnLW9tYWUnLCAnPG91dGZpbGUubWFlPic=

>  <r_lp_tautomer_probability>  (211) 
1

>  <r_epik_Ionization_Penalty>  (211) 
0.00473841

>  <r_epik_Ionization_Penalty_Charging>  (211) 
0.00472322

>  <r_epik_Ionization_Penalty_Neutral>  (211) 
1.51891e-05

>  <r_epik_State_Penalty>  (211) 
-0

>  <r_epik_Charging_Adjusted_Penalty>  (211) 
0.00472322

>  <i_epik_Tot_Q>  (211) 
-2

>  <i_epik_Tot_abs_Q>  (211) 
2

>  <s_lp_Force_Field>  (211) 
OPLS3e

>  <r_lp_Energy>  (211) 
92.8654

>  <b_lp_Chiralities_Consistent>  (211) 
1

>  <s_lp_Variant>  (211) 
52:0-1

>  <s_i_glide_gridfile>  (211) 
pfpi4k_grid

>  <i_i_glide_lignum>  (211) 
46

>  <i_i_glide_rotatable_bonds>  (211) 
5

>  <r_i_docking_score>  (211) 
-3.58188

>  <r_i_glide_ligand_efficiency>  (211) 
-0.149245

>  <r_i_glide_ligand_efficiency_sa>  (211) 
-0.430497

>  <r_i_glide_ligand_efficiency_ln>  (211) 
-0.857308

>  <r_i_glide_gscore>  (211) 
-3.58188

>  <r_i_glide_lipo>  (211) 
-0.106842

>  <r_i_glide_hbond>  (211) 
-0.284166

>  <r_i_glide_metal>  (211) 
-0

>  <r_i_glide_rewards>  (211) 
-1.4481

>  <r_i_glide_evdw>  (211) 
-24.3372

>  <r_i_glide_ecoul>  (211) 
-5.68744

>  <r_i_glide_erotb>  (211) 
0.531217

>  <r_i_glide_esite>  (211) 
-0.204019

>  <r_i_glide_emodel>  (211) 
-41.3191

>  <r_i_glide_energy>  (211) 
-30.0246

>  <r_i_glide_einternal>  (211) 
2.06991

>  <r_i_glide_intrahb_reward>  (211) 
-0

>  <i_i_glide_confnum>  (211) 
2

>  <i_i_glide_posenum>  (211) 
13

>  <r_i_glide_eff_state_penalty>  (211) 
0

>  <ligand_id>  (211) 
52

>  <original_smiles>  (211) 
O=C(O)c1cccc(NC(=O)C2C3=CCC(C2C(=O)O)C32CC2)c1

>  <smiles>  (211) 
[H]C1=C2C([H])(C(=O)N([H])c3c([H])c([H])c([H])c(C(=O)[O-])c3[H])C([H])(C(=O)[O-])C([H])(C1([H])[H])C21C([H])([H])C1([H])[H]

$$$$
53:0:0
     RDKit          3D

 37 39  0  0  1  0  0  0  0  0999 V2000
    1.3349   -7.8799    2.2579 N   0  0  0  0  0  0  0  0  0  0  0  0
    2.6093   -7.3800    1.9788 C   0  0  0  0  0  0  0  0  0  0  0  0
    3.6933   -7.9491    2.5714 N   0  0  0  0  0  0  0  0  0  0  0  0
    4.9129   -7.4500    2.3137 C   0  0  0  0  0  0  0  0  0  0  0  0
    5.2524   -6.4291    1.5293 N   0  0  0  0  0  0  0  0  0  0  0  0
    4.1263   -5.8917    0.9316 C   0  0  0  0  0  0  0  0  0  0  0  0
    2.8175   -6.3137    1.1280 C   0  0  0  0  0  0  0  0  0  0  0  0
    1.9299   -5.5217    0.3829 N   0  0  0  0  0  0  0  0  0  0  0  0
    2.6516   -4.6605   -0.2525 N   0  0  0  0  0  0  0  0  0  0  0  0
    3.9828   -4.8406    0.0444 N   0  0  0  0  0  0  0  0  0  0  0  0
    4.9890   -3.9462   -0.4923 C   0  0  2  0  0  0  0  0  0  0  0  0
    4.9543   -2.7038    0.1933 O   0  0  0  0  0  0  0  0  0  0  0  0
    3.8334   -1.8444   -0.0301 C   0  0  1  0  0  0  0  0  0  0  0  0
    3.8514   -0.5913    0.8708 C   0  0  0  0  0  0  0  0  0  0  0  0
    2.4691   -0.2699    1.2935 N   0  0  0  0  0  0  0  0  0  0  0  0
    3.6541   -1.5657   -1.5586 C   0  0  1  0  0  0  0  0  0  0  0  0
    4.6424   -0.6426   -1.9799 O   0  0  0  0  0  0  0  0  0  0  0  0
    3.7391   -2.8438   -2.4338 C   0  0  1  0  0  0  0  0  0  0  0  0
    3.6482   -2.5658   -3.8182 O   0  0  0  0  0  0  0  0  0  0  0  0
    4.9567   -3.7160   -2.0319 C   0  0  1  0  0  0  0  0  0  0  0  0
    6.1672   -3.0932   -2.4202 O   0  0  0  0  0  0  0  0  0  0  0  0
    0.5169   -7.5519    1.7426 H   0  0  0  0  0  0  0  0  0  0  0  0
    5.7343   -7.9394    2.8221 H   0  0  0  0  0  0  0  0  0  0  0  0
    5.9569   -4.3826   -0.2435 H   0  0  0  0  0  0  0  0  0  0  0  0
    2.9859   -2.3934    0.3785 H   0  0  0  0  0  0  0  0  0  0  0  0
    4.4599   -0.7680    1.7563 H   0  0  0  0  0  0  0  0  0  0  0  0
    4.2889    0.2718    0.3830 H   0  0  0  0  0  0  0  0  0  0  0  0
    2.4464    0.5770    1.8305 H   0  0  0  0  0  0  0  0  0  0  0  0
    2.1048   -1.0222    1.8473 H   0  0  0  0  0  0  0  0  0  0  0  0
    2.6674   -1.1246   -1.7110 H   0  0  0  0  0  0  0  0  0  0  0  0
    4.5091    0.1913   -1.5475 H   0  0  0  0  0  0  0  0  0  0  0  0
    2.8257   -3.4098   -2.3168 H   0  0  0  0  0  0  0  0  0  0  0  0
    2.7688   -2.2355   -3.9677 H   0  0  0  0  0  0  0  0  0  0  0  0
    4.9371   -4.6859   -2.5216 H   0  0  0  0  0  0  0  0  0  0  0  0
    6.0410   -2.1694   -2.2309 H   0  0  0  0  0  0  0  0  0  0  0  0
    1.1970   -8.7226    2.7992 H   0  0  0  0  0  0  0  0  0  0  0  0
    1.8655   -0.1960    0.4797 H   0  0  0  0  0  0  0  0  0  0  0  0
  1  2  1  0
  1 22  1  0
  1 36  1  0
  2  7  2  0
  2  3  1  0
  3  4  2  0
  4  5  1  0
  4 23  1  0
  5  6  2  0
  6 10  1  0
  6  7  1  0
  7  8  1  0
  8  9  2  0
  9 10  1  0
 10 11  1  0
 11 20  1  0
 11 12  1  0
 11 24  1  6
 12 13  1  0
 13 14  1  0
 13 16  1  0
 13 25  1  1
 14 15  1  0
 14 26  1  0
 14 27  1  0
 15 28  1  0
 15 29  1  0
 15 37  1  0
 16 17  1  0
 16 18  1  0
 16 30  1  1
 17 31  1  0
 18 19  1  0
 18 20  1  0
 18 32  1  1
 19 33  1  0
 20 21  1  0
 20 34  1  6
 21 35  1  0
M  CHG  1  15   1
M  END
>  <i_m_ct_stereo_status>  (212) 
1

>  <s_m_source_file>  (212) 
/var/tmp/pbs.5076255.sched01/tmptpdlle0r/921kky2sk3.sdf

>  <i_m_source_file_index>  (212) 
1

>  <i_lp_mmshare_version>  (212) 
48012

>  <i_f3d_flags>  (212) 
0

>  <s_epik_input>  (212) 
bjFbY0hdW25IXVxjKD1OXFtIXSljKGMxMilubm4yW0NAQEhdM09bQ0BASF0oW0NIMl1bTkgyXSlbQ0BASF0oW09IXSlbQ0BASF0oW09IXSlbQ0BIXTNbT0hd

>  <s_epik_cmdline>  (212) 
J2VwaWtfcHl0aG9uJywgJy1waHQnLCAnMi4wJywgJy1waCcsICc3LjAnLCAnLXRuJywgJzgnLCAnLW1hJywgJzIwMCcsICctaW1hZScsICc8aW5maWxlLm1hZT4nLCAnLW9tYWUnLCAnPG91dGZpbGUubWFlPic=

>  <r_epik_Ionization_Penalty>  (212) 
0.00654452

>  <r_epik_Ionization_Penalty_Charging>  (212) 
0.00645378

>  <r_epik_Ionization_Penalty_Neutral>  (212) 
9.07397e-05

>  <r_epik_State_Penalty>  (212) 
0.00477441

>  <r_epik_Charging_Adjusted_Penalty>  (212) 
0.0112282

>  <i_epik_Tot_Q>  (212) 
1

>  <i_epik_Tot_abs_Q>  (212) 
1

>  <s_epik_Chemistry_Notes>  (212) 
This compound contains an acetal/aminal-like group ( X-CH(R)-Y where X, Y are N, S, or O) that may be acid/base labile, releasing an aldehyde.

>  <s_lp_Force_Field>  (212) 
OPLS3e

>  <r_lp_Energy>  (212) 
21.7785

>  <b_lp_Chiralities_Consistent>  (212) 
1

>  <s_lp_Variant>  (212) 
53:0-1

>  <s_i_glide_gridfile>  (212) 
pfpi4k_grid

>  <i_i_glide_lignum>  (212) 
1

>  <i_i_glide_rotatable_bonds>  (212) 
5

>  <r_i_docking_score>  (212) 
-5.18453

>  <r_i_glide_ligand_efficiency>  (212) 
-0.246882

>  <r_i_glide_ligand_efficiency_sa>  (212) 
-0.681129

>  <r_i_glide_ligand_efficiency_ln>  (212) 
-1.28186

>  <r_i_glide_gscore>  (212) 
-5.18453

>  <r_i_glide_lipo>  (212) 
-0.0165345

>  <r_i_glide_hbond>  (212) 
-0.2

>  <r_i_glide_metal>  (212) 
-0

>  <r_i_glide_rewards>  (212) 
-2.04939

>  <r_i_glide_evdw>  (212) 
-23.2089

>  <r_i_glide_ecoul>  (212) 
-11.4186

>  <r_i_glide_erotb>  (212) 
0.206233

>  <r_i_glide_esite>  (212) 
-0.251598

>  <r_i_glide_emodel>  (212) 
-45.7208

>  <r_i_glide_energy>  (212) 
-34.6275

>  <r_i_glide_einternal>  (212) 
13.2115

>  <r_i_glide_intrahb_reward>  (212) 
-0.5

>  <i_i_glide_confnum>  (212) 
6

>  <i_i_glide_posenum>  (212) 
18

>  <r_i_glide_eff_state_penalty>  (212) 
0

>  <ligand_id>  (212) 
53

>  <original_smiles>  (212) 
N=c1[nH]cnc2c1nnn2C1OC(CN)C(O)C(O)C1O

>  <smiles>  (212) 
[H]OC1([H])C([H])(n2nnc3c(N([H])[H])nc([H])nc32)OC([H])(C([H])([H])[N+]([H])([H])[H])C([H])(O[H])C1([H])O[H]

$$$$
53:0:1
     RDKit          3D

 37 39  0  0  1  0  0  0  0  0999 V2000
    0.1975   -6.2187    3.4619 N   0  0  0  0  0  0  0  0  0  0  0  0
    1.3322   -5.3904    3.4357 C   0  0  0  0  0  0  0  0  0  0  0  0
    1.5142   -4.5163    4.4411 N   0  0  0  0  0  0  0  0  0  0  0  0
    2.5593   -3.6695    4.4090 C   0  0  0  0  0  0  0  0  0  0  0  0
    3.4911   -3.5423    3.4648 N   0  0  0  0  0  0  0  0  0  0  0  0
    3.2902   -4.4518    2.4625 C   0  0  0  0  0  0  0  0  0  0  0  0
    2.2434   -5.3929    2.3642 C   0  0  0  0  0  0  0  0  0  0  0  0
    2.3323   -6.0947    1.1758 N   0  0  0  0  0  0  0  0  0  0  0  0
    3.3973   -5.6929    0.5494 N   0  0  0  0  0  0  0  0  0  0  0  0
    3.9259   -4.6429    1.2466 N   0  0  0  0  0  0  0  0  0  0  0  0
    5.0463   -3.8863    0.6991 C   0  0  2  0  0  0  0  0  0  0  0  0
    4.8968   -2.5218    1.0494 O   0  0  0  0  0  0  0  0  0  0  0  0
    3.7774   -1.7995    0.5053 C   0  0  1  0  0  0  0  0  0  0  0  0
    3.6272   -0.3876    1.1371 C   0  0  0  0  0  0  0  0  0  0  0  0
    2.2041   -0.0308    1.2800 N   0  0  0  0  0  0  0  0  0  0  0  0
    3.8652   -1.8171   -1.0365 C   0  0  1  0  0  0  0  0  0  0  0  0
    4.9244   -0.9672   -1.4502 O   0  0  0  0  0  0  0  0  0  0  0  0
    4.0769   -3.2528   -1.5506 C   0  0  1  0  0  0  0  0  0  0  0  0
    4.1355   -3.2965   -2.9621 O   0  0  0  0  0  0  0  0  0  0  0  0
    5.2588   -3.9691   -0.8392 C   0  0  1  0  0  0  0  0  0  0  0  0
    6.5191   -3.3969   -1.1412 O   0  0  0  0  0  0  0  0  0  0  0  0
    0.1489   -7.0278    2.8534 H   0  0  0  0  0  0  0  0  0  0  0  0
    2.6388   -2.9873    5.2381 H   0  0  0  0  0  0  0  0  0  0  0  0
    5.9394   -4.2510    1.2127 H   0  0  0  0  0  0  0  0  0  0  0  0
    2.8778   -2.3390    0.8001 H   0  0  0  0  0  0  0  0  0  0  0  0
    4.1133   -0.3570    2.1144 H   0  0  0  0  0  0  0  0  0  0  0  0
    4.1375    0.3868    0.5681 H   0  0  0  0  0  0  0  0  0  0  0  0
    2.1157    0.9145    1.6192 H   0  0  0  0  0  0  0  0  0  0  0  0
    1.7761   -0.6608    1.9392 H   0  0  0  0  0  0  0  0  0  0  0  0
    2.9158   -1.4452   -1.4307 H   0  0  0  0  0  0  0  0  0  0  0  0
    4.7223   -0.0833   -1.1777 H   0  0  0  0  0  0  0  0  0  0  0  0
    3.1638   -3.7952   -1.3190 H   0  0  0  0  0  0  0  0  0  0  0  0
    4.0894   -4.2065   -3.2162 H   0  0  0  0  0  0  0  0  0  0  0  0
    5.3239   -5.0148   -1.1390 H   0  0  0  0  0  0  0  0  0  0  0  0
    6.4015   -2.4620   -1.0303 H   0  0  0  0  0  0  0  0  0  0  0  0
   -0.2842   -6.3437    4.3410 H   0  0  0  0  0  0  0  0  0  0  0  0
    1.7064   -0.1472    0.4055 H   0  0  0  0  0  0  0  0  0  0  0  0
  1  2  1  0
  1 22  1  0
  1 36  1  0
  2  7  2  0
  2  3  1  0
  3  4  2  0
  4  5  1  0
  4 23  1  0
  5  6  2  0
  6 10  1  0
  6  7  1  0
  7  8  1  0
  8  9  2  0
  9 10  1  0
 10 11  1  0
 11 20  1  0
 11 12  1  0
 11 24  1  1
 12 13  1  0
 13 14  1  0
 13 16  1  0
 13 25  1  6
 14 15  1  0
 14 26  1  0
 14 27  1  0
 15 28  1  0
 15 29  1  0
 15 37  1  0
 16 17  1  0
 16 18  1  0
 16 30  1  6
 17 31  1  0
 18 19  1  0
 18 20  1  0
 18 32  1  1
 19 33  1  0
 20 21  1  0
 20 34  1  6
 21 35  1  0
M  CHG  1  15   1
M  END
>  <i_m_ct_stereo_status>  (213) 
1

>  <s_m_source_file>  (213) 
/var/tmp/pbs.5076255.sched01/tmptpdlle0r/921kky2sk3.sdf

>  <i_m_source_file_index>  (213) 
1

>  <i_lp_mmshare_version>  (213) 
48012

>  <i_f3d_flags>  (213) 
0

>  <s_epik_input>  (213) 
bjFbY0hdW25IXVxjKD1OXFtIXSljKGMxMilubm4yW0NAQEhdM09bQ0BASF0oW0NIMl1bTkgyXSlbQ0BASF0oW09IXSlbQ0BASF0oW09IXSlbQ0BIXTNbT0hd

>  <s_epik_cmdline>  (213) 
J2VwaWtfcHl0aG9uJywgJy1waHQnLCAnMi4wJywgJy1waCcsICc3LjAnLCAnLXRuJywgJzgnLCAnLW1hJywgJzIwMCcsICctaW1hZScsICc8aW5maWxlLm1hZT4nLCAnLW9tYWUnLCAnPG91dGZpbGUubWFlPic=

>  <r_epik_Ionization_Penalty>  (213) 
0.00654452

>  <r_epik_Ionization_Penalty_Charging>  (213) 
0.00645378

>  <r_epik_Ionization_Penalty_Neutral>  (213) 
9.07397e-05

>  <r_epik_State_Penalty>  (213) 
0.00477441

>  <r_epik_Charging_Adjusted_Penalty>  (213) 
0.0112282

>  <i_epik_Tot_Q>  (213) 
1

>  <i_epik_Tot_abs_Q>  (213) 
1

>  <s_epik_Chemistry_Notes>  (213) 
This compound contains an acetal/aminal-like group ( X-CH(R)-Y where X, Y are N, S, or O) that may be acid/base labile, releasing an aldehyde.

>  <s_lp_Force_Field>  (213) 
OPLS3e

>  <r_lp_Energy>  (213) 
21.7785

>  <b_lp_Chiralities_Consistent>  (213) 
1

>  <s_lp_Variant>  (213) 
53:0-1

>  <s_i_glide_gridfile>  (213) 
pfpi4k_grid

>  <i_i_glide_lignum>  (213) 
1

>  <i_i_glide_rotatable_bonds>  (213) 
5

>  <r_i_docking_score>  (213) 
-4.92564

>  <r_i_glide_ligand_efficiency>  (213) 
-0.234554

>  <r_i_glide_ligand_efficiency_sa>  (213) 
-0.647118

>  <r_i_glide_ligand_efficiency_ln>  (213) 
-1.21786

>  <r_i_glide_gscore>  (213) 
-4.92564

>  <r_i_glide_lipo>  (213) 
-0.0422029

>  <r_i_glide_hbond>  (213) 
-0.2

>  <r_i_glide_metal>  (213) 
-0

>  <r_i_glide_rewards>  (213) 
-1.95082

>  <r_i_glide_evdw>  (213) 
-19.3935

>  <r_i_glide_ecoul>  (213) 
-12.0318

>  <r_i_glide_erotb>  (213) 
0.206233

>  <r_i_glide_esite>  (213) 
-0.164408

>  <r_i_glide_emodel>  (213) 
-48.1058

>  <r_i_glide_energy>  (213) 
-31.4253

>  <r_i_glide_einternal>  (213) 
2.74702

>  <r_i_glide_intrahb_reward>  (213) 
-0.5

>  <i_i_glide_confnum>  (213) 
5

>  <i_i_glide_posenum>  (213) 
22

>  <r_i_glide_eff_state_penalty>  (213) 
0

>  <ligand_id>  (213) 
53

>  <original_smiles>  (213) 
N=c1[nH]cnc2c1nnn2C1OC(CN)C(O)C(O)C1O

>  <smiles>  (213) 
[H]OC1([H])C([H])(n2nnc3c(N([H])[H])nc([H])nc32)OC([H])(C([H])([H])[N+]([H])([H])[H])C([H])(O[H])C1([H])O[H]

$$$$
53:0:2
     RDKit          3D

 37 39  0  0  1  0  0  0  0  0999 V2000
    4.3800   -8.9463    1.5184 N   0  0  0  0  0  0  0  0  0  0  0  0
    3.9259   -7.6286    1.5304 C   0  0  0  0  0  0  0  0  0  0  0  0
    2.6038   -7.3969    1.6722 N   0  0  0  0  0  0  0  0  0  0  0  0
    2.1483   -6.1384    1.6679 C   0  0  0  0  0  0  0  0  0  0  0  0
    2.8352   -5.0024    1.5343 N   0  0  0  0  0  0  0  0  0  0  0  0
    4.1770   -5.2499    1.4134 C   0  0  0  0  0  0  0  0  0  0  0  0
    4.7916   -6.5140    1.3944 C   0  0  0  0  0  0  0  0  0  0  0  0
    6.1569   -6.3729    1.2462 N   0  0  0  0  0  0  0  0  0  0  0  0
    6.4277   -5.1074    1.2076 N   0  0  0  0  0  0  0  0  0  0  0  0
    5.2538   -4.4063    1.2142 N   0  0  0  0  0  0  0  0  0  0  0  0
    5.2358   -2.9497    1.0449 C   0  0  2  0  0  0  0  0  0  0  0  0
    4.0855   -2.6116    0.3011 O   0  0  0  0  0  0  0  0  0  0  0  0
    4.0227   -3.0640   -1.0636 C   0  0  1  0  0  0  0  0  0  0  0  0
    2.6589   -2.7461   -1.7003 C   0  0  0  0  0  0  0  0  0  0  0  0
    2.5151   -3.4436   -2.9882 N   0  0  0  0  0  0  0  0  0  0  0  0
    5.2224   -2.5170   -1.8763 C   0  0  1  0  0  0  0  0  0  0  0  0
    5.0436   -1.1440   -2.2054 O   0  0  0  0  0  0  0  0  0  0  0  0
    6.5345   -2.7992   -1.1207 C   0  0  1  0  0  0  0  0  0  0  0  0
    7.6798   -2.3176   -1.7941 O   0  0  0  0  0  0  0  0  0  0  0  0
    6.4957   -2.3389    0.3562 C   0  0  1  0  0  0  0  0  0  0  0  0
    6.5209   -0.9249    0.4714 O   0  0  0  0  0  0  0  0  0  0  0  0
    5.3660   -9.1808    1.4582 H   0  0  0  0  0  0  0  0  0  0  0  0
    1.0724   -6.0378    1.7632 H   0  0  0  0  0  0  0  0  0  0  0  0
    5.1167   -2.5503    2.0510 H   0  0  0  0  0  0  0  0  0  0  0  0
    4.0614   -4.1536   -1.0632 H   0  0  0  0  0  0  0  0  0  0  0  0
    1.8329   -3.0573   -1.0502 H   0  0  0  0  0  0  0  0  0  0  0  0
    2.5760   -1.6740   -1.8590 H   0  0  0  0  0  0  0  0  0  0  0  0
    1.6218   -3.2429   -3.4215 H   0  0  0  0  0  0  0  0  0  0  0  0
    2.5805   -4.4424   -2.8227 H   0  0  0  0  0  0  0  0  0  0  0  0
    5.2476   -3.0684   -2.8205 H   0  0  0  0  0  0  0  0  0  0  0  0
    4.1214   -0.9336   -2.2283 H   0  0  0  0  0  0  0  0  0  0  0  0
    6.6519   -3.8774   -1.1243 H   0  0  0  0  0  0  0  0  0  0  0  0
    7.7902   -2.7724   -2.6205 H   0  0  0  0  0  0  0  0  0  0  0  0
    7.3894   -2.6859    0.8817 H   0  0  0  0  0  0  0  0  0  0  0  0
    6.5981   -0.6512    1.3746 H   0  0  0  0  0  0  0  0  0  0  0  0
    3.7503   -9.7249    1.6601 H   0  0  0  0  0  0  0  0  0  0  0  0
    3.2654   -3.1736   -3.6075 H   0  0  0  0  0  0  0  0  0  0  0  0
  1  2  1  0
  1 22  1  0
  1 36  1  0
  2  7  2  0
  2  3  1  0
  3  4  2  0
  4  5  1  0
  4 23  1  0
  5  6  2  0
  6 10  1  0
  6  7  1  0
  7  8  1  0
  8  9  2  0
  9 10  1  0
 10 11  1  0
 11 20  1  0
 11 12  1  0
 11 24  1  1
 12 13  1  0
 13 14  1  0
 13 16  1  0
 13 25  1  1
 14 15  1  0
 14 26  1  0
 14 27  1  0
 15 28  1  0
 15 29  1  0
 15 37  1  0
 16 17  1  0
 16 18  1  0
 16 30  1  6
 17 31  1  0
 18 19  1  0
 18 20  1  0
 18 32  1  1
 19 33  1  0
 20 21  1  0
 20 34  1  1
 21 35  1  0
M  CHG  1  15   1
M  END
>  <i_m_ct_stereo_status>  (214) 
1

>  <s_m_source_file>  (214) 
/var/tmp/pbs.5076255.sched01/tmptpdlle0r/921kky2sk3.sdf

>  <i_m_source_file_index>  (214) 
1

>  <i_lp_mmshare_version>  (214) 
48012

>  <i_f3d_flags>  (214) 
0

>  <s_epik_input>  (214) 
bjFbY0hdW25IXVxjKD1OXFtIXSljKGMxMilubm4yW0NAQEhdM09bQ0BASF0oW0NIMl1bTkgyXSlbQ0BASF0oW09IXSlbQ0BASF0oW09IXSlbQ0BIXTNbT0hd

>  <s_epik_cmdline>  (214) 
J2VwaWtfcHl0aG9uJywgJy1waHQnLCAnMi4wJywgJy1waCcsICc3LjAnLCAnLXRuJywgJzgnLCAnLW1hJywgJzIwMCcsICctaW1hZScsICc8aW5maWxlLm1hZT4nLCAnLW9tYWUnLCAnPG91dGZpbGUubWFlPic=

>  <r_epik_Ionization_Penalty>  (214) 
0.00654452

>  <r_epik_Ionization_Penalty_Charging>  (214) 
0.00645378

>  <r_epik_Ionization_Penalty_Neutral>  (214) 
9.07397e-05

>  <r_epik_State_Penalty>  (214) 
0.00477441

>  <r_epik_Charging_Adjusted_Penalty>  (214) 
0.0112282

>  <i_epik_Tot_Q>  (214) 
1

>  <i_epik_Tot_abs_Q>  (214) 
1

>  <s_epik_Chemistry_Notes>  (214) 
This compound contains an acetal/aminal-like group ( X-CH(R)-Y where X, Y are N, S, or O) that may be acid/base labile, releasing an aldehyde.

>  <s_lp_Force_Field>  (214) 
OPLS3e

>  <r_lp_Energy>  (214) 
21.7785

>  <b_lp_Chiralities_Consistent>  (214) 
1

>  <s_lp_Variant>  (214) 
53:0-1

>  <s_i_glide_gridfile>  (214) 
pfpi4k_grid

>  <i_i_glide_lignum>  (214) 
1

>  <i_i_glide_rotatable_bonds>  (214) 
5

>  <r_i_docking_score>  (214) 
-4.74588

>  <r_i_glide_ligand_efficiency>  (214) 
-0.225994

>  <r_i_glide_ligand_efficiency_sa>  (214) 
-0.623501

>  <r_i_glide_ligand_efficiency_ln>  (214) 
-1.17341

>  <r_i_glide_gscore>  (214) 
-4.74588

>  <r_i_glide_lipo>  (214) 
-0.198965

>  <r_i_glide_hbond>  (214) 
0

>  <r_i_glide_metal>  (214) 
-0

>  <r_i_glide_rewards>  (214) 
-1.52687

>  <r_i_glide_evdw>  (214) 
-19.4464

>  <r_i_glide_ecoul>  (214) 
-14.597

>  <r_i_glide_erotb>  (214) 
0.206233

>  <r_i_glide_esite>  (214) 
-0.0644102

>  <r_i_glide_emodel>  (214) 
-45.503

>  <r_i_glide_energy>  (214) 
-34.0435

>  <r_i_glide_einternal>  (214) 
2.02767

>  <r_i_glide_intrahb_reward>  (214) 
-0

>  <i_i_glide_confnum>  (214) 
2

>  <i_i_glide_posenum>  (214) 
15

>  <r_i_glide_eff_state_penalty>  (214) 
0

>  <ligand_id>  (214) 
53

>  <original_smiles>  (214) 
N=c1[nH]cnc2c1nnn2C1OC(CN)C(O)C(O)C1O

>  <smiles>  (214) 
[H]OC1([H])C([H])(n2nnc3c(N([H])[H])nc([H])nc32)OC([H])(C([H])([H])[N+]([H])([H])[H])C([H])(O[H])C1([H])O[H]

$$$$
54:0:0
     RDKit          3D

 36 39  0  0  1  0  0  0  0  0999 V2000
    3.8734   -4.9000    1.9129 O   0  0  0  0  0  0  0  0  0  0  0  0
    2.8825   -5.1241    1.2102 C   0  0  0  0  0  0  0  0  0  0  0  0
    2.5997   -4.5608    0.0284 N   0  0  0  0  0  0  0  0  0  0  0  0
    3.3902   -3.6217   -0.7503 C   0  0  1  0  0  0  0  0  0  0  0  0
    3.5859   -2.2924    0.0194 C   0  0  0  0  0  0  0  0  0  0  0  0
    4.4038   -1.3276   -0.8527 C   0  0  2  0  0  0  0  0  0  0  0  0
    3.6468   -1.0568   -2.1677 C   0  0  0  0  0  0  0  0  0  0  0  0
    3.4523   -2.3525   -2.9512 C   0  0  1  0  0  0  0  0  0  0  0  0
    4.8242   -2.9736   -3.2721 C   0  0  0  0  0  0  0  0  0  0  0  0
    5.5808   -3.2591   -1.9610 C   0  0  1  0  0  0  0  0  0  0  0  0
    5.7740   -1.9623   -1.1577 C   0  0  0  0  0  0  0  0  0  0  0  0
    4.7717   -4.2403   -1.1004 C   0  0  0  0  0  0  0  0  0  0  0  0
    2.6206   -3.3092   -2.0757 C   0  0  0  0  0  0  0  0  0  0  0  0
    1.9111   -6.0680    1.6581 N   0  0  0  0  0  0  0  0  0  0  0  0
    2.0452   -6.7512    2.7923 C   0  0  0  0  0  0  0  0  0  0  0  0
    1.0358   -7.5828    3.0117 N   0  0  0  0  0  0  0  0  0  0  0  0
    0.2974   -7.3641    1.8791 C   0  0  0  0  0  0  0  0  0  0  0  0
    0.7560   -6.4316    1.0495 N   0  0  0  0  0  0  0  0  0  0  0  0
    1.7719   -4.9065   -0.4258 H   0  0  0  0  0  0  0  0  0  0  0  0
    2.6177   -1.8472    0.2626 H   0  0  0  0  0  0  0  0  0  0  0  0
    4.1112   -2.4486    0.9600 H   0  0  0  0  0  0  0  0  0  0  0  0
    4.5429   -0.3935   -0.3109 H   0  0  0  0  0  0  0  0  0  0  0  0
    2.6627   -0.6496   -1.9458 H   0  0  0  0  0  0  0  0  0  0  0  0
    4.1753   -0.3068   -2.7627 H   0  0  0  0  0  0  0  0  0  0  0  0
    2.9166   -2.1409   -3.8785 H   0  0  0  0  0  0  0  0  0  0  0  0
    4.7056   -3.8869   -3.8583 H   0  0  0  0  0  0  0  0  0  0  0  0
    5.3939   -2.2739   -3.8753 H   0  0  0  0  0  0  0  0  0  0  0  0
    6.5541   -3.6876   -2.1978 H   0  0  0  0  0  0  0  0  0  0  0  0
    6.3650   -1.2759   -1.7462 H   0  0  0  0  0  0  0  0  0  0  0  0
    6.3104   -2.1670   -0.2297 H   0  0  0  0  0  0  0  0  0  0  0  0
    5.3495   -4.4846   -0.2084 H   0  0  0  0  0  0  0  0  0  0  0  0
    4.6422   -5.1730   -1.6406 H   0  0  0  0  0  0  0  0  0  0  0  0
    2.3915   -4.2007   -2.6538 H   0  0  0  0  0  0  0  0  0  0  0  0
    1.6388   -2.8725   -1.8841 H   0  0  0  0  0  0  0  0  0  0  0  0
    2.8859   -6.6353    3.4600 H   0  0  0  0  0  0  0  0  0  0  0  0
   -0.6307   -7.8866    1.6818 H   0  0  0  0  0  0  0  0  0  0  0  0
  1  2  2  0
  2  3  1  0
  2 14  1  0
  4  3  1  1
  3 19  1  0
  4 12  1  0
  4 13  1  0
  4  5  1  0
  5  6  1  0
  5 20  1  0
  5 21  1  0
  6 11  1  0
  6  7  1  0
  6 22  1  1
  7  8  1  0
  7 23  1  0
  7 24  1  0
  8  9  1  0
  8 13  1  0
  8 25  1  6
  9 10  1  0
  9 26  1  0
  9 27  1  0
 10 11  1  0
 10 12  1  0
 10 28  1  6
 11 29  1  0
 11 30  1  0
 12 31  1  0
 12 32  1  0
 13 33  1  0
 13 34  1  0
 14 18  1  0
 14 15  1  0
 15 16  2  0
 15 35  1  0
 16 17  1  0
 17 18  2  0
 17 36  1  0
M  END
>  <i_m_ct_stereo_status>  (215) 
1

>  <s_m_source_file>  (215) 
/var/tmp/pbs.5076255.sched01/tmptpdlle0r/921kky2sk3.sdf

>  <i_m_source_file_index>  (215) 
2

>  <i_lp_mmshare_version>  (215) 
48012

>  <i_f3d_flags>  (215) 
0

>  <s_epik_input>  (215) 
bjFbY0hdbltjSF1uMUMoPU8pW05IXUMyM1tDSDJdW0NASF00W0NIMl1bQ0BASF0oW0NIMl0zKVtDSDJdW0NASF0oW0NIMl00KVtDSDJdMg==

>  <s_epik_cmdline>  (215) 
J2VwaWtfcHl0aG9uJywgJy1waHQnLCAnMi4wJywgJy1waCcsICc3LjAnLCAnLXRuJywgJzgnLCAnLW1hJywgJzIwMCcsICctaW1hZScsICc8aW5maWxlLm1hZT4nLCAnLW9tYWUnLCAnPG91dGZpbGUubWFlPic=

>  <r_lp_tautomer_probability>  (215) 
1

>  <r_epik_Ionization_Penalty>  (215) 
2.57967e-06

>  <r_epik_Ionization_Penalty_Charging>  (215) 
0

>  <r_epik_Ionization_Penalty_Neutral>  (215) 
2.57967e-06

>  <r_epik_State_Penalty>  (215) 
-0

>  <r_epik_Charging_Adjusted_Penalty>  (215) 
0

>  <i_epik_Tot_Q>  (215) 
0

>  <i_epik_Tot_abs_Q>  (215) 
0

>  <s_lp_Force_Field>  (215) 
OPLS3e

>  <r_lp_Energy>  (215) 
7.0219

>  <b_lp_Chiralities_Consistent>  (215) 
1

>  <s_lp_Variant>  (215) 
54:0-1

>  <s_i_glide_gridfile>  (215) 
pfpi4k_grid

>  <i_i_glide_lignum>  (215) 
2

>  <i_i_glide_rotatable_bonds>  (215) 
3

>  <r_i_docking_score>  (215) 
-3.17177

>  <r_i_glide_ligand_efficiency>  (215) 
-0.176209

>  <r_i_glide_ligand_efficiency_sa>  (215) 
-0.461799

>  <r_i_glide_ligand_efficiency_ln>  (215) 
-0.815287

>  <r_i_glide_gscore>  (215) 
-3.17177

>  <r_i_glide_lipo>  (215) 
-0.482501

>  <r_i_glide_hbond>  (215) 
-0.16

>  <r_i_glide_metal>  (215) 
-0

>  <r_i_glide_rewards>  (215) 
-1.72972

>  <r_i_glide_evdw>  (215) 
-21.7999

>  <r_i_glide_ecoul>  (215) 
-2.61149

>  <r_i_glide_erotb>  (215) 
0.861679

>  <r_i_glide_esite>  (215) 
-0.179512

>  <r_i_glide_emodel>  (215) 
-29.9455

>  <r_i_glide_energy>  (215) 
-24.4114

>  <r_i_glide_einternal>  (215) 
0.145732

>  <r_i_glide_intrahb_reward>  (215) 
-0

>  <i_i_glide_confnum>  (215) 
5

>  <i_i_glide_posenum>  (215) 
33

>  <r_i_glide_eff_state_penalty>  (215) 
0

>  <ligand_id>  (215) 
54

>  <original_smiles>  (215) 
O=C(NC12CC3CC(CC(C3)C1)C2)n1cncn1

>  <smiles>  (215) 
[H]c1nc([H])n(C(=O)N([H])C23C([H])([H])C4([H])C([H])([H])C([H])(C([H])([H])C([H])(C4([H])[H])C2([H])[H])C3([H])[H])n1

$$$$
54:0:1
     RDKit          3D

 36 39  0  0  1  0  0  0  0  0999 V2000
    5.1671   -0.7756    1.8020 O   0  0  0  0  0  0  0  0  0  0  0  0
    4.2954   -0.8556    0.9329 C   0  0  0  0  0  0  0  0  0  0  0  0
    2.9998   -0.5321    1.1088 N   0  0  0  0  0  0  0  0  0  0  0  0
    2.3500   -0.0801    2.3380 C   0  0  1  0  0  0  0  0  0  0  0  0
    3.0072    1.2069    2.8834 C   0  0  0  0  0  0  0  0  0  0  0  0
    2.2670    1.6841    4.1358 C   0  0  2  0  0  0  0  0  0  0  0  0
    2.3266    0.5714    5.2071 C   0  0  0  0  0  0  0  0  0  0  0  0
    1.6277   -0.7002    4.6755 C   0  0  1  0  0  0  0  0  0  0  0  0
    0.1573   -0.3759    4.3308 C   0  0  0  0  0  0  0  0  0  0  0  0
    0.1201    0.7252    3.2497 C   0  0  1  0  0  0  0  0  0  0  0  0
    0.8023    2.0055    3.7731 C   0  0  0  0  0  0  0  0  0  0  0  0
    0.8754    0.2345    1.9981 C   0  0  0  0  0  0  0  0  0  0  0  0
    2.3673   -1.1951    3.4155 C   0  0  0  0  0  0  0  0  0  0  0  0
    4.6946   -1.3727   -0.3521 N   0  0  0  0  0  0  0  0  0  0  0  0
    3.8632   -1.4789   -1.3926 C   0  0  0  0  0  0  0  0  0  0  0  0
    4.4301   -2.0238   -2.4623 N   0  0  0  0  0  0  0  0  0  0  0  0
    5.6794   -2.2585   -1.9624 C   0  0  0  0  0  0  0  0  0  0  0  0
    5.9103   -1.8483   -0.7204 N   0  0  0  0  0  0  0  0  0  0  0  0
    2.3533   -0.6582    0.3336 H   0  0  0  0  0  0  0  0  0  0  0  0
    4.0495    1.0395    3.1668 H   0  0  0  0  0  0  0  0  0  0  0  0
    3.0033    1.9849    2.1219 H   0  0  0  0  0  0  0  0  0  0  0  0
    2.7542    2.5823    4.5119 H   0  0  0  0  0  0  0  0  0  0  0  0
    3.3639    0.3439    5.4438 H   0  0  0  0  0  0  0  0  0  0  0  0
    1.8562    0.9120    6.1301 H   0  0  0  0  0  0  0  0  0  0  0  0
    1.6567   -1.4787    5.4384 H   0  0  0  0  0  0  0  0  0  0  0  0
   -0.3478   -1.2717    3.9702 H   0  0  0  0  0  0  0  0  0  0  0  0
   -0.3791   -0.0449    5.2200 H   0  0  0  0  0  0  0  0  0  0  0  0
   -0.9163    0.9486    2.9888 H   0  0  0  0  0  0  0  0  0  0  0  0
    0.2663    2.3928    4.6403 H   0  0  0  0  0  0  0  0  0  0  0  0
    0.7739    2.7770    3.0025 H   0  0  0  0  0  0  0  0  0  0  0  0
    0.8073    0.9868    1.2095 H   0  0  0  0  0  0  0  0  0  0  0  0
    0.3773   -0.6544    1.6151 H   0  0  0  0  0  0  0  0  0  0  0  0
    1.8909   -2.1026    3.0397 H   0  0  0  0  0  0  0  0  0  0  0  0
    3.3840   -1.4730    3.6865 H   0  0  0  0  0  0  0  0  0  0  0  0
    2.8322   -1.1607   -1.3703 H   0  0  0  0  0  0  0  0  0  0  0  0
    6.4567   -2.7097   -2.5666 H   0  0  0  0  0  0  0  0  0  0  0  0
  1  2  2  0
  2  3  1  0
  2 14  1  0
  4  3  1  6
  3 19  1  0
  4 12  1  0
  4 13  1  0
  4  5  1  0
  5  6  1  0
  5 20  1  0
  5 21  1  0
  6 11  1  0
  6  7  1  0
  6 22  1  1
  7  8  1  0
  7 23  1  0
  7 24  1  0
  8  9  1  0
  8 13  1  0
  8 25  1  1
  9 10  1  0
  9 26  1  0
  9 27  1  0
 10 11  1  0
 10 12  1  0
 10 28  1  6
 11 29  1  0
 11 30  1  0
 12 31  1  0
 12 32  1  0
 13 33  1  0
 13 34  1  0
 14 18  1  0
 14 15  1  0
 15 16  2  0
 15 35  1  0
 16 17  1  0
 17 18  2  0
 17 36  1  0
M  END
>  <i_m_ct_stereo_status>  (216) 
1

>  <s_m_source_file>  (216) 
/var/tmp/pbs.5076255.sched01/tmptpdlle0r/921kky2sk3.sdf

>  <i_m_source_file_index>  (216) 
2

>  <i_lp_mmshare_version>  (216) 
48012

>  <i_f3d_flags>  (216) 
0

>  <s_epik_input>  (216) 
bjFbY0hdbltjSF1uMUMoPU8pW05IXUMyM1tDSDJdW0NASF00W0NIMl1bQ0BASF0oW0NIMl0zKVtDSDJdW0NASF0oW0NIMl00KVtDSDJdMg==

>  <s_epik_cmdline>  (216) 
J2VwaWtfcHl0aG9uJywgJy1waHQnLCAnMi4wJywgJy1waCcsICc3LjAnLCAnLXRuJywgJzgnLCAnLW1hJywgJzIwMCcsICctaW1hZScsICc8aW5maWxlLm1hZT4nLCAnLW9tYWUnLCAnPG91dGZpbGUubWFlPic=

>  <r_lp_tautomer_probability>  (216) 
1

>  <r_epik_Ionization_Penalty>  (216) 
2.57967e-06

>  <r_epik_Ionization_Penalty_Charging>  (216) 
0

>  <r_epik_Ionization_Penalty_Neutral>  (216) 
2.57967e-06

>  <r_epik_State_Penalty>  (216) 
-0

>  <r_epik_Charging_Adjusted_Penalty>  (216) 
0

>  <i_epik_Tot_Q>  (216) 
0

>  <i_epik_Tot_abs_Q>  (216) 
0

>  <s_lp_Force_Field>  (216) 
OPLS3e

>  <r_lp_Energy>  (216) 
7.0219

>  <b_lp_Chiralities_Consistent>  (216) 
1

>  <s_lp_Variant>  (216) 
54:0-1

>  <s_i_glide_gridfile>  (216) 
pfpi4k_grid

>  <i_i_glide_lignum>  (216) 
2

>  <i_i_glide_rotatable_bonds>  (216) 
3

>  <r_i_docking_score>  (216) 
-3.11099

>  <r_i_glide_ligand_efficiency>  (216) 
-0.172833

>  <r_i_glide_ligand_efficiency_sa>  (216) 
-0.45295

>  <r_i_glide_ligand_efficiency_ln>  (216) 
-0.799664

>  <r_i_glide_gscore>  (216) 
-3.11099

>  <r_i_glide_lipo>  (216) 
0

>  <r_i_glide_hbond>  (216) 
-0.163571

>  <r_i_glide_metal>  (216) 
-0

>  <r_i_glide_rewards>  (216) 
-1.80405

>  <r_i_glide_evdw>  (216) 
-21.8583

>  <r_i_glide_ecoul>  (216) 
-4.92565

>  <r_i_glide_erotb>  (216) 
0.861679

>  <r_i_glide_esite>  (216) 
-0.173284

>  <r_i_glide_emodel>  (216) 
-31.9189

>  <r_i_glide_energy>  (216) 
-26.784

>  <r_i_glide_einternal>  (216) 
0.862257

>  <r_i_glide_intrahb_reward>  (216) 
-0

>  <i_i_glide_confnum>  (216) 
2

>  <i_i_glide_posenum>  (216) 
5

>  <r_i_glide_eff_state_penalty>  (216) 
0

>  <ligand_id>  (216) 
54

>  <original_smiles>  (216) 
O=C(NC12CC3CC(CC(C3)C1)C2)n1cncn1

>  <smiles>  (216) 
[H]c1nc([H])n(C(=O)N([H])C23C([H])([H])C4([H])C([H])([H])C([H])(C([H])([H])C([H])(C4([H])[H])C2([H])[H])C3([H])[H])n1

$$$$
54:0:2
     RDKit          3D

 36 39  0  0  1  0  0  0  0  0999 V2000
    6.5104   -6.1392    1.0559 O   0  0  0  0  0  0  0  0  0  0  0  0
    5.2829   -6.1997    0.9759 C   0  0  0  0  0  0  0  0  0  0  0  0
    4.4763   -5.1744    0.6410 N   0  0  0  0  0  0  0  0  0  0  0  0
    4.8536   -3.7954    0.3691 C   0  0  1  0  0  0  0  0  0  0  0  0
    5.9112   -3.7153   -0.7593 C   0  0  0  0  0  0  0  0  0  0  0  0
    6.2598   -2.2495   -1.0445 C   0  0  2  0  0  0  0  0  0  0  0  0
    6.8126   -1.6079    0.2513 C   0  0  0  0  0  0  0  0  0  0  0  0
    5.7374   -1.6488    1.3546 C   0  0  1  0  0  0  0  0  0  0  0  0
    4.4755   -0.8929    0.8799 C   0  0  0  0  0  0  0  0  0  0  0  0
    3.9285   -1.5679   -0.3974 C   0  0  1  0  0  0  0  0  0  0  0  0
    4.9913   -1.5072   -1.5162 C   0  0  0  0  0  0  0  0  0  0  0  0
    3.5818   -3.0438   -0.0940 C   0  0  0  0  0  0  0  0  0  0  0  0
    5.3841   -3.1167    1.6560 C   0  0  0  0  0  0  0  0  0  0  0  0
    4.6572   -7.4608    1.2697 N   0  0  0  0  0  0  0  0  0  0  0  0
    3.3337   -7.6106    1.3654 C   0  0  0  0  0  0  0  0  0  0  0  0
    2.9685   -8.8468    1.6782 N   0  0  0  0  0  0  0  0  0  0  0  0
    4.1990   -9.4395    1.7510 C   0  0  0  0  0  0  0  0  0  0  0  0
    5.2502   -8.6507    1.5266 N   0  0  0  0  0  0  0  0  0  0  0  0
    3.4867   -5.3596    0.5705 H   0  0  0  0  0  0  0  0  0  0  0  0
    6.8390   -4.2131   -0.4881 H   0  0  0  0  0  0  0  0  0  0  0  0
    5.5428   -4.1992   -1.6644 H   0  0  0  0  0  0  0  0  0  0  0  0
    7.0159   -2.2262   -1.8270 H   0  0  0  0  0  0  0  0  0  0  0  0
    7.7011   -2.1427    0.5821 H   0  0  0  0  0  0  0  0  0  0  0  0
    7.1109   -0.5767    0.0849 H   0  0  0  0  0  0  0  0  0  0  0  0
    6.1252   -1.1755    2.2582 H   0  0  0  0  0  0  0  0  0  0  0  0
    3.7157   -0.9026    1.6611 H   0  0  0  0  0  0  0  0  0  0  0  0
    4.7085    0.1542    0.6822 H   0  0  0  0  0  0  0  0  0  0  0  0
    3.0262   -1.0470   -0.7274 H   0  0  0  0  0  0  0  0  0  0  0  0
    5.2163   -0.4714   -1.7668 H   0  0  0  0  0  0  0  0  0  0  0  0
    4.6022   -1.9774   -2.4183 H   0  0  0  0  0  0  0  0  0  0  0  0
    3.1564   -3.5091   -0.9851 H   0  0  0  0  0  0  0  0  0  0  0  0
    2.8033   -3.0808    0.6696 H   0  0  0  0  0  0  0  0  0  0  0  0
    4.6395   -3.1625    2.4517 H   0  0  0  0  0  0  0  0  0  0  0  0
    6.2697   -3.6261    2.0349 H   0  0  0  0  0  0  0  0  0  0  0  0
    2.6245   -6.8113    1.2219 H   0  0  0  0  0  0  0  0  0  0  0  0
    4.3193  -10.4869    1.9964 H   0  0  0  0  0  0  0  0  0  0  0  0
  1  2  2  0
  2  3  1  0
  2 14  1  0
  4  3  1  1
  3 19  1  0
  4 12  1  0
  4 13  1  0
  4  5  1  0
  5  6  1  0
  5 20  1  0
  5 21  1  0
  6 11  1  0
  6  7  1  0
  6 22  1  6
  7  8  1  0
  7 23  1  0
  7 24  1  0
  8  9  1  0
  8 13  1  0
  8 25  1  1
  9 10  1  0
  9 26  1  0
  9 27  1  0
 10 11  1  0
 10 12  1  0
 10 28  1  6
 11 29  1  0
 11 30  1  0
 12 31  1  0
 12 32  1  0
 13 33  1  0
 13 34  1  0
 14 18  1  0
 14 15  1  0
 15 16  2  0
 15 35  1  0
 16 17  1  0
 17 18  2  0
 17 36  1  0
M  END
>  <i_m_ct_stereo_status>  (217) 
1

>  <s_m_source_file>  (217) 
/var/tmp/pbs.5076255.sched01/tmptpdlle0r/921kky2sk3.sdf

>  <i_m_source_file_index>  (217) 
2

>  <i_lp_mmshare_version>  (217) 
48012

>  <i_f3d_flags>  (217) 
0

>  <s_epik_input>  (217) 
bjFbY0hdbltjSF1uMUMoPU8pW05IXUMyM1tDSDJdW0NASF00W0NIMl1bQ0BASF0oW0NIMl0zKVtDSDJdW0NASF0oW0NIMl00KVtDSDJdMg==

>  <s_epik_cmdline>  (217) 
J2VwaWtfcHl0aG9uJywgJy1waHQnLCAnMi4wJywgJy1waCcsICc3LjAnLCAnLXRuJywgJzgnLCAnLW1hJywgJzIwMCcsICctaW1hZScsICc8aW5maWxlLm1hZT4nLCAnLW9tYWUnLCAnPG91dGZpbGUubWFlPic=

>  <r_lp_tautomer_probability>  (217) 
1

>  <r_epik_Ionization_Penalty>  (217) 
2.57967e-06

>  <r_epik_Ionization_Penalty_Charging>  (217) 
0

>  <r_epik_Ionization_Penalty_Neutral>  (217) 
2.57967e-06

>  <r_epik_State_Penalty>  (217) 
-0

>  <r_epik_Charging_Adjusted_Penalty>  (217) 
0

>  <i_epik_Tot_Q>  (217) 
0

>  <i_epik_Tot_abs_Q>  (217) 
0

>  <s_lp_Force_Field>  (217) 
OPLS3e

>  <r_lp_Energy>  (217) 
7.0219

>  <b_lp_Chiralities_Consistent>  (217) 
1

>  <s_lp_Variant>  (217) 
54:0-1

>  <s_i_glide_gridfile>  (217) 
pfpi4k_grid

>  <i_i_glide_lignum>  (217) 
2

>  <i_i_glide_rotatable_bonds>  (217) 
3

>  <r_i_docking_score>  (217) 
-3.03818

>  <r_i_glide_ligand_efficiency>  (217) 
-0.168788

>  <r_i_glide_ligand_efficiency_sa>  (217) 
-0.442349

>  <r_i_glide_ligand_efficiency_ln>  (217) 
-0.780949

>  <r_i_glide_gscore>  (217) 
-3.03818

>  <r_i_glide_lipo>  (217) 
-0.362065

>  <r_i_glide_hbond>  (217) 
0

>  <r_i_glide_metal>  (217) 
-0

>  <r_i_glide_rewards>  (217) 
-2.03544

>  <r_i_glide_evdw>  (217) 
-24.1887

>  <r_i_glide_ecoul>  (217) 
-1.51908

>  <r_i_glide_erotb>  (217) 
0.861679

>  <r_i_glide_esite>  (217) 
-0.0650579

>  <r_i_glide_emodel>  (217) 
-30.7096

>  <r_i_glide_energy>  (217) 
-25.7077

>  <r_i_glide_einternal>  (217) 
0.901302

>  <r_i_glide_intrahb_reward>  (217) 
-0

>  <i_i_glide_confnum>  (217) 
4

>  <i_i_glide_posenum>  (217) 
3

>  <r_i_glide_eff_state_penalty>  (217) 
0

>  <ligand_id>  (217) 
54

>  <original_smiles>  (217) 
O=C(NC12CC3CC(CC(C3)C1)C2)n1cncn1

>  <smiles>  (217) 
[H]c1nc([H])n(C(=O)N([H])C23C([H])([H])C4([H])C([H])([H])C([H])(C([H])([H])C([H])(C4([H])[H])C2([H])[H])C3([H])[H])n1

$$$$
55:0:0
     RDKit          3D

 88 92  0  0  1  0  0  0  0  0999 V2000
    6.7564   -5.0370    1.0603 C   0  0  0  0  0  0  0  0  0  0  0  0
    6.2623   -5.0653    2.3931 O   0  0  0  0  0  0  0  0  0  0  0  0
    4.8939   -5.4343    2.5126 C   0  0  2  0  0  0  0  0  0  0  0  0
    3.9787   -4.1912    2.3241 C   0  0  0  0  0  0  0  0  0  0  0  0
    3.5457   -3.3377    3.5559 C   0  0  1  0  0  0  0  0  0  0  0  0
    3.1450   -1.8553    3.1335 C   0  0  0  0  0  0  0  0  0  0  0  0
    4.2853   -1.1963    2.3060 C   0  0  0  0  0  0  0  0  0  0  0  0
    1.8621   -1.7672    2.2480 C   0  0  0  0  0  0  0  0  0  0  0  0
    3.0552   -1.0030    4.4211 C   0  0  1  0  0  0  0  0  0  0  0  0
    2.5848    0.3088    4.1285 O   0  0  0  0  0  0  0  0  0  0  0  0
    2.0513   -1.5668    5.4067 C   0  0  0  0  0  0  0  0  0  0  0  0
    2.2765   -3.0555    5.7888 C   0  0  1  0  0  0  0  0  0  0  0  0
    1.2452   -3.4431    6.7389 O   0  0  0  0  0  0  0  0  0  0  0  0
   -0.0942   -3.2910    6.5767 C   0  0  0  0  0  0  0  0  0  0  0  0
   -0.8988   -4.0280    7.6354 C   0  0  0  0  0  0  0  0  0  0  0  0
   -0.6785   -2.6347    5.6941 O   0  0  0  0  0  0  0  0  0  0  0  0
    2.6149   -4.0917    4.6296 C   0  0  1  0  0  0  0  0  0  0  0  0
    1.2543   -4.3897    3.8646 C   0  0  0  0  0  0  0  0  0  0  0  0
    0.4465   -5.6616    4.2899 C   0  0  0  0  0  0  0  0  0  0  0  0
    0.7243   -6.9573    3.5114 C   0  0  1  0  0  0  0  0  0  0  0  0
   -0.0170   -6.7781    2.1430 C   0  0  0  0  0  0  0  0  0  0  0  0
    2.2571   -7.0456    3.1755 C   0  0  2  0  0  0  0  0  0  0  0  0
    2.6058   -8.3523    2.4392 C   0  0  0  0  0  0  0  0  0  0  0  0
    2.1250   -9.5853    3.2014 C   0  0  0  0  0  0  0  0  0  0  0  0
    0.6017   -9.5278    3.4579 C   0  0  1  0  0  0  0  0  0  0  0  0
    0.2137  -10.7177    4.1170 O   0  0  0  0  0  0  0  0  0  0  0  0
    0.1688   -8.2440    4.2451 C   0  0  0  0  0  0  0  0  0  0  0  0
    0.6238   -8.3851    5.7337 C   0  0  0  0  0  0  0  0  0  0  0  0
   -1.3882   -8.2397    4.2938 C   0  0  0  0  0  0  0  0  0  0  0  0
    3.3098   -6.6727    4.2529 C   0  0  1  0  0  0  0  0  0  0  0  0
    4.7168   -6.2342    3.8087 C   0  0  2  0  0  0  0  0  0  0  0  0
    4.8990   -5.6438    5.2200 C   0  0  0  0  0  0  0  0  0  0  0  0
    5.5311   -6.6834    6.2039 C   0  0  0  0  0  0  0  0  0  0  0  0
    5.8558   -4.4465    5.4501 C   0  0  0  0  0  0  0  0  0  0  0  0
    3.3159   -5.4473    5.2205 C   0  0  1  0  0  0  0  0  0  0  0  0
    2.8233   -5.7961    6.6566 C   0  0  0  0  0  0  0  0  0  0  0  0
    7.7307   -4.5465    1.0356 H   0  0  0  0  0  0  0  0  0  0  0  0
    6.1036   -4.4968    0.3734 H   0  0  0  0  0  0  0  0  0  0  0  0
    6.8753   -6.0519    0.6802 H   0  0  0  0  0  0  0  0  0  0  0  0
    4.6880   -6.1073    1.6798 H   0  0  0  0  0  0  0  0  0  0  0  0
    4.5234   -3.5662    1.6341 H   0  0  0  0  0  0  0  0  0  0  0  0
    3.1192   -4.4683    1.7218 H   0  0  0  0  0  0  0  0  0  0  0  0
    4.4523   -3.0904    4.0784 H   0  0  0  0  0  0  0  0  0  0  0  0
    4.1792   -0.1152    2.2464 H   0  0  0  0  0  0  0  0  0  0  0  0
    4.3090   -1.5350    1.2728 H   0  0  0  0  0  0  0  0  0  0  0  0
    5.2558   -1.3952    2.7601 H   0  0  0  0  0  0  0  0  0  0  0  0
    1.7568   -0.7890    1.7794 H   0  0  0  0  0  0  0  0  0  0  0  0
    0.9334   -1.8919    2.7948 H   0  0  0  0  0  0  0  0  0  0  0  0
    1.8640   -2.4979    1.4385 H   0  0  0  0  0  0  0  0  0  0  0  0
    4.0421   -0.9146    4.8921 H   0  0  0  0  0  0  0  0  0  0  0  0
    3.1625    0.7371    3.5364 H   0  0  0  0  0  0  0  0  0  0  0  0
    2.0694   -0.9725    6.3226 H   0  0  0  0  0  0  0  0  0  0  0  0
    1.0914   -1.4111    4.9453 H   0  0  0  0  0  0  0  0  0  0  0  0
    3.1926   -3.0230    6.3697 H   0  0  0  0  0  0  0  0  0  0  0  0
   -0.6445   -3.6378    8.6320 H   0  0  0  0  0  0  0  0  0  0  0  0
   -0.7034   -5.1072    7.5740 H   0  0  0  0  0  0  0  0  0  0  0  0
   -1.9412   -3.8583    7.4145 H   0  0  0  0  0  0  0  0  0  0  0  0
    0.6249   -3.5546    3.9900 H   0  0  0  0  0  0  0  0  0  0  0  0
    1.4224   -4.4796    2.7912 H   0  0  0  0  0  0  0  0  0  0  0  0
    0.4431   -5.7981    5.3476 H   0  0  0  0  0  0  0  0  0  0  0  0
   -0.5906   -5.4062    4.1264 H   0  0  0  0  0  0  0  0  0  0  0  0
    0.0526   -7.6545    1.4961 H   0  0  0  0  0  0  0  0  0  0  0  0
    0.3997   -5.9586    1.5636 H   0  0  0  0  0  0  0  0  0  0  0  0
   -1.0823   -6.5914    2.2552 H   0  0  0  0  0  0  0  0  0  0  0  0
    2.3949   -6.3246    2.3865 H   0  0  0  0  0  0  0  0  0  0  0  0
    2.1650   -8.3452    1.4407 H   0  0  0  0  0  0  0  0  0  0  0  0
    3.6903   -8.4044    2.2842 H   0  0  0  0  0  0  0  0  0  0  0  0
    2.3642  -10.4689    2.6084 H   0  0  0  0  0  0  0  0  0  0  0  0
    2.6752   -9.6870    4.1367 H   0  0  0  0  0  0  0  0  0  0  0  0
    0.1038   -9.5534    2.4856 H   0  0  0  0  0  0  0  0  0  0  0  0
   -0.6822  -10.6708    4.4013 H   0  0  0  0  0  0  0  0  0  0  0  0
    0.2569   -9.3034    6.1899 H   0  0  0  0  0  0  0  0  0  0  0  0
    0.2421   -7.5944    6.3756 H   0  0  0  0  0  0  0  0  0  0  0  0
    1.7059   -8.4076    5.8332 H   0  0  0  0  0  0  0  0  0  0  0  0
   -1.7680   -9.0471    4.9112 H   0  0  0  0  0  0  0  0  0  0  0  0
   -1.8289   -8.3805    3.3069 H   0  0  0  0  0  0  0  0  0  0  0  0
   -1.7791   -7.3133    4.7107 H   0  0  0  0  0  0  0  0  0  0  0  0
    3.4512   -7.5701    4.8589 H   0  0  0  0  0  0  0  0  0  0  0  0
    5.3341   -7.1314    3.7318 H   0  0  0  0  0  0  0  0  0  0  0  0
    5.5209   -6.3255    7.2317 H   0  0  0  0  0  0  0  0  0  0  0  0
    6.5743   -6.9079    5.9581 H   0  0  0  0  0  0  0  0  0  0  0  0
    5.0341   -7.6541    6.2069 H   0  0  0  0  0  0  0  0  0  0  0  0
    5.3723   -3.6670    6.0349 H   0  0  0  0  0  0  0  0  0  0  0  0
    6.2010   -4.0155    4.5205 H   0  0  0  0  0  0  0  0  0  0  0  0
    6.7842   -4.7014    5.9677 H   0  0  0  0  0  0  0  0  0  0  0  0
    3.0860   -6.8202    6.9552 H   0  0  0  0  0  0  0  0  0  0  0  0
    1.7616   -5.7755    6.8217 H   0  0  0  0  0  0  0  0  0  0  0  0
    3.2808   -5.1568    7.4103 H   0  0  0  0  0  0  0  0  0  0  0  0
  1  2  1  0
  1 37  1  0
  1 38  1  0
  1 39  1  0
  2  3  1  0
  3 31  1  0
  3  4  1  0
  3 40  1  6
  4  5  1  0
  4 41  1  0
  4 42  1  0
  5 17  1  0
  5  6  1  0
  5 43  1  1
  6  7  1  0
  6  8  1  0
  6  9  1  0
  7 44  1  0
  7 45  1  0
  7 46  1  0
  8 47  1  0
  8 48  1  0
  8 49  1  0
  9 10  1  0
  9 11  1  0
  9 50  1  1
 10 51  1  0
 11 12  1  0
 11 52  1  0
 11 53  1  0
 12 13  1  0
 12 17  1  0
 12 54  1  1
 13 14  1  0
 14 15  1  0
 14 16  2  0
 15 55  1  0
 15 56  1  0
 15 57  1  0
 17 35  1  0
 17 18  1  6
 18 19  1  0
 18 58  1  0
 18 59  1  0
 19 20  1  0
 19 60  1  0
 19 61  1  0
 20 27  1  0
 20 21  1  6
 20 22  1  0
 21 62  1  0
 21 63  1  0
 21 64  1  0
 22 23  1  0
 22 30  1  0
 22 65  1  6
 23 24  1  0
 23 66  1  0
 23 67  1  0
 24 25  1  0
 24 68  1  0
 24 69  1  0
 25 26  1  0
 25 27  1  0
 25 70  1  6
 26 71  1  0
 27 28  1  0
 27 29  1  0
 28 72  1  0
 28 73  1  0
 28 74  1  0
 29 75  1  0
 29 76  1  0
 29 77  1  0
 30 35  1  0
 30 31  1  0
 30 78  1  1
 31 32  1  0
 31 79  1  6
 32 33  1  0
 32 34  1  0
 32 35  1  0
 33 80  1  0
 33 81  1  0
 33 82  1  0
 34 83  1  0
 34 84  1  0
 34 85  1  0
 35 36  1  1
 36 86  1  0
 36 87  1  0
 36 88  1  0
M  END
>  <i_m_ct_stereo_status>  (218) 
1

>  <s_m_source_file>  (218) 
/var/tmp/pbs.5076255.sched01/tmptpdlle0r/921kky2sk3.sdf

>  <i_m_source_file_index>  (218) 
3

>  <i_lp_mmshare_version>  (218) 
48012

>  <i_f3d_flags>  (218) 
0

>  <s_epik_input>  (218) 
W0NIMl0xW0NIMl1bQ0BASF0oW09IXSlDKFtDSDNdKShbQ0gzXSlbQ0BAXShbQ0gzXSkoW0NIMl1bQ0gyXTIpW0NASF0xW0NASF0oW0NAQF0zKFtDSDNdKUM0KFtDSDNdKVtDSDNdKVtDQEhdNFtDQEhdKE9bQ0gzXSlbQ0gyXVtDQEhdKFtDQEBdMjM1KUMoW0NIM10pKFtDSDNdKVtDQEBIXShbT0hdKVtDSDJdW0NASF01T0MoPU8pW0NIM10=

>  <s_epik_cmdline>  (218) 
J2VwaWtfcHl0aG9uJywgJy1waHQnLCAnMi4wJywgJy1waCcsICc3LjAnLCAnLXRuJywgJzgnLCAnLW1hJywgJzIwMCcsICctaW1hZScsICc8aW5maWxlLm1hZT4nLCAnLW9tYWUnLCAnPG91dGZpbGUubWFlPic=

>  <r_lp_tautomer_probability>  (218) 
1

>  <r_epik_Ionization_Penalty>  (218) 
3.32621e-06

>  <r_epik_Ionization_Penalty_Charging>  (218) 
0

>  <r_epik_Ionization_Penalty_Neutral>  (218) 
3.32621e-06

>  <r_epik_State_Penalty>  (218) 
-0

>  <r_epik_Charging_Adjusted_Penalty>  (218) 
0

>  <i_epik_Tot_Q>  (218) 
0

>  <i_epik_Tot_abs_Q>  (218) 
0

>  <s_epik_Chemistry_Notes>  (218) 
This compound has an ester and may undergo hydrolysis at high or low pH.

>  <s_lp_Force_Field>  (218) 
OPLS3e

>  <r_lp_Energy>  (218) 
129.031

>  <b_lp_Chiralities_Consistent>  (218) 
1

>  <s_lp_Variant>  (218) 
55:0-1

>  <s_i_glide_gridfile>  (218) 
pfpi4k_grid

>  <i_i_glide_lignum>  (218) 
3

>  <i_i_glide_rotatable_bonds>  (218) 
5

>  <r_i_docking_score>  (218) 
-1.68092

>  <r_i_glide_ligand_efficiency>  (218) 
-0.0466921

>  <r_i_glide_ligand_efficiency_sa>  (218) 
-0.154174

>  <r_i_glide_ligand_efficiency_ln>  (218) 
-0.36673

>  <r_i_glide_gscore>  (218) 
-1.68092

>  <r_i_glide_lipo>  (218) 
-0.139482

>  <r_i_glide_hbond>  (218) 
-0.16

>  <r_i_glide_metal>  (218) 
-0

>  <r_i_glide_rewards>  (218) 
0

>  <r_i_glide_evdw>  (218) 
-20.9225

>  <r_i_glide_ecoul>  (218) 
-2.6349

>  <r_i_glide_erotb>  (218) 
0.0802652

>  <r_i_glide_esite>  (218) 
-0.0203396

>  <r_i_glide_emodel>  (218) 
-16.3096

>  <r_i_glide_energy>  (218) 
-23.5574

>  <r_i_glide_einternal>  (218) 
17.566

>  <r_i_glide_intrahb_reward>  (218) 
-0

>  <i_i_glide_confnum>  (218) 
2

>  <i_i_glide_posenum>  (218) 
13

>  <r_i_glide_eff_state_penalty>  (218) 
0

>  <ligand_id>  (218) 
55

>  <original_smiles>  (218) 
COC1CC2C(C)(C)C(O)CC(OC(C)=O)C23CCC2(C)C(CCC(O)C2(C)C)C2C1C(C)(C)C23C

>  <smiles>  (218) 
[H]OC1([H])C([H])([H])C([H])(OC(=O)C([H])([H])[H])C23C([H])([H])C([H])([H])C4(C([H])([H])[H])C([H])(C([H])([H])C([H])([H])C([H])(O[H])C4(C([H])([H])[H])C([H])([H])[H])C4([H])C([H])(C([H])(OC([H])([H])[H])C([H])([H])C2([H])C1(C([H])([H])[H])C([H])([H])[H])C(C([H])([H])[H])(C([H])([H])[H])C43C([H])([H])[H]

$$$$
55:0:1
     RDKit          3D

 88 92  0  0  1  0  0  0  0  0999 V2000
    5.3252   -9.0196    1.3011 C   0  0  0  0  0  0  0  0  0  0  0  0
    5.1098   -7.6382    1.0351 O   0  0  0  0  0  0  0  0  0  0  0  0
    4.1962   -6.9702    1.8970 C   0  0  2  0  0  0  0  0  0  0  0  0
    3.7267   -5.6914    1.1860 C   0  0  0  0  0  0  0  0  0  0  0  0
    4.4682   -4.3182    1.4252 C   0  0  1  0  0  0  0  0  0  0  0  0
    4.2515   -3.3136    0.2150 C   0  0  0  0  0  0  0  0  0  0  0  0
    4.6446   -3.9676   -1.1252 C   0  0  0  0  0  0  0  0  0  0  0  0
    2.7933   -2.7985    0.0645 C   0  0  0  0  0  0  0  0  0  0  0  0
    5.2601   -2.1353    0.3787 C   0  0  1  0  0  0  0  0  0  0  0  0
    5.1014   -1.1263   -0.6166 O   0  0  0  0  0  0  0  0  0  0  0  0
    5.1197   -1.4533    1.7339 C   0  0  0  0  0  0  0  0  0  0  0  0
    5.1896   -2.3810    2.9544 C   0  0  1  0  0  0  0  0  0  0  0  0
    5.0551   -1.5476    4.1306 O   0  0  0  0  0  0  0  0  0  0  0  0
    4.0200   -0.7231    4.3405 C   0  0  0  0  0  0  0  0  0  0  0  0
    4.1394   -0.0048    5.6962 C   0  0  0  0  0  0  0  0  0  0  0  0
    3.0721   -0.4850    3.6205 O   0  0  0  0  0  0  0  0  0  0  0  0
    4.3565   -3.7516    2.9311 C   0  0  1  0  0  0  0  0  0  0  0  0
    2.8460   -3.3767    3.1439 C   0  0  0  0  0  0  0  0  0  0  0  0
    2.2753   -3.4607    4.5882 C   0  0  0  0  0  0  0  0  0  0  0  0
    1.6385   -4.8012    4.9924 C   0  0  1  0  0  0  0  0  0  0  0  0
    0.2316   -4.8111    4.3085 C   0  0  0  0  0  0  0  0  0  0  0  0
    2.4311   -6.0018    4.3501 C   0  0  2  0  0  0  0  0  0  0  0  0
    1.8648   -7.3713    4.7632 C   0  0  0  0  0  0  0  0  0  0  0  0
    1.7579   -7.5255    6.2813 C   0  0  0  0  0  0  0  0  0  0  0  0
    0.9078   -6.4050    6.9060 C   0  0  1  0  0  0  0  0  0  0  0  0
    0.7734   -6.6369    8.2889 O   0  0  0  0  0  0  0  0  0  0  0  0
    1.4430   -4.9651    6.5813 C   0  0  0  0  0  0  0  0  0  0  0  0
    2.7498   -4.7194    7.3902 C   0  0  0  0  0  0  0  0  0  0  0  0
    0.4037   -3.9423    7.1119 C   0  0  0  0  0  0  0  0  0  0  0  0
    3.9897   -5.9944    4.3791 C   0  0  1  0  0  0  0  0  0  0  0  0
    4.7612   -6.8268    3.3304 C   0  0  2  0  0  0  0  0  0  0  0  0
    6.0023   -5.9675    3.6446 C   0  0  0  0  0  0  0  0  0  0  0  0
    6.8534   -6.6123    4.7932 C   0  0  0  0  0  0  0  0  0  0  0  0
    7.0847   -5.7266    2.5706 C   0  0  0  0  0  0  0  0  0  0  0  0
    4.9440   -4.7977    4.0329 C   0  0  1  0  0  0  0  0  0  0  0  0
    5.5057   -4.1117    5.3238 C   0  0  0  0  0  0  0  0  0  0  0  0
    5.9050   -9.4520    0.4878 H   0  0  0  0  0  0  0  0  0  0  0  0
    4.3872   -9.5759    1.3681 H   0  0  0  0  0  0  0  0  0  0  0  0
    5.8944   -9.1762    2.2191 H   0  0  0  0  0  0  0  0  0  0  0  0
    3.3107   -7.6151    1.9511 H   0  0  0  0  0  0  0  0  0  0  0  0
    3.7795   -5.9543    0.1346 H   0  0  0  0  0  0  0  0  0  0  0  0
    2.6567   -5.5552    1.3155 H   0  0  0  0  0  0  0  0  0  0  0  0
    5.5146   -4.5279    1.2456 H   0  0  0  0  0  0  0  0  0  0  0  0
    4.7874   -3.2416   -1.9249 H   0  0  0  0  0  0  0  0  0  0  0  0
    3.8770   -4.6363   -1.5193 H   0  0  0  0  0  0  0  0  0  0  0  0
    5.5652   -4.5329   -1.0412 H   0  0  0  0  0  0  0  0  0  0  0  0
    2.6453   -2.3089   -0.9021 H   0  0  0  0  0  0  0  0  0  0  0  0
    2.4931   -2.0445    0.7835 H   0  0  0  0  0  0  0  0  0  0  0  0
    2.0693   -3.6102    0.1164 H   0  0  0  0  0  0  0  0  0  0  0  0
    6.2806   -2.5186    0.2799 H   0  0  0  0  0  0  0  0  0  0  0  0
    4.2142   -0.7590   -0.5410 H   0  0  0  0  0  0  0  0  0  0  0  0
    5.9060   -0.6952    1.8214 H   0  0  0  0  0  0  0  0  0  0  0  0
    4.1832   -0.9168    1.6860 H   0  0  0  0  0  0  0  0  0  0  0  0
    6.2198   -2.7245    2.9124 H   0  0  0  0  0  0  0  0  0  0  0  0
    5.0949    0.5630    5.7435 H   0  0  0  0  0  0  0  0  0  0  0  0
    4.0664   -0.7306    6.5303 H   0  0  0  0  0  0  0  0  0  0  0  0
    3.2983    0.6901    5.7615 H   0  0  0  0  0  0  0  0  0  0  0  0
    2.7346   -2.3761    2.8279 H   0  0  0  0  0  0  0  0  0  0  0  0
    2.2120   -3.9660    2.5181 H   0  0  0  0  0  0  0  0  0  0  0  0
    2.9632   -3.0982    5.3253 H   0  0  0  0  0  0  0  0  0  0  0  0
    1.5052   -2.6869    4.6433 H   0  0  0  0  0  0  0  0  0  0  0  0
   -0.3794   -5.6745    4.5503 H   0  0  0  0  0  0  0  0  0  0  0  0
    0.3251   -4.8098    3.2267 H   0  0  0  0  0  0  0  0  0  0  0  0
   -0.3498   -3.9198    4.5521 H   0  0  0  0  0  0  0  0  0  0  0  0
    2.1715   -5.9615    3.3097 H   0  0  0  0  0  0  0  0  0  0  0  0
    0.8732   -7.5072    4.3114 H   0  0  0  0  0  0  0  0  0  0  0  0
    2.4797   -8.1666    4.3433 H   0  0  0  0  0  0  0  0  0  0  0  0
    1.3007   -8.4921    6.4932 H   0  0  0  0  0  0  0  0  0  0  0  0
    2.7589   -7.5560    6.7229 H   0  0  0  0  0  0  0  0  0  0  0  0
   -0.1038   -6.5045    6.5104 H   0  0  0  0  0  0  0  0  0  0  0  0
    1.6549   -6.6515    8.6730 H   0  0  0  0  0  0  0  0  0  0  0  0
    2.5920   -4.8643    8.4595 H   0  0  0  0  0  0  0  0  0  0  0  0
    3.1187   -3.6964    7.3103 H   0  0  0  0  0  0  0  0  0  0  0  0
    3.5558   -5.3862    7.1048 H   0  0  0  0  0  0  0  0  0  0  0  0
    0.3574   -3.9514    8.2013 H   0  0  0  0  0  0  0  0  0  0  0  0
   -0.6037   -4.1636    6.7656 H   0  0  0  0  0  0  0  0  0  0  0  0
    0.6389   -2.9204    6.8117 H   0  0  0  0  0  0  0  0  0  0  0  0
    4.2725   -6.3917    5.3493 H   0  0  0  0  0  0  0  0  0  0  0  0
    4.9004   -7.8104    3.7577 H   0  0  0  0  0  0  0  0  0  0  0  0
    7.6375   -5.9340    5.1376 H   0  0  0  0  0  0  0  0  0  0  0  0
    7.3438   -7.5252    4.4601 H   0  0  0  0  0  0  0  0  0  0  0  0
    6.2776   -6.8978    5.6632 H   0  0  0  0  0  0  0  0  0  0  0  0
    7.3336   -4.6717    2.4624 H   0  0  0  0  0  0  0  0  0  0  0  0
    6.7911   -6.0664    1.5835 H   0  0  0  0  0  0  0  0  0  0  0  0
    8.0216   -6.2534    2.7500 H   0  0  0  0  0  0  0  0  0  0  0  0
    5.6460   -4.8013    6.1560 H   0  0  0  0  0  0  0  0  0  0  0  0
    4.8916   -3.3348    5.7455 H   0  0  0  0  0  0  0  0  0  0  0  0
    6.4940   -3.6768    5.1691 H   0  0  0  0  0  0  0  0  0  0  0  0
  1  2  1  0
  1 37  1  0
  1 38  1  0
  1 39  1  0
  2  3  1  0
  3 31  1  0
  3  4  1  0
  3 40  1  1
  4  5  1  0
  4 41  1  0
  4 42  1  0
  5 17  1  0
  5  6  1  0
  5 43  1  6
  6  7  1  0
  6  8  1  0
  6  9  1  0
  7 44  1  0
  7 45  1  0
  7 46  1  0
  8 47  1  0
  8 48  1  0
  8 49  1  0
  9 10  1  0
  9 11  1  0
  9 50  1  1
 10 51  1  0
 11 12  1  0
 11 52  1  0
 11 53  1  0
 12 13  1  0
 12 17  1  0
 12 54  1  1
 13 14  1  0
 14 15  1  0
 14 16  2  0
 15 55  1  0
 15 56  1  0
 15 57  1  0
 17 35  1  0
 17 18  1  1
 18 19  1  0
 18 58  1  0
 18 59  1  0
 19 20  1  0
 19 60  1  0
 19 61  1  0
 20 27  1  0
 20 21  1  6
 20 22  1  0
 21 62  1  0
 21 63  1  0
 21 64  1  0
 22 23  1  0
 22 30  1  0
 22 65  1  6
 23 24  1  0
 23 66  1  0
 23 67  1  0
 24 25  1  0
 24 68  1  0
 24 69  1  0
 25 26  1  0
 25 27  1  0
 25 70  1  6
 26 71  1  0
 27 28  1  0
 27 29  1  0
 28 72  1  0
 28 73  1  0
 28 74  1  0
 29 75  1  0
 29 76  1  0
 29 77  1  0
 30 35  1  0
 30 31  1  0
 30 78  1  1
 31 32  1  0
 31 79  1  1
 32 33  1  0
 32 34  1  0
 32 35  1  0
 33 80  1  0
 33 81  1  0
 33 82  1  0
 34 83  1  0
 34 84  1  0
 34 85  1  0
 35 36  1  1
 36 86  1  0
 36 87  1  0
 36 88  1  0
M  END
>  <i_m_ct_stereo_status>  (219) 
1

>  <s_m_source_file>  (219) 
/var/tmp/pbs.5076255.sched01/tmptpdlle0r/921kky2sk3.sdf

>  <i_m_source_file_index>  (219) 
3

>  <i_lp_mmshare_version>  (219) 
48012

>  <i_f3d_flags>  (219) 
0

>  <s_epik_input>  (219) 
W0NIMl0xW0NIMl1bQ0BASF0oW09IXSlDKFtDSDNdKShbQ0gzXSlbQ0BAXShbQ0gzXSkoW0NIMl1bQ0gyXTIpW0NASF0xW0NASF0oW0NAQF0zKFtDSDNdKUM0KFtDSDNdKVtDSDNdKVtDQEhdNFtDQEhdKE9bQ0gzXSlbQ0gyXVtDQEhdKFtDQEBdMjM1KUMoW0NIM10pKFtDSDNdKVtDQEBIXShbT0hdKVtDSDJdW0NASF01T0MoPU8pW0NIM10=

>  <s_epik_cmdline>  (219) 
J2VwaWtfcHl0aG9uJywgJy1waHQnLCAnMi4wJywgJy1waCcsICc3LjAnLCAnLXRuJywgJzgnLCAnLW1hJywgJzIwMCcsICctaW1hZScsICc8aW5maWxlLm1hZT4nLCAnLW9tYWUnLCAnPG91dGZpbGUubWFlPic=

>  <r_lp_tautomer_probability>  (219) 
1

>  <r_epik_Ionization_Penalty>  (219) 
3.32621e-06

>  <r_epik_Ionization_Penalty_Charging>  (219) 
0

>  <r_epik_Ionization_Penalty_Neutral>  (219) 
3.32621e-06

>  <r_epik_State_Penalty>  (219) 
-0

>  <r_epik_Charging_Adjusted_Penalty>  (219) 
0

>  <i_epik_Tot_Q>  (219) 
0

>  <i_epik_Tot_abs_Q>  (219) 
0

>  <s_epik_Chemistry_Notes>  (219) 
This compound has an ester and may undergo hydrolysis at high or low pH.

>  <s_lp_Force_Field>  (219) 
OPLS3e

>  <r_lp_Energy>  (219) 
129.031

>  <b_lp_Chiralities_Consistent>  (219) 
1

>  <s_lp_Variant>  (219) 
55:0-1

>  <s_i_glide_gridfile>  (219) 
pfpi4k_grid

>  <i_i_glide_lignum>  (219) 
3

>  <i_i_glide_rotatable_bonds>  (219) 
5

>  <r_i_docking_score>  (219) 
-1.49721

>  <r_i_glide_ligand_efficiency>  (219) 
-0.0415892

>  <r_i_glide_ligand_efficiency_sa>  (219) 
-0.137324

>  <r_i_glide_ligand_efficiency_ln>  (219) 
-0.326651

>  <r_i_glide_gscore>  (219) 
-1.49721

>  <r_i_glide_lipo>  (219) 
-0.343383

>  <r_i_glide_hbond>  (219) 
0

>  <r_i_glide_metal>  (219) 
-0

>  <r_i_glide_rewards>  (219) 
-0.000909329

>  <r_i_glide_evdw>  (219) 
-18.5614

>  <r_i_glide_ecoul>  (219) 
-2.0341

>  <r_i_glide_erotb>  (219) 
0.0802652

>  <r_i_glide_esite>  (219) 
0

>  <r_i_glide_emodel>  (219) 
-13.6135

>  <r_i_glide_energy>  (219) 
-20.5955

>  <r_i_glide_einternal>  (219) 
15.6907

>  <r_i_glide_intrahb_reward>  (219) 
-0

>  <i_i_glide_confnum>  (219) 
2

>  <i_i_glide_posenum>  (219) 
3

>  <r_i_glide_eff_state_penalty>  (219) 
0

>  <ligand_id>  (219) 
55

>  <original_smiles>  (219) 
COC1CC2C(C)(C)C(O)CC(OC(C)=O)C23CCC2(C)C(CCC(O)C2(C)C)C2C1C(C)(C)C23C

>  <smiles>  (219) 
[H]OC1([H])C([H])([H])C([H])(OC(=O)C([H])([H])[H])C23C([H])([H])C([H])([H])C4(C([H])([H])[H])C([H])(C([H])([H])C([H])([H])C([H])(O[H])C4(C([H])([H])[H])C([H])([H])[H])C4([H])C([H])(C([H])(OC([H])([H])[H])C([H])([H])C2([H])C1(C([H])([H])[H])C([H])([H])[H])C(C([H])([H])[H])(C([H])([H])[H])C43C([H])([H])[H]

$$$$
55:0:2
     RDKit          3D

 88 92  0  0  1  0  0  0  0  0999 V2000
    6.2793   -9.6206    1.1972 C   0  0  0  0  0  0  0  0  0  0  0  0
    5.9148   -8.2503    1.0873 O   0  0  0  0  0  0  0  0  0  0  0  0
    4.7320   -7.8627    1.7617 C   0  0  2  0  0  0  0  0  0  0  0  0
    4.1631   -6.6239    1.0375 C   0  0  0  0  0  0  0  0  0  0  0  0
    4.5446   -5.1707    1.5064 C   0  0  1  0  0  0  0  0  0  0  0  0
    4.3527   -4.1030    0.3360 C   0  0  0  0  0  0  0  0  0  0  0  0
    5.1270   -4.5402   -0.9299 C   0  0  0  0  0  0  0  0  0  0  0  0
    2.8741   -3.8674   -0.0794 C   0  0  0  0  0  0  0  0  0  0  0  0
    5.0524   -2.7880    0.7753 C   0  0  1  0  0  0  0  0  0  0  0  0
    4.8752   -1.7327   -0.1719 O   0  0  0  0  0  0  0  0  0  0  0  0
    4.5361   -2.2802    2.1114 C   0  0  0  0  0  0  0  0  0  0  0  0
    4.5911   -3.3002    3.2707 C   0  0  1  0  0  0  0  0  0  0  0  0
    4.0507   -2.6273    4.4346 O   0  0  0  0  0  0  0  0  0  0  0  0
    2.8379   -2.0353    4.4825 C   0  0  0  0  0  0  0  0  0  0  0  0
    2.5350   -1.4344    5.8576 C   0  0  0  0  0  0  0  0  0  0  0  0
    1.9942   -1.9007    3.6037 O   0  0  0  0  0  0  0  0  0  0  0  0
    4.0627   -4.7909    2.9938 C   0  0  1  0  0  0  0  0  0  0  0  0
    2.4835   -4.7234    2.9132 C   0  0  0  0  0  0  0  0  0  0  0  0
    1.6633   -5.0626    4.2059 C   0  0  0  0  0  0  0  0  0  0  0  0
    1.2510   -6.5289    4.3723 C   0  0  1  0  0  0  0  0  0  0  0  0
    0.0339   -6.7392    3.4088 C   0  0  0  0  0  0  0  0  0  0  0  0
    2.3828   -7.4868    3.8378 C   0  0  2  0  0  0  0  0  0  0  0  0
    2.0419   -8.9730    4.0461 C   0  0  0  0  0  0  0  0  0  0  0  0
    1.6830   -9.2972    5.4969 C   0  0  0  0  0  0  0  0  0  0  0  0
    0.5206   -8.4238    5.9954 C   0  0  1  0  0  0  0  0  0  0  0  0
    0.2310   -8.8202    7.3227 O   0  0  0  0  0  0  0  0  0  0  0  0
    0.8003   -6.8815    5.8708 C   0  0  0  0  0  0  0  0  0  0  0  0
    1.8493   -6.4768    6.9500 C   0  0  0  0  0  0  0  0  0  0  0  0
   -0.5054   -6.1255    6.2409 C   0  0  0  0  0  0  0  0  0  0  0  0
    3.8715   -7.1928    4.1966 C   0  0  1  0  0  0  0  0  0  0  0  0
    4.9805   -7.7613    3.2835 C   0  0  2  0  0  0  0  0  0  0  0  0
    5.9319   -6.7128    3.8925 C   0  0  0  0  0  0  0  0  0  0  0  0
    6.6690   -7.2968    5.1523 C   0  0  0  0  0  0  0  0  0  0  0  0
    7.1288   -6.1647    3.0756 C   0  0  0  0  0  0  0  0  0  0  0  0
    4.6149   -5.8149    4.1245 C   0  0  1  0  0  0  0  0  0  0  0  0
    4.7715   -5.1542    5.5336 C   0  0  0  0  0  0  0  0  0  0  0  0
    7.0820   -9.8298    0.4999 H   0  0  0  0  0  0  0  0  0  0  0  0
    5.4478  -10.2808    0.9420 H   0  0  0  0  0  0  0  0  0  0  0  0
    6.6467   -9.8691    2.1959 H   0  0  0  0  0  0  0  0  0  0  0  0
    4.0001   -8.6575    1.5952 H   0  0  0  0  0  0  0  0  0  0  0  0
    4.4666   -6.7725    0.0065 H   0  0  0  0  0  0  0  0  0  0  0  0
    3.0823   -6.7096    0.9489 H   0  0  0  0  0  0  0  0  0  0  0  0
    5.6231   -5.1574    1.5329 H   0  0  0  0  0  0  0  0  0  0  0  0
    5.2709   -3.7277   -1.6417 H   0  0  0  0  0  0  0  0  0  0  0  0
    4.6271   -5.3181   -1.5026 H   0  0  0  0  0  0  0  0  0  0  0  0
    6.1078   -4.9203   -0.6797 H   0  0  0  0  0  0  0  0  0  0  0  0
    2.8042   -3.3242   -1.0279 H   0  0  0  0  0  0  0  0  0  0  0  0
    2.3053   -3.2567    0.6118 H   0  0  0  0  0  0  0  0  0  0  0  0
    2.3322   -4.8043   -0.2219 H   0  0  0  0  0  0  0  0  0  0  0  0
    6.1273   -2.9536    0.8621 H   0  0  0  0  0  0  0  0  0  0  0  0
    3.9461   -1.5418   -0.2574 H   0  0  0  0  0  0  0  0  0  0  0  0
    5.1119   -1.4005    2.3991 H   0  0  0  0  0  0  0  0  0  0  0  0
    3.5347   -1.9373    1.9227 H   0  0  0  0  0  0  0  0  0  0  0  0
    5.6568   -3.4282    3.4651 H   0  0  0  0  0  0  0  0  0  0  0  0
    3.3265   -0.7143    6.1166 H   0  0  0  0  0  0  0  0  0  0  0  0
    2.4635   -2.2312    6.6127 H   0  0  0  0  0  0  0  0  0  0  0  0
    1.5865   -0.9279    5.7825 H   0  0  0  0  0  0  0  0  0  0  0  0
    2.2250   -3.7642    2.6210 H   0  0  0  0  0  0  0  0  0  0  0  0
    2.0989   -5.3435    2.1283 H   0  0  0  0  0  0  0  0  0  0  0  0
    2.1138   -4.6448    5.0757 H   0  0  0  0  0  0  0  0  0  0  0  0
    0.7539   -4.4479    4.1374 H   0  0  0  0  0  0  0  0  0  0  0  0
   -0.4191   -7.7259    3.4731 H   0  0  0  0  0  0  0  0  0  0  0  0
    0.3079   -6.6082    2.3622 H   0  0  0  0  0  0  0  0  0  0  0  0
   -0.7647   -6.0255    3.6087 H   0  0  0  0  0  0  0  0  0  0  0  0
    2.3242   -7.3935    2.7708 H   0  0  0  0  0  0  0  0  0  0  0  0
    1.2041   -9.2507    3.3969 H   0  0  0  0  0  0  0  0  0  0  0  0
    2.8725   -9.5964    3.7156 H   0  0  0  0  0  0  0  0  0  0  0  0
    1.4030  -10.3492    5.5548 H   0  0  0  0  0  0  0  0  0  0  0  0
    2.5612   -9.1822    6.1378 H   0  0  0  0  0  0  0  0  0  0  0  0
   -0.3624   -8.6853    5.4108 H   0  0  0  0  0  0  0  0  0  0  0  0
    0.2406   -9.7680    7.3458 H   0  0  0  0  0  0  0  0  0  0  0  0
    1.5250   -6.7605    7.9532 H   0  0  0  0  0  0  0  0  0  0  0  0
    2.0102   -5.4007    7.0144 H   0  0  0  0  0  0  0  0  0  0  0  0
    2.8126   -6.9504    6.8028 H   0  0  0  0  0  0  0  0  0  0  0  0
   -0.7500   -6.2510    7.2977 H   0  0  0  0  0  0  0  0  0  0  0  0
   -1.3622   -6.4878    5.6767 H   0  0  0  0  0  0  0  0  0  0  0  0
   -0.4336   -5.0524    6.0607 H   0  0  0  0  0  0  0  0  0  0  0  0
    4.0301   -7.6240    5.1821 H   0  0  0  0  0  0  0  0  0  0  0  0
    5.2430   -8.7429    3.6550 H   0  0  0  0  0  0  0  0  0  0  0  0
    7.2172   -6.5215    5.6910 H   0  0  0  0  0  0  0  0  0  0  0  0
    7.3904   -8.0644    4.8736 H   0  0  0  0  0  0  0  0  0  0  0  0
    6.0082   -7.7709    5.8659 H   0  0  0  0  0  0  0  0  0  0  0  0
    7.1655   -5.0770    3.1171 H   0  0  0  0  0  0  0  0  0  0  0  0
    7.1082   -6.4505    2.0301 H   0  0  0  0  0  0  0  0  0  0  0  0
    8.1065   -6.5183    3.4104 H   0  0  0  0  0  0  0  0  0  0  0  0
    4.8900   -5.8825    6.3392 H   0  0  0  0  0  0  0  0  0  0  0  0
    3.9432   -4.5585    5.8719 H   0  0  0  0  0  0  0  0  0  0  0  0
    5.6645   -4.5246    5.5853 H   0  0  0  0  0  0  0  0  0  0  0  0
  1  2  1  0
  1 37  1  0
  1 38  1  0
  1 39  1  0
  2  3  1  0
  3 31  1  0
  3  4  1  0
  3 40  1  1
  4  5  1  0
  4 41  1  0
  4 42  1  0
  5 17  1  0
  5  6  1  0
  5 43  1  1
  6  7  1  0
  6  8  1  0
  6  9  1  0
  7 44  1  0
  7 45  1  0
  7 46  1  0
  8 47  1  0
  8 48  1  0
  8 49  1  0
  9 10  1  0
  9 11  1  0
  9 50  1  1
 10 51  1  0
 11 12  1  0
 11 52  1  0
 11 53  1  0
 12 13  1  0
 12 17  1  0
 12 54  1  1
 13 14  1  0
 14 15  1  0
 14 16  2  0
 15 55  1  0
 15 56  1  0
 15 57  1  0
 17 35  1  0
 17 18  1  6
 18 19  1  0
 18 58  1  0
 18 59  1  0
 19 20  1  0
 19 60  1  0
 19 61  1  0
 20 27  1  0
 20 21  1  6
 20 22  1  0
 21 62  1  0
 21 63  1  0
 21 64  1  0
 22 23  1  0
 22 30  1  0
 22 65  1  6
 23 24  1  0
 23 66  1  0
 23 67  1  0
 24 25  1  0
 24 68  1  0
 24 69  1  0
 25 26  1  0
 25 27  1  0
 25 70  1  6
 26 71  1  0
 27 28  1  0
 27 29  1  0
 28 72  1  0
 28 73  1  0
 28 74  1  0
 29 75  1  0
 29 76  1  0
 29 77  1  0
 30 35  1  0
 30 31  1  0
 30 78  1  1
 31 32  1  0
 31 79  1  1
 32 33  1  0
 32 34  1  0
 32 35  1  0
 33 80  1  0
 33 81  1  0
 33 82  1  0
 34 83  1  0
 34 84  1  0
 34 85  1  0
 35 36  1  1
 36 86  1  0
 36 87  1  0
 36 88  1  0
M  END
>  <i_m_ct_stereo_status>  (220) 
1

>  <s_m_source_file>  (220) 
/var/tmp/pbs.5076255.sched01/tmptpdlle0r/921kky2sk3.sdf

>  <i_m_source_file_index>  (220) 
3

>  <i_lp_mmshare_version>  (220) 
48012

>  <i_f3d_flags>  (220) 
0

>  <s_epik_input>  (220) 
W0NIMl0xW0NIMl1bQ0BASF0oW09IXSlDKFtDSDNdKShbQ0gzXSlbQ0BAXShbQ0gzXSkoW0NIMl1bQ0gyXTIpW0NASF0xW0NASF0oW0NAQF0zKFtDSDNdKUM0KFtDSDNdKVtDSDNdKVtDQEhdNFtDQEhdKE9bQ0gzXSlbQ0gyXVtDQEhdKFtDQEBdMjM1KUMoW0NIM10pKFtDSDNdKVtDQEBIXShbT0hdKVtDSDJdW0NASF01T0MoPU8pW0NIM10=

>  <s_epik_cmdline>  (220) 
J2VwaWtfcHl0aG9uJywgJy1waHQnLCAnMi4wJywgJy1waCcsICc3LjAnLCAnLXRuJywgJzgnLCAnLW1hJywgJzIwMCcsICctaW1hZScsICc8aW5maWxlLm1hZT4nLCAnLW9tYWUnLCAnPG91dGZpbGUubWFlPic=

>  <r_lp_tautomer_probability>  (220) 
1

>  <r_epik_Ionization_Penalty>  (220) 
3.32621e-06

>  <r_epik_Ionization_Penalty_Charging>  (220) 
0

>  <r_epik_Ionization_Penalty_Neutral>  (220) 
3.32621e-06

>  <r_epik_State_Penalty>  (220) 
-0

>  <r_epik_Charging_Adjusted_Penalty>  (220) 
0

>  <i_epik_Tot_Q>  (220) 
0

>  <i_epik_Tot_abs_Q>  (220) 
0

>  <s_epik_Chemistry_Notes>  (220) 
This compound has an ester and may undergo hydrolysis at high or low pH.

>  <s_lp_Force_Field>  (220) 
OPLS3e

>  <r_lp_Energy>  (220) 
129.031

>  <b_lp_Chiralities_Consistent>  (220) 
1

>  <s_lp_Variant>  (220) 
55:0-1

>  <s_i_glide_gridfile>  (220) 
pfpi4k_grid

>  <i_i_glide_lignum>  (220) 
3

>  <i_i_glide_rotatable_bonds>  (220) 
5

>  <r_i_docking_score>  (220) 
-1.46838

>  <r_i_glide_ligand_efficiency>  (220) 
-0.0407884

>  <r_i_glide_ligand_efficiency_sa>  (220) 
-0.13468

>  <r_i_glide_ligand_efficiency_ln>  (220) 
-0.320361

>  <r_i_glide_gscore>  (220) 
-1.46838

>  <r_i_glide_lipo>  (220) 
-0.283388

>  <r_i_glide_hbond>  (220) 
0

>  <r_i_glide_metal>  (220) 
-0

>  <r_i_glide_rewards>  (220) 
0

>  <r_i_glide_evdw>  (220) 
-19.939

>  <r_i_glide_ecoul>  (220) 
-1.78874

>  <r_i_glide_erotb>  (220) 
0.0802652

>  <r_i_glide_esite>  (220) 
0

>  <r_i_glide_emodel>  (220) 
-14.2628

>  <r_i_glide_energy>  (220) 
-21.7277

>  <r_i_glide_einternal>  (220) 
16.3349

>  <r_i_glide_intrahb_reward>  (220) 
-0

>  <i_i_glide_confnum>  (220) 
2

>  <i_i_glide_posenum>  (220) 
9

>  <r_i_glide_eff_state_penalty>  (220) 
0

>  <ligand_id>  (220) 
55

>  <original_smiles>  (220) 
COC1CC2C(C)(C)C(O)CC(OC(C)=O)C23CCC2(C)C(CCC(O)C2(C)C)C2C1C(C)(C)C23C

>  <smiles>  (220) 
[H]OC1([H])C([H])([H])C([H])(OC(=O)C([H])([H])[H])C23C([H])([H])C([H])([H])C4(C([H])([H])[H])C([H])(C([H])([H])C([H])([H])C([H])(O[H])C4(C([H])([H])[H])C([H])([H])[H])C4([H])C([H])(C([H])(OC([H])([H])[H])C([H])([H])C2([H])C1(C([H])([H])[H])C([H])([H])[H])C(C([H])([H])[H])(C([H])([H])[H])C43C([H])([H])[H]

$$$$
56:0:0
     RDKit          3D

 67 72  0  0  1  0  0  0  0  0999 V2000
    2.7163   -2.2028   -3.1951 C   0  0  0  0  0  0  0  0  0  0  0  0
    3.2549   -2.7962   -1.8565 C   0  0  0  0  0  0  0  0  0  0  0  0
    2.0344   -3.6526   -1.4647 C   0  0  0  0  0  0  0  0  0  0  0  0
    4.5321   -3.5735   -2.2709 C   0  0  0  0  0  0  0  0  0  0  0  0
    5.8173   -3.6330   -1.4012 C   0  0  0  0  0  0  0  0  0  0  0  0
    5.9865   -3.3081    0.1341 C   0  0  1  0  0  0  0  0  0  0  0  0
    7.4583   -3.7339    0.3597 C   0  0  0  0  0  0  0  0  0  0  0  0
    6.0685   -1.7311    0.2526 C   0  0  2  0  0  0  0  0  0  0  0  0
    5.0551   -1.0860    1.1478 C   0  0  0  0  0  0  0  0  0  0  0  0
    3.7321   -1.7968    0.7684 C   0  0  1  0  0  0  0  0  0  0  0  0
    3.5393   -1.6349   -0.8398 C   0  0  1  0  0  0  0  0  0  0  0  0
    4.6735   -0.8316   -1.5003 C   0  0  0  0  0  0  0  0  0  0  0  0
    4.5025   -0.1526   -2.4976 O   0  0  0  0  0  0  0  0  0  0  0  0
    5.8793   -1.0233   -0.9650 O   0  0  0  0  0  0  0  0  0  0  0  0
    3.7191   -3.1795    1.5855 C   0  0  2  0  0  0  0  0  0  0  0  0
    2.4959   -3.8775    1.3225 O   0  0  0  0  0  0  0  0  0  0  0  0
    2.1376   -5.0001    1.9915 C   0  0  0  0  0  0  0  0  0  0  0  0
    1.3082   -5.8191    1.6018 O   0  0  0  0  0  0  0  0  0  0  0  0
    2.8212   -5.1780    3.3248 C   0  0  1  0  0  0  0  0  0  0  0  0
    4.2660   -5.7133    3.1781 C   0  0  0  0  0  0  0  0  0  0  0  0
    5.3315   -4.7181    2.5535 C   0  0  2  0  0  0  0  0  0  0  0  0
    6.6598   -5.5049    2.6897 C   0  0  0  0  0  0  0  0  0  0  0  0
    5.2583   -3.4967    3.4596 C   0  0  0  0  0  0  0  0  0  0  0  0
    3.8240   -2.9499    3.2261 C   0  0  1  0  0  0  0  0  0  0  0  0
    3.6919   -1.5067    3.8137 C   0  0  0  0  0  0  0  0  0  0  0  0
    4.6037   -1.1293    4.5940 O   0  0  0  0  0  0  0  0  0  0  0  0
    2.7072   -0.8098    3.5030 O   0  0  0  0  0  0  0  0  0  0  0  0
    2.8020   -3.8399    4.0611 C   0  0  0  0  0  0  0  0  0  0  0  0
    1.3402   -3.2806    4.1496 C   0  0  0  0  0  0  0  0  0  0  0  0
    3.1671   -4.0671    5.5601 C   0  0  0  0  0  0  0  0  0  0  0  0
    4.9385   -4.1386    1.1128 C   0  0  2  0  0  0  0  0  0  0  0  0
    4.6269   -5.4658    0.3130 C   0  0  0  0  0  0  0  0  0  0  0  0
    2.3561   -2.9385   -3.9133 H   0  0  0  0  0  0  0  0  0  0  0  0
    3.4037   -1.6120   -3.8026 H   0  0  0  0  0  0  0  0  0  0  0  0
    1.8926   -1.5557   -2.9133 H   0  0  0  0  0  0  0  0  0  0  0  0
    2.2718   -4.5413   -0.9106 H   0  0  0  0  0  0  0  0  0  0  0  0
    1.4676   -4.0234   -2.3191 H   0  0  0  0  0  0  0  0  0  0  0  0
    1.3383   -3.0680   -0.8894 H   0  0  0  0  0  0  0  0  0  0  0  0
    4.2521   -4.5798   -2.5298 H   0  0  0  0  0  0  0  0  0  0  0  0
    4.8531   -3.2061   -3.2437 H   0  0  0  0  0  0  0  0  0  0  0  0
    6.1096   -4.6462   -1.4836 H   0  0  0  0  0  0  0  0  0  0  0  0
    6.5748   -3.0989   -1.9751 H   0  0  0  0  0  0  0  0  0  0  0  0
    7.8355   -3.3627    1.3094 H   0  0  0  0  0  0  0  0  0  0  0  0
    8.1167   -3.2908   -0.3936 H   0  0  0  0  0  0  0  0  0  0  0  0
    7.6074   -4.8161    0.2966 H   0  0  0  0  0  0  0  0  0  0  0  0
    7.0483   -1.4326    0.6174 H   0  0  0  0  0  0  0  0  0  0  0  0
    5.4284   -1.1597    2.1514 H   0  0  0  0  0  0  0  0  0  0  0  0
    4.9928    0.0015    0.9989 H   0  0  0  0  0  0  0  0  0  0  0  0
    2.9074   -1.1996    1.1682 H   0  0  0  0  0  0  0  0  0  0  0  0
    2.6994   -0.9432   -0.9120 H   0  0  0  0  0  0  0  0  0  0  0  0
    2.2201   -5.9014    3.8583 H   0  0  0  0  0  0  0  0  0  0  0  0
    4.5891   -5.9838    4.1848 H   0  0  0  0  0  0  0  0  0  0  0  0
    4.2618   -6.6870    2.6894 H   0  0  0  0  0  0  0  0  0  0  0  0
    7.5352   -4.8850    2.6503 H   0  0  0  0  0  0  0  0  0  0  0  0
    6.7916   -6.2502    1.9078 H   0  0  0  0  0  0  0  0  0  0  0  0
    6.7141   -6.0199    3.6498 H   0  0  0  0  0  0  0  0  0  0  0  0
    5.4990   -3.7093    4.4973 H   0  0  0  0  0  0  0  0  0  0  0  0
    6.0256   -2.7965    3.1546 H   0  0  0  0  0  0  0  0  0  0  0  0
    1.2674   -2.4994    4.9057 H   0  0  0  0  0  0  0  0  0  0  0  0
    0.6279   -4.0552    4.4454 H   0  0  0  0  0  0  0  0  0  0  0  0
    0.9833   -2.8382    3.2173 H   0  0  0  0  0  0  0  0  0  0  0  0
    3.2438   -3.1240    6.0986 H   0  0  0  0  0  0  0  0  0  0  0  0
    4.0910   -4.6086    5.7325 H   0  0  0  0  0  0  0  0  0  0  0  0
    2.3953   -4.6575    6.0530 H   0  0  0  0  0  0  0  0  0  0  0  0
    3.9912   -6.2123    0.7593 H   0  0  0  0  0  0  0  0  0  0  0  0
    5.5416   -6.0114    0.0916 H   0  0  0  0  0  0  0  0  0  0  0  0
    4.1238   -5.3293   -0.6183 H   0  0  0  0  0  0  0  0  0  0  0  0
  1  2  1  0
  1 33  1  0
  1 34  1  0
  1 35  1  0
  2 11  1  0
  2  3  1  0
  2  4  1  0
  3 36  1  0
  3 37  1  0
  3 38  1  0
  4  5  1  0
  4 39  1  0
  4 40  1  0
  5  6  1  0
  5 41  1  0
  5 42  1  0
  6 31  1  0
  6  7  1  1
  6  8  1  0
  7 43  1  0
  7 44  1  0
  7 45  1  0
  8 14  1  0
  8  9  1  0
  8 46  1  1
  9 10  1  0
  9 47  1  0
  9 48  1  0
 10 11  1  0
 10 15  1  0
 10 49  1  1
 11 12  1  0
 11 50  1  1
 12 13  2  0
 12 14  1  0
 15 24  1  0
 15 31  1  0
 15 16  1  1
 16 17  1  0
 17 18  2  0
 17 19  1  0
 19 28  1  0
 19 20  1  0
 19 51  1  1
 20 21  1  0
 20 52  1  0
 20 53  1  0
 21 22  1  6
 21 23  1  0
 21 31  1  0
 22 54  1  0
 22 55  1  0
 22 56  1  0
 23 24  1  0
 23 57  1  0
 23 58  1  0
 24 25  1  6
 24 28  1  0
 25 26  2  0
 25 27  1  0
 28 29  1  0
 28 30  1  0
 29 59  1  0
 29 60  1  0
 29 61  1  0
 30 62  1  0
 30 63  1  0
 30 64  1  0
 31 32  1  6
 32 65  1  0
 32 66  1  0
 32 67  1  0
M  CHG  1  27  -1
M  END
>  <i_m_ct_stereo_status>  (221) 
1

>  <s_m_source_file>  (221) 
/var/tmp/pbs.5076255.sched01/tmptpdlle0r/921kky2sk3.sdf

>  <i_m_source_file_index>  (221) 
4

>  <i_lp_mmshare_version>  (221) 
48012

>  <i_f3d_flags>  (221) 
0

>  <s_epik_input>  (221) 
W0NAQF0xMjNbQ0BASF00W0NAQEhdNUMoW0NIM10pKFtDSDNdKVtDSDJdW0NIMl1bQ0BAXShbQ0gzXSkoW0NASF0oW0NIMl00KU9DNT1PKVtDQEBdMyhbQ0gzXSlbQ0BdNihbQ0gzXSlbQ0gyXVtDQEhdKEMoTzEpPU8pQyhbQ0gzXSkoW0NIM10pW0NAXTIoW0NIMl02KUMoPU8pW09IXQ==

>  <s_epik_cmdline>  (221) 
J2VwaWtfcHl0aG9uJywgJy1waHQnLCAnMi4wJywgJy1waCcsICc3LjAnLCAnLXRuJywgJzgnLCAnLW1hJywgJzIwMCcsICctaW1hZScsICc8aW5maWxlLm1hZT4nLCAnLW9tYWUnLCAnPG91dGZpbGUubWFlPic=

>  <r_epik_Ionization_Penalty>  (221) 
0.000637855

>  <r_epik_Ionization_Penalty_Charging>  (221) 
0.000637855

>  <r_epik_Ionization_Penalty_Neutral>  (221) 
0

>  <r_epik_State_Penalty>  (221) 
0.000403397

>  <r_epik_Charging_Adjusted_Penalty>  (221) 
0.00104125

>  <i_epik_Tot_Q>  (221) 
-1

>  <i_epik_Tot_abs_Q>  (221) 
1

>  <s_epik_Chemistry_Notes>  (221) 
This compound has an ester and may undergo hydrolysis at high or low pH.

>  <s_lp_Force_Field>  (221) 
OPLS3e

>  <r_lp_Energy>  (221) 
183.586

>  <b_lp_Chiralities_Consistent>  (221) 
1

>  <s_lp_Variant>  (221) 
56:0-1

>  <s_i_glide_gridfile>  (221) 
pfpi4k_grid

>  <i_i_glide_lignum>  (221) 
4

>  <i_i_glide_rotatable_bonds>  (221) 
1

>  <r_i_docking_score>  (221) 
-2.41751

>  <r_i_glide_ligand_efficiency>  (221) 
-0.0755472

>  <r_i_glide_ligand_efficiency_sa>  (221) 
-0.239848

>  <r_i_glide_ligand_efficiency_ln>  (221) 
-0.541347

>  <r_i_glide_gscore>  (221) 
-2.41751

>  <r_i_glide_lipo>  (221) 
-0.758344

>  <r_i_glide_hbond>  (221) 
-0.196907

>  <r_i_glide_metal>  (221) 
-0

>  <r_i_glide_rewards>  (221) 
-0.385178

>  <r_i_glide_evdw>  (221) 
-14.531

>  <r_i_glide_ecoul>  (221) 
-1.87089

>  <r_i_glide_erotb>  (221) 
0

>  <r_i_glide_esite>  (221) 
-0.0699005

>  <r_i_glide_emodel>  (221) 
-19.4396

>  <r_i_glide_energy>  (221) 
-16.4019

>  <r_i_glide_einternal>  (221) 
0.0452533

>  <r_i_glide_intrahb_reward>  (221) 
-0

>  <i_i_glide_confnum>  (221) 
1

>  <i_i_glide_posenum>  (221) 
12

>  <r_i_glide_eff_state_penalty>  (221) 
0

>  <ligand_id>  (221) 
56

>  <original_smiles>  (221) 
CC1(C)CCC2(C)C3CC(C1C(=O)O3)C13OC(=O)C4CC(C)(CC1(C(=O)O)C4(C)C)C23C

>  <smiles>  (221) 
[H]C([H])([H])C1(C([H])([H])[H])C([H])([H])C([H])([H])C2(C([H])([H])[H])C3([H])OC(=O)C1([H])C([H])(C3([H])[H])C13OC(=O)C4([H])C([H])([H])C(C([H])([H])[H])(C([H])([H])C1(C(=O)[O-])C4(C([H])([H])[H])C([H])([H])[H])C32C([H])([H])[H]

$$$$
56:0:1
     RDKit          3D

 67 72  0  0  1  0  0  0  0  0999 V2000
    1.7180   -8.4419    2.9122 C   0  0  0  0  0  0  0  0  0  0  0  0
    2.2430   -6.9804    2.7309 C   0  0  0  0  0  0  0  0  0  0  0  0
    1.5799   -6.6117    1.3814 C   0  0  0  0  0  0  0  0  0  0  0  0
    1.6768   -6.1567    3.9381 C   0  0  0  0  0  0  0  0  0  0  0  0
    2.4856   -5.0570    4.7325 C   0  0  0  0  0  0  0  0  0  0  0  0
    3.7997   -4.2933    4.2317 C   0  0  1  0  0  0  0  0  0  0  0  0
    4.0197   -3.2745    5.3829 C   0  0  0  0  0  0  0  0  0  0  0  0
    5.0411   -5.2716    4.4268 C   0  0  2  0  0  0  0  0  0  0  0  0
    5.8370   -5.5468    3.1800 C   0  0  0  0  0  0  0  0  0  0  0  0
    4.7553   -5.8318    2.1198 C   0  0  1  0  0  0  0  0  0  0  0  0
    3.8142   -7.0153    2.6914 C   0  0  1  0  0  0  0  0  0  0  0  0
    4.3325   -7.5442    4.0737 C   0  0  0  0  0  0  0  0  0  0  0  0
    4.3525   -8.7508    4.3238 O   0  0  0  0  0  0  0  0  0  0  0  0
    4.7265   -6.5729    4.9090 O   0  0  0  0  0  0  0  0  0  0  0  0
    4.3119   -4.3983    1.5824 C   0  0  2  0  0  0  0  0  0  0  0  0
    3.3712   -4.5967    0.5379 O   0  0  0  0  0  0  0  0  0  0  0  0
    2.8912   -3.6164   -0.2377 C   0  0  0  0  0  0  0  0  0  0  0  0
    1.9016   -3.7000   -0.9630 O   0  0  0  0  0  0  0  0  0  0  0  0
    3.7465   -2.3321   -0.2256 C   0  0  1  0  0  0  0  0  0  0  0  0
    3.6298   -1.4679    1.0671 C   0  0  0  0  0  0  0  0  0  0  0  0
    4.2197   -2.0997    2.4000 C   0  0  2  0  0  0  0  0  0  0  0  0
    4.1195   -0.9587    3.4479 C   0  0  0  0  0  0  0  0  0  0  0  0
    5.6727   -2.4037    2.0571 C   0  0  0  0  0  0  0  0  0  0  0  0
    5.5555   -3.4853    0.9523 C   0  0  1  0  0  0  0  0  0  0  0  0
    6.9732   -4.1370    0.7211 C   0  0  0  0  0  0  0  0  0  0  0  0
    7.0772   -5.3151    0.3656 O   0  0  0  0  0  0  0  0  0  0  0  0
    7.9722   -3.3940    0.8757 O   0  0  0  0  0  0  0  0  0  0  0  0
    5.1919   -2.7686   -0.4212 C   0  0  0  0  0  0  0  0  0  0  0  0
    5.3386   -3.6741   -1.6944 C   0  0  0  0  0  0  0  0  0  0  0  0
    6.0757   -1.5441   -0.7932 C   0  0  0  0  0  0  0  0  0  0  0  0
    3.6010   -3.5313    2.7670 C   0  0  2  0  0  0  0  0  0  0  0  0
    2.0566   -3.2323    2.7083 C   0  0  0  0  0  0  0  0  0  0  0  0
    0.6289   -8.4978    2.8619 H   0  0  0  0  0  0  0  0  0  0  0  0
    1.9618   -8.8949    3.8724 H   0  0  0  0  0  0  0  0  0  0  0  0
    2.1034   -9.1089    2.1360 H   0  0  0  0  0  0  0  0  0  0  0  0
    1.3600   -5.5619    1.2728 H   0  0  0  0  0  0  0  0  0  0  0  0
    0.6143   -7.0956    1.2312 H   0  0  0  0  0  0  0  0  0  0  0  0
    2.2045   -6.9084    0.5402 H   0  0  0  0  0  0  0  0  0  0  0  0
    0.6990   -5.7666    3.6578 H   0  0  0  0  0  0  0  0  0  0  0  0
    1.3844   -6.8692    4.7115 H   0  0  0  0  0  0  0  0  0  0  0  0
    1.7470   -4.3271    5.0581 H   0  0  0  0  0  0  0  0  0  0  0  0
    2.7255   -5.5206    5.6930 H   0  0  0  0  0  0  0  0  0  0  0  0
    5.0032   -2.8046    5.3140 H   0  0  0  0  0  0  0  0  0  0  0  0
    4.0243   -3.7760    6.3550 H   0  0  0  0  0  0  0  0  0  0  0  0
    3.2498   -2.5080    5.4408 H   0  0  0  0  0  0  0  0  0  0  0  0
    5.7394   -4.8483    5.1533 H   0  0  0  0  0  0  0  0  0  0  0  0
    6.5152   -4.7274    3.0348 H   0  0  0  0  0  0  0  0  0  0  0  0
    6.5290   -6.3862    3.2920 H   0  0  0  0  0  0  0  0  0  0  0  0
    5.1946   -6.3403    1.2662 H   0  0  0  0  0  0  0  0  0  0  0  0
    4.0423   -7.8403    2.0184 H   0  0  0  0  0  0  0  0  0  0  0  0
    3.4328   -1.7317   -1.0770 H   0  0  0  0  0  0  0  0  0  0  0  0
    4.1514   -0.5332    0.8694 H   0  0  0  0  0  0  0  0  0  0  0  0
    2.6127   -1.0883    1.1747 H   0  0  0  0  0  0  0  0  0  0  0  0
    4.8537   -1.0401    4.2450 H   0  0  0  0  0  0  0  0  0  0  0  0
    3.1251   -0.8830    3.8857 H   0  0  0  0  0  0  0  0  0  0  0  0
    4.3226    0.0163    3.0020 H   0  0  0  0  0  0  0  0  0  0  0  0
    6.2350   -1.5195    1.7804 H   0  0  0  0  0  0  0  0  0  0  0  0
    6.1672   -2.7405    2.9546 H   0  0  0  0  0  0  0  0  0  0  0  0
    6.3728   -3.7687   -2.0244 H   0  0  0  0  0  0  0  0  0  0  0  0
    4.7883   -3.2448   -2.5388 H   0  0  0  0  0  0  0  0  0  0  0  0
    4.9691   -4.6902   -1.5532 H   0  0  0  0  0  0  0  0  0  0  0  0
    7.1228   -1.8237   -0.8810 H   0  0  0  0  0  0  0  0  0  0  0  0
    6.0283   -0.6977   -0.1085 H   0  0  0  0  0  0  0  0  0  0  0  0
    5.7808   -1.1354   -1.7628 H   0  0  0  0  0  0  0  0  0  0  0  0
    1.6652   -2.7019    1.8526 H   0  0  0  0  0  0  0  0  0  0  0  0
    1.7317   -2.6400    3.5625 H   0  0  0  0  0  0  0  0  0  0  0  0
    1.4236   -4.0941    2.6816 H   0  0  0  0  0  0  0  0  0  0  0  0
  1  2  1  0
  1 33  1  0
  1 34  1  0
  1 35  1  0
  2 11  1  0
  2  3  1  0
  2  4  1  0
  3 36  1  0
  3 37  1  0
  3 38  1  0
  4  5  1  0
  4 39  1  0
  4 40  1  0
  5  6  1  0
  5 41  1  0
  5 42  1  0
  6 31  1  0
  6  7  1  1
  6  8  1  0
  7 43  1  0
  7 44  1  0
  7 45  1  0
  8 14  1  0
  8  9  1  0
  8 46  1  1
  9 10  1  0
  9 47  1  0
  9 48  1  0
 10 11  1  0
 10 15  1  0
 10 49  1  6
 11 12  1  0
 11 50  1  6
 12 13  2  0
 12 14  1  0
 15 24  1  0
 15 31  1  0
 15 16  1  6
 16 17  1  0
 17 18  2  0
 17 19  1  0
 19 28  1  0
 19 20  1  0
 19 51  1  6
 20 21  1  0
 20 52  1  0
 20 53  1  0
 21 22  1  1
 21 23  1  0
 21 31  1  0
 22 54  1  0
 22 55  1  0
 22 56  1  0
 23 24  1  0
 23 57  1  0
 23 58  1  0
 24 25  1  6
 24 28  1  0
 25 26  2  0
 25 27  1  0
 28 29  1  0
 28 30  1  0
 29 59  1  0
 29 60  1  0
 29 61  1  0
 30 62  1  0
 30 63  1  0
 30 64  1  0
 31 32  1  6
 32 65  1  0
 32 66  1  0
 32 67  1  0
M  CHG  1  27  -1
M  END
>  <i_m_ct_stereo_status>  (222) 
1

>  <s_m_source_file>  (222) 
/var/tmp/pbs.5076255.sched01/tmptpdlle0r/921kky2sk3.sdf

>  <i_m_source_file_index>  (222) 
4

>  <i_lp_mmshare_version>  (222) 
48012

>  <i_f3d_flags>  (222) 
0

>  <s_epik_input>  (222) 
W0NAQF0xMjNbQ0BASF00W0NAQEhdNUMoW0NIM10pKFtDSDNdKVtDSDJdW0NIMl1bQ0BAXShbQ0gzXSkoW0NASF0oW0NIMl00KU9DNT1PKVtDQEBdMyhbQ0gzXSlbQ0BdNihbQ0gzXSlbQ0gyXVtDQEhdKEMoTzEpPU8pQyhbQ0gzXSkoW0NIM10pW0NAXTIoW0NIMl02KUMoPU8pW09IXQ==

>  <s_epik_cmdline>  (222) 
J2VwaWtfcHl0aG9uJywgJy1waHQnLCAnMi4wJywgJy1waCcsICc3LjAnLCAnLXRuJywgJzgnLCAnLW1hJywgJzIwMCcsICctaW1hZScsICc8aW5maWxlLm1hZT4nLCAnLW9tYWUnLCAnPG91dGZpbGUubWFlPic=

>  <r_epik_Ionization_Penalty>  (222) 
0.000637855

>  <r_epik_Ionization_Penalty_Charging>  (222) 
0.000637855

>  <r_epik_Ionization_Penalty_Neutral>  (222) 
0

>  <r_epik_State_Penalty>  (222) 
0.000403397

>  <r_epik_Charging_Adjusted_Penalty>  (222) 
0.00104125

>  <i_epik_Tot_Q>  (222) 
-1

>  <i_epik_Tot_abs_Q>  (222) 
1

>  <s_epik_Chemistry_Notes>  (222) 
This compound has an ester and may undergo hydrolysis at high or low pH.

>  <s_lp_Force_Field>  (222) 
OPLS3e

>  <r_lp_Energy>  (222) 
183.586

>  <b_lp_Chiralities_Consistent>  (222) 
1

>  <s_lp_Variant>  (222) 
56:0-1

>  <s_i_glide_gridfile>  (222) 
pfpi4k_grid

>  <i_i_glide_lignum>  (222) 
4

>  <i_i_glide_rotatable_bonds>  (222) 
1

>  <r_i_docking_score>  (222) 
-1.88425

>  <r_i_glide_ligand_efficiency>  (222) 
-0.0588827

>  <r_i_glide_ligand_efficiency_sa>  (222) 
-0.186941

>  <r_i_glide_ligand_efficiency_ln>  (222) 
-0.421934

>  <r_i_glide_gscore>  (222) 
-1.88425

>  <r_i_glide_lipo>  (222) 
-0.220745

>  <r_i_glide_hbond>  (222) 
-0.0161948

>  <r_i_glide_metal>  (222) 
-0

>  <r_i_glide_rewards>  (222) 
-0.55188

>  <r_i_glide_evdw>  (222) 
-24.653

>  <r_i_glide_ecoul>  (222) 
1.01728

>  <r_i_glide_erotb>  (222) 
0

>  <r_i_glide_esite>  (222) 
-0.0153697

>  <r_i_glide_emodel>  (222) 
-25.2396

>  <r_i_glide_energy>  (222) 
-23.6357

>  <r_i_glide_einternal>  (222) 
1.53795

>  <r_i_glide_intrahb_reward>  (222) 
-0

>  <i_i_glide_confnum>  (222) 
1

>  <i_i_glide_posenum>  (222) 
21

>  <r_i_glide_eff_state_penalty>  (222) 
0

>  <ligand_id>  (222) 
56

>  <original_smiles>  (222) 
CC1(C)CCC2(C)C3CC(C1C(=O)O3)C13OC(=O)C4CC(C)(CC1(C(=O)O)C4(C)C)C23C

>  <smiles>  (222) 
[H]C([H])([H])C1(C([H])([H])[H])C([H])([H])C([H])([H])C2(C([H])([H])[H])C3([H])OC(=O)C1([H])C([H])(C3([H])[H])C13OC(=O)C4([H])C([H])([H])C(C([H])([H])[H])(C([H])([H])C1(C(=O)[O-])C4(C([H])([H])[H])C([H])([H])[H])C32C([H])([H])[H]

$$$$
56:0:2
     RDKit          3D

 67 72  0  0  1  0  0  0  0  0999 V2000
    3.3304   -8.4189    1.6577 C   0  0  0  0  0  0  0  0  0  0  0  0
    3.4979   -6.8598    1.5609 C   0  0  0  0  0  0  0  0  0  0  0  0
    2.3162   -6.4489    0.6912 C   0  0  0  0  0  0  0  0  0  0  0  0
    3.2829   -6.2912    2.9835 C   0  0  0  0  0  0  0  0  0  0  0  0
    4.0985   -5.0970    3.5735 C   0  0  0  0  0  0  0  0  0  0  0  0
    4.9422   -4.0442    2.7503 C   0  0  1  0  0  0  0  0  0  0  0  0
    5.4321   -3.0890    3.8714 C   0  0  0  0  0  0  0  0  0  0  0  0
    6.2458   -4.8162    2.3091 C   0  0  2  0  0  0  0  0  0  0  0  0
    6.6797   -4.7722    0.8711 C   0  0  0  0  0  0  0  0  0  0  0  0
    5.3854   -5.1847    0.1889 C   0  0  1  0  0  0  0  0  0  0  0  0
    4.9076   -6.5880    0.8903 C   0  0  1  0  0  0  0  0  0  0  0  0
    5.9624   -7.1283    1.9099 C   0  0  0  0  0  0  0  0  0  0  0  0
    6.3240   -8.3039    1.9805 O   0  0  0  0  0  0  0  0  0  0  0  0
    6.4282   -6.1709    2.7000 O   0  0  0  0  0  0  0  0  0  0  0  0
    4.5606   -3.8411    0.1142 C   0  0  2  0  0  0  0  0  0  0  0  0
    3.3835   -4.1980   -0.5549 O   0  0  0  0  0  0  0  0  0  0  0  0
    2.4770   -3.3079   -0.9904 C   0  0  0  0  0  0  0  0  0  0  0  0
    1.4012   -3.5908   -1.4685 O   0  0  0  0  0  0  0  0  0  0  0  0
    3.0205   -1.8678   -1.0818 C   0  0  1  0  0  0  0  0  0  0  0  0
    3.2471   -1.1225    0.2895 C   0  0  0  0  0  0  0  0  0  0  0  0
    4.3643   -1.6893    1.2321 C   0  0  2  0  0  0  0  0  0  0  0  0
    4.4489   -0.6597    2.3972 C   0  0  0  0  0  0  0  0  0  0  0  0
    5.6140   -1.6462    0.3697 C   0  0  0  0  0  0  0  0  0  0  0  0
    5.3092   -2.6582   -0.7796 C   0  0  1  0  0  0  0  0  0  0  0  0
    6.6423   -2.9250   -1.5599 C   0  0  0  0  0  0  0  0  0  0  0  0
    7.7033   -2.3968   -1.1193 O   0  0  0  0  0  0  0  0  0  0  0  0
    6.5759   -3.5219   -2.6405 O   0  0  0  0  0  0  0  0  0  0  0  0
    4.3121   -1.9691   -1.8329 C   0  0  0  0  0  0  0  0  0  0  0  0
    4.0593   -2.6788   -3.2357 C   0  0  0  0  0  0  0  0  0  0  0  0
    4.7512   -0.5386   -2.2655 C   0  0  0  0  0  0  0  0  0  0  0  0
    4.1461   -3.2392    1.5720 C   0  0  2  0  0  0  0  0  0  0  0  0
    2.6504   -3.2576    2.0777 C   0  0  0  0  0  0  0  0  0  0  0  0
    2.3272   -8.7040    1.9684 H   0  0  0  0  0  0  0  0  0  0  0  0
    3.9863   -8.8910    2.3897 H   0  0  0  0  0  0  0  0  0  0  0  0
    3.5155   -8.9238    0.7049 H   0  0  0  0  0  0  0  0  0  0  0  0
    1.8546   -5.4815    0.7729 H   0  0  0  0  0  0  0  0  0  0  0  0
    1.5003   -7.1765    0.6754 H   0  0  0  0  0  0  0  0  0  0  0  0
    2.7844   -6.4264   -0.2833 H   0  0  0  0  0  0  0  0  0  0  0  0
    2.2192   -6.0852    3.0910 H   0  0  0  0  0  0  0  0  0  0  0  0
    3.4170   -7.1104    3.6876 H   0  0  0  0  0  0  0  0  0  0  0  0
    3.4193   -4.5683    4.2346 H   0  0  0  0  0  0  0  0  0  0  0  0
    4.7703   -5.5618    4.2931 H   0  0  0  0  0  0  0  0  0  0  0  0
    6.1668   -2.4257    3.5017 H   0  0  0  0  0  0  0  0  0  0  0  0
    5.8592   -3.6290    4.6961 H   0  0  0  0  0  0  0  0  0  0  0  0
    4.5992   -2.5191    4.3137 H   0  0  0  0  0  0  0  0  0  0  0  0
    6.9933   -4.3035    2.7944 H   0  0  0  0  0  0  0  0  0  0  0  0
    7.1015   -3.7972    0.7234 H   0  0  0  0  0  0  0  0  0  0  0  0
    7.5097   -5.4444    0.6217 H   0  0  0  0  0  0  0  0  0  0  0  0
    5.6015   -5.4393   -0.8493 H   0  0  0  0  0  0  0  0  0  0  0  0
    5.0024   -7.2973    0.0754 H   0  0  0  0  0  0  0  0  0  0  0  0
    2.4169   -1.2854   -1.8037 H   0  0  0  0  0  0  0  0  0  0  0  0
    3.4843   -0.0869    0.0829 H   0  0  0  0  0  0  0  0  0  0  0  0
    2.3066   -0.9704    0.8046 H   0  0  0  0  0  0  0  0  0  0  0  0
    5.4273   -0.6241    2.8711 H   0  0  0  0  0  0  0  0  0  0  0  0
    3.6833   -0.8264    3.1545 H   0  0  0  0  0  0  0  0  0  0  0  0
    4.2940    0.3623    2.0499 H   0  0  0  0  0  0  0  0  0  0  0  0
    5.8740   -0.6361    0.0482 H   0  0  0  0  0  0  0  0  0  0  0  0
    6.4597   -1.9220    0.9953 H   0  0  0  0  0  0  0  0  0  0  0  0
    4.8669   -2.4786   -3.9481 H   0  0  0  0  0  0  0  0  0  0  0  0
    3.1552   -2.3013   -3.7288 H   0  0  0  0  0  0  0  0  0  0  0  0
    3.9790   -3.7680   -3.1410 H   0  0  0  0  0  0  0  0  0  0  0  0
    5.7670   -0.5697   -2.6660 H   0  0  0  0  0  0  0  0  0  0  0  0
    4.6970    0.1860   -1.4670 H   0  0  0  0  0  0  0  0  0  0  0  0
    4.1099   -0.1387   -3.0616 H   0  0  0  0  0  0  0  0  0  0  0  0
    1.8891   -2.7722    1.4881 H   0  0  0  0  0  0  0  0  0  0  0  0
    2.5767   -2.8115    3.0665 H   0  0  0  0  0  0  0  0  0  0  0  0
    2.2212   -4.2219    2.1825 H   0  0  0  0  0  0  0  0  0  0  0  0
  1  2  1  0
  1 33  1  0
  1 34  1  0
  1 35  1  0
  2 11  1  0
  2  3  1  0
  2  4  1  0
  3 36  1  0
  3 37  1  0
  3 38  1  0
  4  5  1  0
  4 39  1  0
  4 40  1  0
  5  6  1  0
  5 41  1  0
  5 42  1  0
  6 31  1  0
  6  7  1  1
  6  8  1  0
  7 43  1  0
  7 44  1  0
  7 45  1  0
  8 14  1  0
  8  9  1  0
  8 46  1  1
  9 10  1  0
  9 47  1  0
  9 48  1  0
 10 11  1  0
 10 15  1  0
 10 49  1  6
 11 12  1  0
 11 50  1  6
 12 13  2  0
 12 14  1  0
 15 24  1  0
 15 31  1  0
 15 16  1  6
 16 17  1  0
 17 18  2  0
 17 19  1  0
 19 28  1  0
 19 20  1  0
 19 51  1  6
 20 21  1  0
 20 52  1  0
 20 53  1  0
 21 22  1  1
 21 23  1  0
 21 31  1  0
 22 54  1  0
 22 55  1  0
 22 56  1  0
 23 24  1  0
 23 57  1  0
 23 58  1  0
 24 25  1  6
 24 28  1  0
 25 26  2  0
 25 27  1  0
 28 29  1  0
 28 30  1  0
 29 59  1  0
 29 60  1  0
 29 61  1  0
 30 62  1  0
 30 63  1  0
 30 64  1  0
 31 32  1  1
 32 65  1  0
 32 66  1  0
 32 67  1  0
M  CHG  1  27  -1
M  END
>  <i_m_ct_stereo_status>  (223) 
1

>  <s_m_source_file>  (223) 
/var/tmp/pbs.5076255.sched01/tmptpdlle0r/921kky2sk3.sdf

>  <i_m_source_file_index>  (223) 
4

>  <i_lp_mmshare_version>  (223) 
48012

>  <i_f3d_flags>  (223) 
0

>  <s_epik_input>  (223) 
W0NAQF0xMjNbQ0BASF00W0NAQEhdNUMoW0NIM10pKFtDSDNdKVtDSDJdW0NIMl1bQ0BAXShbQ0gzXSkoW0NASF0oW0NIMl00KU9DNT1PKVtDQEBdMyhbQ0gzXSlbQ0BdNihbQ0gzXSlbQ0gyXVtDQEhdKEMoTzEpPU8pQyhbQ0gzXSkoW0NIM10pW0NAXTIoW0NIMl02KUMoPU8pW09IXQ==

>  <s_epik_cmdline>  (223) 
J2VwaWtfcHl0aG9uJywgJy1waHQnLCAnMi4wJywgJy1waCcsICc3LjAnLCAnLXRuJywgJzgnLCAnLW1hJywgJzIwMCcsICctaW1hZScsICc8aW5maWxlLm1hZT4nLCAnLW9tYWUnLCAnPG91dGZpbGUubWFlPic=

>  <r_epik_Ionization_Penalty>  (223) 
0.000637855

>  <r_epik_Ionization_Penalty_Charging>  (223) 
0.000637855

>  <r_epik_Ionization_Penalty_Neutral>  (223) 
0

>  <r_epik_State_Penalty>  (223) 
0.000403397

>  <r_epik_Charging_Adjusted_Penalty>  (223) 
0.00104125

>  <i_epik_Tot_Q>  (223) 
-1

>  <i_epik_Tot_abs_Q>  (223) 
1

>  <s_epik_Chemistry_Notes>  (223) 
This compound has an ester and may undergo hydrolysis at high or low pH.

>  <s_lp_Force_Field>  (223) 
OPLS3e

>  <r_lp_Energy>  (223) 
183.586

>  <b_lp_Chiralities_Consistent>  (223) 
1

>  <s_lp_Variant>  (223) 
56:0-1

>  <s_i_glide_gridfile>  (223) 
pfpi4k_grid

>  <i_i_glide_lignum>  (223) 
4

>  <i_i_glide_rotatable_bonds>  (223) 
1

>  <r_i_docking_score>  (223) 
-1.61418

>  <r_i_glide_ligand_efficiency>  (223) 
-0.0504433

>  <r_i_glide_ligand_efficiency_sa>  (223) 
-0.160147

>  <r_i_glide_ligand_efficiency_ln>  (223) 
-0.36146

>  <r_i_glide_gscore>  (223) 
-1.61418

>  <r_i_glide_lipo>  (223) 
-0.755563

>  <r_i_glide_hbond>  (223) 
-0.241767

>  <r_i_glide_metal>  (223) 
-0

>  <r_i_glide_rewards>  (223) 
-0.466919

>  <r_i_glide_evdw>  (223) 
-3.59139

>  <r_i_glide_ecoul>  (223) 
0.278166

>  <r_i_glide_erotb>  (223) 
0

>  <r_i_glide_esite>  (223) 
-0.0120903

>  <r_i_glide_emodel>  (223) 
-1.05953

>  <r_i_glide_energy>  (223) 
-3.31322

>  <r_i_glide_einternal>  (223) 
2.41183

>  <r_i_glide_intrahb_reward>  (223) 
-0

>  <i_i_glide_confnum>  (223) 
1

>  <i_i_glide_posenum>  (223) 
2

>  <r_i_glide_eff_state_penalty>  (223) 
0

>  <ligand_id>  (223) 
56

>  <original_smiles>  (223) 
CC1(C)CCC2(C)C3CC(C1C(=O)O3)C13OC(=O)C4CC(C)(CC1(C(=O)O)C4(C)C)C23C

>  <smiles>  (223) 
[H]C([H])([H])C1(C([H])([H])[H])C([H])([H])C([H])([H])C2(C([H])([H])[H])C3([H])OC(=O)C1([H])C([H])(C3([H])[H])C13OC(=O)C4([H])C([H])([H])C(C([H])([H])[H])(C([H])([H])C1(C(=O)[O-])C4(C([H])([H])[H])C([H])([H])[H])C32C([H])([H])[H]

$$$$
57:0:0
     RDKit          3D

 39 42  0  0  1  0  0  0  0  0999 V2000
    3.1617   -0.0245    2.3453 C   0  0  0  0  0  0  0  0  0  0  0  0
    3.3985   -0.6182    1.1338 C   0  0  0  0  0  0  0  0  0  0  0  0
    4.6412   -1.0700    0.8409 N   0  0  0  0  0  0  0  0  0  0  0  0
    5.1315   -1.6798   -0.2824 C   0  0  0  0  0  0  0  0  0  0  0  0
    4.2993   -1.9397   -1.4971 C   0  0  0  0  0  0  0  0  0  0  0  0
    4.5901   -3.2765   -2.2064 C   0  0  0  0  0  0  0  0  0  0  0  0
    3.6529   -3.4363   -3.4302 C   0  0  0  0  0  0  0  0  0  0  0  0
    3.8185   -2.3353   -4.3172 O   0  0  0  0  0  0  0  0  0  0  0  0
    3.4463   -1.1059   -3.7126 C   0  0  0  0  0  0  0  0  0  0  0  0
    4.3805   -0.8080   -2.5355 C   0  0  0  0  0  0  0  0  0  0  0  0
    6.4435   -1.8676   -0.1451 N   0  0  0  0  0  0  0  0  0  0  0  0
    6.8137   -1.4570    1.1280 N   0  0  0  0  0  0  0  0  0  0  0  0
    5.7279   -0.9583    1.7324 C   0  0  0  0  0  0  0  0  0  0  0  0
    5.4633   -0.3422    2.9974 C   0  0  0  0  0  0  0  0  0  0  0  0
    4.2001    0.1279    3.2992 C   0  0  0  0  0  0  0  0  0  0  0  0
    3.9779    0.7592    4.5122 O   0  0  0  0  0  0  0  0  0  0  0  0
    2.7210    1.3989    4.7230 C   0  0  0  0  0  0  0  0  0  0  0  0
    2.5752    2.7101    3.9494 C   0  0  0  0  0  0  0  0  0  0  0  0
    1.9470    3.3230    5.1983 C   0  0  0  0  0  0  0  0  0  0  0  0
    2.5998    2.2028    6.0188 C   0  0  0  0  0  0  0  0  0  0  0  0
    2.1416    0.3213    2.4933 H   0  0  0  0  0  0  0  0  0  0  0  0
    2.6236   -0.7228    0.3938 H   0  0  0  0  0  0  0  0  0  0  0  0
    3.2544   -1.9993   -1.1580 H   0  0  0  0  0  0  0  0  0  0  0  0
    5.6291   -3.3539   -2.5415 H   0  0  0  0  0  0  0  0  0  0  0  0
    4.4130   -4.0960   -1.5092 H   0  0  0  0  0  0  0  0  0  0  0  0
    3.8724   -4.3641   -3.9605 H   0  0  0  0  0  0  0  0  0  0  0  0
    2.6188   -3.5060   -3.0858 H   0  0  0  0  0  0  0  0  0  0  0  0
    3.5076   -0.3145   -4.4582 H   0  0  0  0  0  0  0  0  0  0  0  0
    2.4099   -1.1385   -3.3586 H   0  0  0  0  0  0  0  0  0  0  0  0
    4.1666    0.1447   -2.0806 H   0  0  0  0  0  0  0  0  0  0  0  0
    5.3916   -0.7289   -2.8996 H   0  0  0  0  0  0  0  0  0  0  0  0
    6.2675   -0.2014    3.7179 H   0  0  0  0  0  0  0  0  0  0  0  0
    1.8772    0.7221    4.6397 H   0  0  0  0  0  0  0  0  0  0  0  0
    3.5340    3.1621    3.6904 H   0  0  0  0  0  0  0  0  0  0  0  0
    1.9113    2.6679    3.0848 H   0  0  0  0  0  0  0  0  0  0  0  0
    2.3033    4.3196    5.4324 H   0  0  0  0  0  0  0  0  0  0  0  0
    0.8557    3.2752    5.1812 H   0  0  0  0  0  0  0  0  0  0  0  0
    1.9345    1.7503    6.7605 H   0  0  0  0  0  0  0  0  0  0  0  0
    3.5660    2.4787    6.4464 H   0  0  0  0  0  0  0  0  0  0  0  0
  1 15  1  0
  1  2  2  0
  1 21  1  0
  2  3  1  0
  2 22  1  0
  3 13  1  0
  3  4  1  0
  4  5  1  0
  4 11  2  0
  5 10  1  0
  5  6  1  0
  5 23  1  0
  6  7  1  0
  6 24  1  0
  6 25  1  0
  7  8  1  0
  7 26  1  0
  7 27  1  0
  8  9  1  0
  9 10  1  0
  9 28  1  0
  9 29  1  0
 10 30  1  0
 10 31  1  0
 11 12  1  0
 12 13  2  0
 13 14  1  0
 14 15  2  0
 14 32  1  0
 15 16  1  0
 16 17  1  0
 17 20  1  0
 17 18  1  0
 17 33  1  0
 18 19  1  0
 18 34  1  0
 18 35  1  0
 19 20  1  0
 19 36  1  0
 19 37  1  0
 20 38  1  0
 20 39  1  0
M  END
>  <i_m_ct_stereo_status>  (224) 
1

>  <s_m_source_file>  (224) 
/var/tmp/pbs.5076255.sched01/tmptpdlle0r/921kky2sk3.sdf

>  <i_m_source_file_index>  (224) 
5

>  <i_lp_mmshare_version>  (224) 
48012

>  <i_f3d_flags>  (224) 
0

>  <s_epik_input>  (224) 
W0NIMl0xW0NIMl1bQ0gyXVtDSF0xT2MoW2NIXVtjSF0yKVtjSF1jKG4yMylubmMzW0NIXTRbQ0gyXVtDSDJdT1tDSDJdW0NIMl00

>  <s_epik_cmdline>  (224) 
J2VwaWtfcHl0aG9uJywgJy1waHQnLCAnMi4wJywgJy1waCcsICc3LjAnLCAnLXRuJywgJzgnLCAnLW1hJywgJzIwMCcsICctaW1hZScsICc8aW5maWxlLm1hZT4nLCAnLW9tYWUnLCAnPG91dGZpbGUubWFlPic=

>  <r_epik_Ionization_Penalty>  (224) 
0.00438009

>  <r_epik_Ionization_Penalty_Charging>  (224) 
0

>  <r_epik_Ionization_Penalty_Neutral>  (224) 
0.00438009

>  <r_epik_State_Penalty>  (224) 
0.00300894

>  <r_epik_Charging_Adjusted_Penalty>  (224) 
0.00300894

>  <i_epik_Tot_Q>  (224) 
0

>  <i_epik_Tot_abs_Q>  (224) 
0

>  <s_lp_Force_Field>  (224) 
OPLS3e

>  <r_lp_Energy>  (224) 
27.2752

>  <b_lp_Chiralities_Consistent>  (224) 
1

>  <s_lp_Variant>  (224) 
57:0-1

>  <s_i_glide_gridfile>  (224) 
pfpi4k_grid

>  <i_i_glide_lignum>  (224) 
5

>  <i_i_glide_rotatable_bonds>  (224) 
3

>  <r_i_docking_score>  (224) 
-4.06495

>  <r_i_glide_ligand_efficiency>  (224) 
-0.203247

>  <r_i_glide_ligand_efficiency_sa>  (224) 
-0.551698

>  <r_i_glide_ligand_efficiency_ln>  (224) 
-1.01732

>  <r_i_glide_gscore>  (224) 
-4.06495

>  <r_i_glide_lipo>  (224) 
-0.516014

>  <r_i_glide_hbond>  (224) 
-0.32

>  <r_i_glide_metal>  (224) 
-0

>  <r_i_glide_rewards>  (224) 
-1.77295

>  <r_i_glide_evdw>  (224) 
-24.3031

>  <r_i_glide_ecoul>  (224) 
-6.15297

>  <r_i_glide_erotb>  (224) 
0.720288

>  <r_i_glide_esite>  (224) 
-0.038174

>  <r_i_glide_emodel>  (224) 
-36.483

>  <r_i_glide_energy>  (224) 
-30.4561

>  <r_i_glide_einternal>  (224) 
3.91136

>  <r_i_glide_intrahb_reward>  (224) 
-0

>  <i_i_glide_confnum>  (224) 
3

>  <i_i_glide_posenum>  (224) 
23

>  <r_i_glide_eff_state_penalty>  (224) 
0

>  <ligand_id>  (224) 
57

>  <original_smiles>  (224) 
c1cn2c(C3CCOCC3)nnc2cc1OC1CCC1

>  <smiles>  (224) 
[H]c1c(OC2([H])C([H])([H])C([H])([H])C2([H])[H])c([H])c2nnc(C3([H])C([H])([H])C([H])([H])OC([H])([H])C3([H])[H])n2c1[H]

$$$$
57:0:1
     RDKit          3D

 39 42  0  0  1  0  0  0  0  0999 V2000
    4.7182   -6.3836    1.2847 C   0  0  0  0  0  0  0  0  0  0  0  0
    3.8728   -7.2750    1.8959 C   0  0  0  0  0  0  0  0  0  0  0  0
    2.5211   -7.1726    1.6934 N   0  0  0  0  0  0  0  0  0  0  0  0
    1.4582   -7.9195    2.1351 C   0  0  0  0  0  0  0  0  0  0  0  0
    1.4888   -9.1515    3.0071 C   0  0  0  0  0  0  0  0  0  0  0  0
    1.5058   -8.8519    4.5146 C   0  0  0  0  0  0  0  0  0  0  0  0
    1.4803  -10.1669    5.3144 C   0  0  0  0  0  0  0  0  0  0  0  0
    2.5641  -10.9963    4.9058 O   0  0  0  0  0  0  0  0  0  0  0  0
    2.4557  -11.4216    3.5513 C   0  0  0  0  0  0  0  0  0  0  0  0
    2.5839  -10.1862    2.6634 C   0  0  0  0  0  0  0  0  0  0  0  0
    0.3306   -7.3631    1.6856 N   0  0  0  0  0  0  0  0  0  0  0  0
    0.6453   -6.2714    0.8917 N   0  0  0  0  0  0  0  0  0  0  0  0
    1.9713   -6.1456    0.9029 C   0  0  0  0  0  0  0  0  0  0  0  0
    2.8613   -5.2077    0.3009 C   0  0  0  0  0  0  0  0  0  0  0  0
    4.2222   -5.3359    0.4840 C   0  0  0  0  0  0  0  0  0  0  0  0
    5.1782   -4.4922   -0.0437 O   0  0  0  0  0  0  0  0  0  0  0  0
    4.7865   -3.5868   -1.0583 C   0  0  0  0  0  0  0  0  0  0  0  0
    5.9535   -2.6929   -1.5117 C   0  0  0  0  0  0  0  0  0  0  0  0
    4.9830   -1.5094   -1.4762 C   0  0  0  0  0  0  0  0  0  0  0  0
    4.0884   -2.3221   -0.5405 C   0  0  0  0  0  0  0  0  0  0  0  0
    5.7879   -6.4921    1.4372 H   0  0  0  0  0  0  0  0  0  0  0  0
    4.2739   -8.0450    2.5426 H   0  0  0  0  0  0  0  0  0  0  0  0
    0.5373   -9.6422    2.8060 H   0  0  0  0  0  0  0  0  0  0  0  0
    2.3805   -8.2608    4.7955 H   0  0  0  0  0  0  0  0  0  0  0  0
    0.6280   -8.2611    4.7805 H   0  0  0  0  0  0  0  0  0  0  0  0
    1.5588   -9.9731    6.3857 H   0  0  0  0  0  0  0  0  0  0  0  0
    0.5364  -10.6941    5.1635 H   0  0  0  0  0  0  0  0  0  0  0  0
    3.2874  -12.0934    3.3365 H   0  0  0  0  0  0  0  0  0  0  0  0
    1.5299  -11.9634    3.3633 H   0  0  0  0  0  0  0  0  0  0  0  0
    2.5379  -10.4468    1.6075 H   0  0  0  0  0  0  0  0  0  0  0  0
    3.5942   -9.8437    2.8615 H   0  0  0  0  0  0  0  0  0  0  0  0
    2.4307   -4.4217   -0.3066 H   0  0  0  0  0  0  0  0  0  0  0  0
    4.2831   -4.0622   -1.9033 H   0  0  0  0  0  0  0  0  0  0  0  0
    6.7458   -2.6172   -0.7632 H   0  0  0  0  0  0  0  0  0  0  0  0
    6.3508   -2.9374   -2.4987 H   0  0  0  0  0  0  0  0  0  0  0  0
    5.3831   -0.6014   -1.0318 H   0  0  0  0  0  0  0  0  0  0  0  0
    4.5116   -1.3240   -2.4408 H   0  0  0  0  0  0  0  0  0  0  0  0
    3.0249   -2.2636   -0.7705 H   0  0  0  0  0  0  0  0  0  0  0  0
    4.2852   -2.1333    0.5161 H   0  0  0  0  0  0  0  0  0  0  0  0
  1 15  1  0
  1  2  2  0
  1 21  1  0
  2  3  1  0
  2 22  1  0
  3 13  1  0
  3  4  1  0
  4  5  1  0
  4 11  2  0
  5 10  1  0
  5  6  1  0
  5 23  1  0
  6  7  1  0
  6 24  1  0
  6 25  1  0
  7  8  1  0
  7 26  1  0
  7 27  1  0
  8  9  1  0
  9 10  1  0
  9 28  1  0
  9 29  1  0
 10 30  1  0
 10 31  1  0
 11 12  1  0
 12 13  2  0
 13 14  1  0
 14 15  2  0
 14 32  1  0
 15 16  1  0
 16 17  1  0
 17 20  1  0
 17 18  1  0
 17 33  1  0
 18 19  1  0
 18 34  1  0
 18 35  1  0
 19 20  1  0
 19 36  1  0
 19 37  1  0
 20 38  1  0
 20 39  1  0
M  END
>  <i_m_ct_stereo_status>  (225) 
1

>  <s_m_source_file>  (225) 
/var/tmp/pbs.5076255.sched01/tmptpdlle0r/921kky2sk3.sdf

>  <i_m_source_file_index>  (225) 
5

>  <i_lp_mmshare_version>  (225) 
48012

>  <i_f3d_flags>  (225) 
0

>  <s_epik_input>  (225) 
W0NIMl0xW0NIMl1bQ0gyXVtDSF0xT2MoW2NIXVtjSF0yKVtjSF1jKG4yMylubmMzW0NIXTRbQ0gyXVtDSDJdT1tDSDJdW0NIMl00

>  <s_epik_cmdline>  (225) 
J2VwaWtfcHl0aG9uJywgJy1waHQnLCAnMi4wJywgJy1waCcsICc3LjAnLCAnLXRuJywgJzgnLCAnLW1hJywgJzIwMCcsICctaW1hZScsICc8aW5maWxlLm1hZT4nLCAnLW9tYWUnLCAnPG91dGZpbGUubWFlPic=

>  <r_epik_Ionization_Penalty>  (225) 
0.00438009

>  <r_epik_Ionization_Penalty_Charging>  (225) 
0

>  <r_epik_Ionization_Penalty_Neutral>  (225) 
0.00438009

>  <r_epik_State_Penalty>  (225) 
0.00300894

>  <r_epik_Charging_Adjusted_Penalty>  (225) 
0.00300894

>  <i_epik_Tot_Q>  (225) 
0

>  <i_epik_Tot_abs_Q>  (225) 
0

>  <s_lp_Force_Field>  (225) 
OPLS3e

>  <r_lp_Energy>  (225) 
27.2752

>  <b_lp_Chiralities_Consistent>  (225) 
1

>  <s_lp_Variant>  (225) 
57:0-1

>  <s_i_glide_gridfile>  (225) 
pfpi4k_grid

>  <i_i_glide_lignum>  (225) 
5

>  <i_i_glide_rotatable_bonds>  (225) 
3

>  <r_i_docking_score>  (225) 
-3.25606

>  <r_i_glide_ligand_efficiency>  (225) 
-0.162803

>  <r_i_glide_ligand_efficiency_sa>  (225) 
-0.441915

>  <r_i_glide_ligand_efficiency_ln>  (225) 
-0.814884

>  <r_i_glide_gscore>  (225) 
-3.25606

>  <r_i_glide_lipo>  (225) 
-0.203697

>  <r_i_glide_hbond>  (225) 
0

>  <r_i_glide_metal>  (225) 
-0

>  <r_i_glide_rewards>  (225) 
-1.54548

>  <r_i_glide_evdw>  (225) 
-25.7863

>  <r_i_glide_ecoul>  (225) 
-4.58007

>  <r_i_glide_erotb>  (225) 
0.720288

>  <r_i_glide_esite>  (225) 
-0.250849

>  <r_i_glide_emodel>  (225) 
-35.4653

>  <r_i_glide_energy>  (225) 
-30.3664

>  <r_i_glide_einternal>  (225) 
2.25011

>  <r_i_glide_intrahb_reward>  (225) 
-0

>  <i_i_glide_confnum>  (225) 
2

>  <i_i_glide_posenum>  (225) 
35

>  <r_i_glide_eff_state_penalty>  (225) 
0

>  <ligand_id>  (225) 
57

>  <original_smiles>  (225) 
c1cn2c(C3CCOCC3)nnc2cc1OC1CCC1

>  <smiles>  (225) 
[H]c1c(OC2([H])C([H])([H])C([H])([H])C2([H])[H])c([H])c2nnc(C3([H])C([H])([H])C([H])([H])OC([H])([H])C3([H])[H])n2c1[H]

$$$$
57:0:2
     RDKit          3D

 39 42  0  0  1  0  0  0  0  0999 V2000
    4.9309   -6.4395    1.6751 C   0  0  0  0  0  0  0  0  0  0  0  0
    3.9987   -7.3234    2.1593 C   0  0  0  0  0  0  0  0  0  0  0  0
    2.6863   -7.1938    1.7773 N   0  0  0  0  0  0  0  0  0  0  0  0
    1.5633   -7.9273    2.0629 C   0  0  0  0  0  0  0  0  0  0  0  0
    1.4578   -9.1640    2.9123 C   0  0  0  0  0  0  0  0  0  0  0  0
    1.3238   -8.8826    4.4199 C   0  0  0  0  0  0  0  0  0  0  0  0
    1.1603  -10.2027    5.1975 C   0  0  0  0  0  0  0  0  0  0  0  0
    2.2579  -11.0567    4.8928 O   0  0  0  0  0  0  0  0  0  0  0  0
    2.2813  -11.4662    3.5304 C   0  0  0  0  0  0  0  0  0  0  0  0
    2.5483  -10.2381    2.6726 C   0  0  0  0  0  0  0  0  0  0  0  0
    0.5144   -7.3506    1.4658 N   0  0  0  0  0  0  0  0  0  0  0  0
    0.9469   -6.2577    0.7464 N   0  0  0  0  0  0  0  0  0  0  0  0
    2.2662   -6.1521    0.9377 C   0  0  0  0  0  0  0  0  0  0  0  0
    3.2316   -5.2192    0.4818 C   0  0  0  0  0  0  0  0  0  0  0  0
    4.5668   -5.3724    0.8403 C   0  0  0  0  0  0  0  0  0  0  0  0
    5.5911   -4.5430    0.4472 O   0  0  0  0  0  0  0  0  0  0  0  0
    5.2799   -3.4012   -0.3292 C   0  0  0  0  0  0  0  0  0  0  0  0
    4.8438   -3.7238   -1.7630 C   0  0  0  0  0  0  0  0  0  0  0  0
    5.7884   -2.6312   -2.2435 C   0  0  0  0  0  0  0  0  0  0  0  0
    6.5368   -2.7431   -0.9139 C   0  0  0  0  0  0  0  0  0  0  0  0
    5.9656   -6.5703    1.9770 H   0  0  0  0  0  0  0  0  0  0  0  0
    4.2967   -8.0988    2.8526 H   0  0  0  0  0  0  0  0  0  0  0  0
    0.5157   -9.6210    2.5997 H   0  0  0  0  0  0  0  0  0  0  0  0
    2.1824   -8.3256    4.8052 H   0  0  0  0  0  0  0  0  0  0  0  0
    0.4433   -8.2665    4.5911 H   0  0  0  0  0  0  0  0  0  0  0  0
    1.1296  -10.0215    6.2737 H   0  0  0  0  0  0  0  0  0  0  0  0
    0.2210  -10.6917    4.9353 H   0  0  0  0  0  0  0  0  0  0  0  0
    3.1067  -12.1669    3.3997 H   0  0  0  0  0  0  0  0  0  0  0  0
    1.3656  -11.9737    3.2333 H   0  0  0  0  0  0  0  0  0  0  0  0
    2.6098  -10.4884    1.6152 H   0  0  0  0  0  0  0  0  0  0  0  0
    3.5486   -9.9357    2.9807 H   0  0  0  0  0  0  0  0  0  0  0  0
    2.8860   -4.4071   -0.1432 H   0  0  0  0  0  0  0  0  0  0  0  0
    4.6375   -2.6787    0.1774 H   0  0  0  0  0  0  0  0  0  0  0  0
    5.1445   -4.7236   -2.0759 H   0  0  0  0  0  0  0  0  0  0  0  0
    3.7920   -3.5375   -1.9784 H   0  0  0  0  0  0  0  0  0  0  0  0
    6.3701   -2.9050   -3.1203 H   0  0  0  0  0  0  0  0  0  0  0  0
    5.2771   -1.6747   -2.3597 H   0  0  0  0  0  0  0  0  0  0  0  0
    6.8060   -1.7924   -0.4530 H   0  0  0  0  0  0  0  0  0  0  0  0
    7.3888   -3.4230   -0.9735 H   0  0  0  0  0  0  0  0  0  0  0  0
  1 15  1  0
  1  2  2  0
  1 21  1  0
  2  3  1  0
  2 22  1  0
  3 13  1  0
  3  4  1  0
  4  5  1  0
  4 11  2  0
  5 10  1  0
  5  6  1  0
  5 23  1  0
  6  7  1  0
  6 24  1  0
  6 25  1  0
  7  8  1  0
  7 26  1  0
  7 27  1  0
  8  9  1  0
  9 10  1  0
  9 28  1  0
  9 29  1  0
 10 30  1  0
 10 31  1  0
 11 12  1  0
 12 13  2  0
 13 14  1  0
 14 15  2  0
 14 32  1  0
 15 16  1  0
 16 17  1  0
 17 20  1  0
 17 18  1  0
 17 33  1  0
 18 19  1  0
 18 34  1  0
 18 35  1  0
 19 20  1  0
 19 36  1  0
 19 37  1  0
 20 38  1  0
 20 39  1  0
M  END
>  <i_m_ct_stereo_status>  (226) 
1

>  <s_m_source_file>  (226) 
/var/tmp/pbs.5076255.sched01/tmptpdlle0r/921kky2sk3.sdf

>  <i_m_source_file_index>  (226) 
5

>  <i_lp_mmshare_version>  (226) 
48012

>  <i_f3d_flags>  (226) 
0

>  <s_epik_input>  (226) 
W0NIMl0xW0NIMl1bQ0gyXVtDSF0xT2MoW2NIXVtjSF0yKVtjSF1jKG4yMylubmMzW0NIXTRbQ0gyXVtDSDJdT1tDSDJdW0NIMl00

>  <s_epik_cmdline>  (226) 
J2VwaWtfcHl0aG9uJywgJy1waHQnLCAnMi4wJywgJy1waCcsICc3LjAnLCAnLXRuJywgJzgnLCAnLW1hJywgJzIwMCcsICctaW1hZScsICc8aW5maWxlLm1hZT4nLCAnLW9tYWUnLCAnPG91dGZpbGUubWFlPic=

>  <r_epik_Ionization_Penalty>  (226) 
0.00438009

>  <r_epik_Ionization_Penalty_Charging>  (226) 
0

>  <r_epik_Ionization_Penalty_Neutral>  (226) 
0.00438009

>  <r_epik_State_Penalty>  (226) 
0.00300894

>  <r_epik_Charging_Adjusted_Penalty>  (226) 
0.00300894

>  <i_epik_Tot_Q>  (226) 
0

>  <i_epik_Tot_abs_Q>  (226) 
0

>  <s_lp_Force_Field>  (226) 
OPLS3e

>  <r_lp_Energy>  (226) 
27.2752

>  <b_lp_Chiralities_Consistent>  (226) 
1

>  <s_lp_Variant>  (226) 
57:0-1

>  <s_i_glide_gridfile>  (226) 
pfpi4k_grid

>  <i_i_glide_lignum>  (226) 
5

>  <i_i_glide_rotatable_bonds>  (226) 
3

>  <r_i_docking_score>  (226) 
-3.2264

>  <r_i_glide_ligand_efficiency>  (226) 
-0.16132

>  <r_i_glide_ligand_efficiency_sa>  (226) 
-0.43789

>  <r_i_glide_ligand_efficiency_ln>  (226) 
-0.807462

>  <r_i_glide_gscore>  (226) 
-3.2264

>  <r_i_glide_lipo>  (226) 
-0.248429

>  <r_i_glide_hbond>  (226) 
0

>  <r_i_glide_metal>  (226) 
-0

>  <r_i_glide_rewards>  (226) 
-1.547

>  <r_i_glide_evdw>  (226) 
-26.1976

>  <r_i_glide_ecoul>  (226) 
-4.07611

>  <r_i_glide_erotb>  (226) 
0.720288

>  <r_i_glide_esite>  (226) 
-0.229961

>  <r_i_glide_emodel>  (226) 
-35.4767

>  <r_i_glide_energy>  (226) 
-30.2738

>  <r_i_glide_einternal>  (226) 
2.03149

>  <r_i_glide_intrahb_reward>  (226) 
-0

>  <i_i_glide_confnum>  (226) 
2

>  <i_i_glide_posenum>  (226) 
1

>  <r_i_glide_eff_state_penalty>  (226) 
0

>  <ligand_id>  (226) 
57

>  <original_smiles>  (226) 
c1cn2c(C3CCOCC3)nnc2cc1OC1CCC1

>  <smiles>  (226) 
[H]c1c(OC2([H])C([H])([H])C([H])([H])C2([H])[H])c([H])c2nnc(C3([H])C([H])([H])C([H])([H])OC([H])([H])C3([H])[H])n2c1[H]

$$$$
58:0:0
     RDKit          3D

 95102  0  0  1  0  0  0  0  0999 V2000
   -1.1159    1.6567    8.8259 C   0  0  0  0  0  0  0  0  0  0  0  0
   -0.7570    0.7202    7.8151 O   0  0  0  0  0  0  0  0  0  0  0  0
    0.5099    0.9703    7.2019 C   0  0  2  0  0  0  0  0  0  0  0  0
    0.5779    2.3648    6.5953 C   0  0  0  0  0  0  0  0  0  0  0  0
    0.5103    2.6061    5.2726 C   0  0  0  0  0  0  0  0  0  0  0  0
    0.3462    1.5272    4.2222 C   0  0  1  0  0  0  0  0  0  0  0  0
    1.5624    1.8117    3.2989 C   0  0  1  0  0  0  0  0  0  0  0  0
    1.3025    1.5267    1.8105 C   0  0  0  0  0  0  0  0  0  0  0  0
    1.9591    3.2971    3.5903 C   0  0  1  0  0  0  0  0  0  0  0  0
    2.2168    4.1273    2.4761 O   0  0  0  0  0  0  0  0  0  0  0  0
    0.9221    3.8887    4.5716 C   0  0  0  0  0  0  0  0  0  0  0  0
   -0.2910    4.5280    3.8564 C   0  0  0  0  0  0  0  0  0  0  0  0
    1.5640    4.9477    5.4931 C   0  0  0  0  0  0  0  0  0  0  0  0
    0.0637    0.0926    4.8096 C   0  0  1  0  0  0  0  0  0  0  0  0
   -1.4807    0.0272    5.0178 C   0  0  0  0  0  0  0  0  0  0  0  0
    0.4537   -1.0050    3.8024 C   0  0  0  0  0  0  0  0  0  0  0  0
    0.3589   -2.4205    4.3830 C   0  0  0  0  0  0  0  0  0  0  0  0
    1.3428   -2.6727    5.5623 C   0  0  2  0  0  0  0  0  0  0  0  0
    2.7831   -2.6140    4.9864 C   0  0  0  0  0  0  0  0  0  0  0  0
    0.9366   -4.0654    6.2225 C   0  0  1  0  0  0  0  0  0  0  0  0
    2.0161   -5.2166    6.3661 C   0  0  2  0  0  0  0  0  0  0  0  0
    2.6010   -5.4478    5.0753 O   0  0  0  0  0  0  0  0  0  0  0  0
    2.2052   -6.7087    4.5478 C   0  0  1  0  0  0  0  0  0  0  0  0
    3.2326   -7.8323    4.8101 C   0  0  1  0  0  0  0  0  0  0  0  0
    3.6905   -7.7863    6.1702 O   0  0  0  0  0  0  0  0  0  0  0  0
    2.8650   -7.4267    7.1940 C   0  0  0  0  0  0  0  0  0  0  0  0
    3.1368   -7.6158    8.3775 O   0  0  0  0  0  0  0  0  0  0  0  0
    1.5743   -6.6756    6.7580 C   0  0  1  0  0  0  0  0  0  0  0  0
    0.5232   -6.8032    7.8872 C   0  0  0  0  0  0  0  0  0  0  0  0
    1.0511   -7.1979    5.4028 C   0  0  2  0  0  0  0  0  0  0  0  0
    0.9840   -8.7259    5.0997 C   0  0  1  0  0  0  0  0  0  0  0  0
    0.3586   -9.6172    6.1929 C   0  0  0  0  0  0  0  0  0  0  0  0
    0.1968   -8.8656    3.9195 O   0  0  0  0  0  0  0  0  0  0  0  0
    0.7429   -9.8915    3.1049 C   0  0  0  0  0  0  0  0  0  0  0  0
    2.2501   -9.7023    3.2462 C   0  0  1  0  0  0  0  0  0  0  0  0
    2.7218   -8.8526    2.2167 O   0  0  0  0  0  0  0  0  0  0  0  0
    2.4064   -9.1327    4.6647 C   0  0  1  0  0  0  0  0  0  0  0  0
    0.1670   -3.6692    7.5171 C   0  0  1  0  0  0  0  0  0  0  0  0
    0.8547   -3.9321    8.7210 O   0  0  0  0  0  0  0  0  0  0  0  0
   -0.0510   -2.1634    7.4645 C   0  0  0  0  0  0  0  0  0  0  0  0
    1.1247   -1.5781    6.6728 C   0  0  1  0  0  0  0  0  0  0  0  0
    2.3581   -1.5215    7.6288 C   0  0  0  0  0  0  0  0  0  0  0  0
    0.8812   -0.1066    6.1308 C   0  0  2  0  0  0  0  0  0  0  0  0
   -2.0597    1.3563    9.2660 H   0  0  0  0  0  0  0  0  0  0  0  0
   -1.2658    2.6589    8.4228 H   0  0  0  0  0  0  0  0  0  0  0  0
   -0.3697    1.7027    9.6217 H   0  0  0  0  0  0  0  0  0  0  0  0
    1.2742    0.9598    7.9778 H   0  0  0  0  0  0  0  0  0  0  0  0
    0.8100    3.1660    7.2813 H   0  0  0  0  0  0  0  0  0  0  0  0
   -0.5334    1.8034    3.6402 H   0  0  0  0  0  0  0  0  0  0  0  0
    2.4055    1.1926    3.6083 H   0  0  0  0  0  0  0  0  0  0  0  0
    0.4991    2.1426    1.4019 H   0  0  0  0  0  0  0  0  0  0  0  0
    1.0447    0.4901    1.6013 H   0  0  0  0  0  0  0  0  0  0  0  0
    2.2134    1.7367    1.2573 H   0  0  0  0  0  0  0  0  0  0  0  0
    2.9149    3.2511    4.1089 H   0  0  0  0  0  0  0  0  0  0  0  0
    1.4474    4.1486    1.9138 H   0  0  0  0  0  0  0  0  0  0  0  0
   -0.0230    5.4834    3.4001 H   0  0  0  0  0  0  0  0  0  0  0  0
   -1.1021    4.7094    4.5619 H   0  0  0  0  0  0  0  0  0  0  0  0
   -0.6810    3.9017    3.0524 H   0  0  0  0  0  0  0  0  0  0  0  0
    1.9181    5.7947    4.9041 H   0  0  0  0  0  0  0  0  0  0  0  0
    2.4224    4.5604    6.0394 H   0  0  0  0  0  0  0  0  0  0  0  0
    0.8497    5.3390    6.2169 H   0  0  0  0  0  0  0  0  0  0  0  0
   -1.8391   -0.9029    5.4426 H   0  0  0  0  0  0  0  0  0  0  0  0
   -2.0075    0.1277    4.0688 H   0  0  0  0  0  0  0  0  0  0  0  0
   -1.8491    0.8370    5.6446 H   0  0  0  0  0  0  0  0  0  0  0  0
   -0.1816   -0.9239    2.9251 H   0  0  0  0  0  0  0  0  0  0  0  0
    1.4628   -0.8559    3.4295 H   0  0  0  0  0  0  0  0  0  0  0  0
   -0.6668   -2.6142    4.6904 H   0  0  0  0  0  0  0  0  0  0  0  0
    0.5496   -3.1397    3.5846 H   0  0  0  0  0  0  0  0  0  0  0  0
    3.5300   -3.0119    5.6717 H   0  0  0  0  0  0  0  0  0  0  0  0
    3.0770   -1.5863    4.7680 H   0  0  0  0  0  0  0  0  0  0  0  0
    2.8634   -3.1685    4.0508 H   0  0  0  0  0  0  0  0  0  0  0  0
    0.1879   -4.5058    5.5665 H   0  0  0  0  0  0  0  0  0  0  0  0
    2.8100   -4.8644    7.0292 H   0  0  0  0  0  0  0  0  0  0  0  0
    1.9332   -6.6333    3.4956 H   0  0  0  0  0  0  0  0  0  0  0  0
    4.0868   -7.7991    4.1273 H   0  0  0  0  0  0  0  0  0  0  0  0
   -0.4158   -6.3309    7.6127 H   0  0  0  0  0  0  0  0  0  0  0  0
    0.8881   -6.3734    8.8209 H   0  0  0  0  0  0  0  0  0  0  0  0
    0.2913   -7.8402    8.1343 H   0  0  0  0  0  0  0  0  0  0  0  0
    0.1094   -6.7146    5.1482 H   0  0  0  0  0  0  0  0  0  0  0  0
    0.9804   -9.6663    7.0857 H   0  0  0  0  0  0  0  0  0  0  0  0
    0.2270  -10.6473    5.8566 H   0  0  0  0  0  0  0  0  0  0  0  0
   -0.6260   -9.2492    6.4800 H   0  0  0  0  0  0  0  0  0  0  0  0
    0.4447  -10.8668    3.4944 H   0  0  0  0  0  0  0  0  0  0  0  0
    0.3805   -9.8214    2.0778 H   0  0  0  0  0  0  0  0  0  0  0  0
    2.7650  -10.6569    3.1402 H   0  0  0  0  0  0  0  0  0  0  0  0
    2.1859   -8.0737    2.2091 H   0  0  0  0  0  0  0  0  0  0  0  0
    2.7980   -9.9200    5.3116 H   0  0  0  0  0  0  0  0  0  0  0  0
   -0.8002   -4.1677    7.5594 H   0  0  0  0  0  0  0  0  0  0  0  0
    1.7299   -3.5802    8.6487 H   0  0  0  0  0  0  0  0  0  0  0  0
   -0.9834   -1.9907    6.9465 H   0  0  0  0  0  0  0  0  0  0  0  0
   -0.1506   -1.7310    8.4580 H   0  0  0  0  0  0  0  0  0  0  0  0
    2.1071   -1.0630    8.5856 H   0  0  0  0  0  0  0  0  0  0  0  0
    3.1789   -0.9456    7.2019 H   0  0  0  0  0  0  0  0  0  0  0  0
    2.7700   -2.5052    7.8486 H   0  0  0  0  0  0  0  0  0  0  0  0
    1.8836    0.1843    5.8145 H   0  0  0  0  0  0  0  0  0  0  0  0
  1  2  1  0
  1 44  1  0
  1 45  1  0
  1 46  1  0
  2  3  1  0
  3 43  1  0
  3  4  1  0
  3 47  1  1
  4  5  2  0
  4 48  1  0
  5 11  1  0
  5  6  1  0
  6  7  1  0
  6 14  1  0
  6 49  1  6
  7  8  1  0
  7  9  1  0
  7 50  1  1
  8 51  1  0
  8 52  1  0
  8 53  1  0
  9 10  1  0
  9 11  1  0
  9 54  1  1
 10 55  1  0
 11 12  1  0
 11 13  1  0
 12 56  1  0
 12 57  1  0
 12 58  1  0
 13 59  1  0
 13 60  1  0
 13 61  1  0
 14 43  1  0
 14 15  1  1
 14 16  1  0
 15 62  1  0
 15 63  1  0
 15 64  1  0
 16 17  1  0
 16 65  1  0
 16 66  1  0
 17 18  1  0
 17 67  1  0
 17 68  1  0
 18 41  1  0
 18 19  1  6
 18 20  1  0
 19 69  1  0
 19 70  1  0
 19 71  1  0
 20 21  1  0
 20 38  1  0
 20 72  1  6
 21 28  1  0
 21 22  1  0
 21 73  1  1
 22 23  1  0
 23 30  1  0
 23 24  1  0
 23 74  1  6
 24 37  1  0
 24 25  1  0
 24 75  1  6
 25 26  1  0
 26 27  2  0
 26 28  1  0
 28 29  1  1
 28 30  1  0
 29 76  1  0
 29 77  1  0
 29 78  1  0
 30 31  1  0
 30 79  1  6
 31 37  1  0
 31 32  1  1
 31 33  1  0
 32 80  1  0
 32 81  1  0
 32 82  1  0
 33 34  1  0
 34 35  1  0
 34 83  1  0
 34 84  1  0
 35 36  1  0
 35 37  1  0
 35 85  1  1
 36 86  1  0
 37 87  1  1
 38 39  1  0
 38 40  1  0
 38 88  1  1
 39 89  1  0
 40 41  1  0
 40 90  1  0
 40 91  1  0
 41 42  1  1
 41 43  1  0
 42 92  1  0
 42 93  1  0
 42 94  1  0
 43 95  1  6
M  END
>  <i_m_ct_stereo_status>  (227) 
1

>  <s_m_source_file>  (227) 
/var/tmp/pbs.5076255.sched01/tmptpdlle0r/921kky2sk3.sdf

>  <i_m_source_file_index>  (227) 
6

>  <i_lp_mmshare_version>  (227) 
48012

>  <i_f3d_flags>  (227) 
2

>  <s_epik_input>  (227) 
W0NIM11bQ0BIXTFbQ0BASF0oW09IXSlDKFtDSDNdKShbQ0gzXSlDKFtDQEBIXTFbQ0BAXTIzW0NIM10pPVtDSF1bQ0BASF0oT1tDSDNdKVtDQEhdM1tDQF00KFtDSDNdKVtDQF0oW0NIM10pKFtDSDJdW0NIMl0yKVtDQEhdKFtDQEBIXShbT0hdKVtDSDJdNClbQ0BASF01T1tDSF0oW0NASF02W0NAXTU3W0NIM10pW0NAQEhdKE9DNz1PKVtDQEhdOFtDQF02KFtDSDNdKU9bQ0gyXVtDQEhdOFtPSF0=

>  <s_epik_cmdline>  (227) 
J2VwaWtfcHl0aG9uJywgJy1waHQnLCAnMi4wJywgJy1waCcsICc3LjAnLCAnLXRuJywgJzgnLCAnLW1hJywgJzIwMCcsICctaW1hZScsICc8aW5maWxlLm1hZT4nLCAnLW9tYWUnLCAnPG91dGZpbGUubWFlPic=

>  <r_lp_tautomer_probability>  (227) 
1

>  <r_epik_Ionization_Penalty>  (227) 
8.91016e-07

>  <r_epik_Ionization_Penalty_Charging>  (227) 
0

>  <r_epik_Ionization_Penalty_Neutral>  (227) 
8.91016e-07

>  <r_epik_State_Penalty>  (227) 
-0

>  <r_epik_Charging_Adjusted_Penalty>  (227) 
0

>  <i_epik_Tot_Q>  (227) 
0

>  <i_epik_Tot_abs_Q>  (227) 
0

>  <s_epik_Chemistry_Notes>  (227) 
This compound has an ester and may undergo hydrolysis at high or low pH.

>  <s_lp_Force_Field>  (227) 
OPLS3e

>  <r_lp_Energy>  (227) 
99.2766

>  <b_lp_Chiralities_Consistent>  (227) 
0

>  <s_lp_Variant>  (227) 
58:0-1

>  <s_i_glide_gridfile>  (227) 
pfpi4k_grid

>  <i_i_glide_lignum>  (227) 
6

>  <i_i_glide_rotatable_bonds>  (227) 
5

>  <r_i_docking_score>  (227) 
-2.2886

>  <r_i_glide_ligand_efficiency>  (227) 
-0.0532233

>  <r_i_glide_ligand_efficiency_sa>  (227) 
-0.186463

>  <r_i_glide_ligand_efficiency_ln>  (227) 
-0.480678

>  <r_i_glide_gscore>  (227) 
-2.2886

>  <r_i_glide_lipo>  (227) 
-0.092194

>  <r_i_glide_hbond>  (227) 
-0.19962

>  <r_i_glide_metal>  (227) 
-0

>  <r_i_glide_rewards>  (227) 
0

>  <r_i_glide_evdw>  (227) 
-25.2636

>  <r_i_glide_ecoul>  (227) 
-5.27454

>  <r_i_glide_erotb>  (227) 
0.0581923

>  <r_i_glide_esite>  (227) 
-0.000619571

>  <r_i_glide_emodel>  (227) 
-34.5126

>  <r_i_glide_energy>  (227) 
-30.5382

>  <r_i_glide_einternal>  (227) 
0.509934

>  <r_i_glide_intrahb_reward>  (227) 
-0

>  <i_i_glide_confnum>  (227) 
2

>  <i_i_glide_posenum>  (227) 
1

>  <r_i_glide_eff_state_penalty>  (227) 
0

>  <ligand_id>  (227) 
58

>  <original_smiles>  (227) 
COC1C=C2C(C(C)C(O)C2(C)C)C2(C)CCC3(C)C(C4OC5C6OC(=O)C4(C)C5C4(C)OCC(O)C64)C(O)CC3(C)C12

>  <smiles>  (227) 
[H]OC1([H])C([H])([H])OC2(C([H])([H])[H])C1([H])C1([H])OC(=O)C3(C([H])([H])[H])C([H])(C4([H])C([H])(O[H])C([H])([H])C5(C([H])([H])[H])C6([H])C([H])(OC([H])([H])[H])C([H])=C7C([H])(C([H])(C([H])([H])[H])C([H])(O[H])C7(C([H])([H])[H])C([H])([H])[H])C6(C([H])([H])[H])C([H])([H])C([H])([H])C45C([H])([H])[H])OC1([H])C23[H]

$$$$
58:0:1
     RDKit          3D

 95102  0  0  1  0  0  0  0  0999 V2000
    1.5180   -2.3181    8.9324 C   0  0  0  0  0  0  0  0  0  0  0  0
    1.2518   -1.8911    7.6052 O   0  0  0  0  0  0  0  0  0  0  0  0
    1.5841   -0.5257    7.3579 C   0  0  2  0  0  0  0  0  0  0  0  0
    0.6649    0.4293    8.1082 C   0  0  0  0  0  0  0  0  0  0  0  0
   -0.3049    1.1389    7.5189 C   0  0  0  0  0  0  0  0  0  0  0  0
   -0.6172    1.0739    6.0284 C   0  0  1  0  0  0  0  0  0  0  0  0
   -0.4882    2.5551    5.6077 C   0  0  1  0  0  0  0  0  0  0  0  0
   -1.5158    3.0047    4.5496 C   0  0  0  0  0  0  0  0  0  0  0  0
   -0.5569    3.3385    6.9545 C   0  0  1  0  0  0  0  0  0  0  0  0
   -1.4141    4.4364    6.9404 O   0  0  0  0  0  0  0  0  0  0  0  0
   -0.9428    2.3842    8.0813 C   0  0  0  0  0  0  0  0  0  0  0  0
   -2.4582    2.2023    8.2357 C   0  0  0  0  0  0  0  0  0  0  0  0
   -0.3781    2.8616    9.4424 C   0  0  0  0  0  0  0  0  0  0  0  0
    0.1416   -0.0602    5.2579 C   0  0  1  0  0  0  0  0  0  0  0  0
   -0.7363   -1.3286    5.4524 C   0  0  0  0  0  0  0  0  0  0  0  0
    0.1974    0.2425    3.7455 C   0  0  0  0  0  0  0  0  0  0  0  0
    1.0789   -0.7335    2.9713 C   0  0  0  0  0  0  0  0  0  0  0  0
    2.5754   -0.6994    3.4038 C   0  0  2  0  0  0  0  0  0  0  0  0
    3.1372    0.6903    3.0073 C   0  0  0  0  0  0  0  0  0  0  0  0
    3.2900   -1.9383    2.6993 C   0  0  1  0  0  0  0  0  0  0  0  0
    4.5641   -1.7168    1.7778 C   0  0  2  0  0  0  0  0  0  0  0  0
    4.2942   -0.6431    0.8680 O   0  0  0  0  0  0  0  0  0  0  0  0
    4.1093   -1.1429   -0.4409 C   0  0  1  0  0  0  0  0  0  0  0  0
    5.3903   -1.0059   -1.2770 C   0  0  1  0  0  0  0  0  0  0  0  0
    6.5256   -1.4686   -0.5182 O   0  0  0  0  0  0  0  0  0  0  0  0
    6.4558   -2.5111    0.3525 C   0  0  0  0  0  0  0  0  0  0  0  0
    7.4021   -3.1180    0.8130 O   0  0  0  0  0  0  0  0  0  0  0  0
    5.0066   -2.8405    0.7827 C   0  0  1  0  0  0  0  0  0  0  0  0
    4.9720   -4.2908    1.3481 C   0  0  0  0  0  0  0  0  0  0  0  0
    3.9993   -2.6396   -0.3589 C   0  0  2  0  0  0  0  0  0  0  0  0
    4.3222   -3.0697   -1.8144 C   0  0  1  0  0  0  0  0  0  0  0  0
    4.9191   -4.4536   -1.9233 C   0  0  0  0  0  0  0  0  0  0  0  0
    3.0963   -3.0323   -2.5338 O   0  0  0  0  0  0  0  0  0  0  0  0
    3.3267   -2.5398   -3.8404 C   0  0  0  0  0  0  0  0  0  0  0  0
    4.4038   -1.4845   -3.6536 C   0  0  1  0  0  0  0  0  0  0  0  0
    3.8074   -0.2172   -3.5118 O   0  0  0  0  0  0  0  0  0  0  0  0
    5.2013   -1.9869   -2.4398 C   0  0  1  0  0  0  0  0  0  0  0  0
    3.4429   -2.9935    3.8379 C   0  0  1  0  0  0  0  0  0  0  0  0
    4.7728   -3.2091    4.2438 O   0  0  0  0  0  0  0  0  0  0  0  0
    2.6543   -2.4791    5.0416 C   0  0  0  0  0  0  0  0  0  0  0  0
    2.6869   -0.9445    4.9519 C   0  0  1  0  0  0  0  0  0  0  0  0
    4.0845   -0.4720    5.4647 C   0  0  0  0  0  0  0  0  0  0  0  0
    1.5965   -0.2022    5.8308 C   0  0  2  0  0  0  0  0  0  0  0  0
    1.2745   -3.3723    9.0132 H   0  0  0  0  0  0  0  0  0  0  0  0
    0.9261   -1.7797    9.6737 H   0  0  0  0  0  0  0  0  0  0  0  0
    2.5786   -2.1987    9.1777 H   0  0  0  0  0  0  0  0  0  0  0  0
    2.5866   -0.3230    7.7399 H   0  0  0  0  0  0  0  0  0  0  0  0
    0.9511    0.6111    9.1440 H   0  0  0  0  0  0  0  0  0  0  0  0
   -1.6796    0.8387    5.9718 H   0  0  0  0  0  0  0  0  0  0  0  0
    0.5080    2.7498    5.2164 H   0  0  0  0  0  0  0  0  0  0  0  0
   -2.5530    2.8806    4.8794 H   0  0  0  0  0  0  0  0  0  0  0  0
   -1.4068    2.4588    3.6113 H   0  0  0  0  0  0  0  0  0  0  0  0
   -1.3820    4.0600    4.2952 H   0  0  0  0  0  0  0  0  0  0  0  0
    0.4106    3.7805    7.1562 H   0  0  0  0  0  0  0  0  0  0  0  0
   -1.3546    4.8574    7.7786 H   0  0  0  0  0  0  0  0  0  0  0  0
   -2.9543    3.0494    8.7028 H   0  0  0  0  0  0  0  0  0  0  0  0
   -2.6098    1.3594    8.8895 H   0  0  0  0  0  0  0  0  0  0  0  0
   -2.9775    2.0062    7.2962 H   0  0  0  0  0  0  0  0  0  0  0  0
   -0.8698    3.7894    9.7324 H   0  0  0  0  0  0  0  0  0  0  0  0
    0.6852    3.0585    9.4028 H   0  0  0  0  0  0  0  0  0  0  0  0
   -0.5710    2.1452   10.2375 H   0  0  0  0  0  0  0  0  0  0  0  0
   -0.3219   -2.2205    4.9896 H   0  0  0  0  0  0  0  0  0  0  0  0
   -1.7261   -1.1971    5.0036 H   0  0  0  0  0  0  0  0  0  0  0  0
   -0.9016   -1.5597    6.5012 H   0  0  0  0  0  0  0  0  0  0  0  0
   -0.8105    0.2129    3.3274 H   0  0  0  0  0  0  0  0  0  0  0  0
    0.5595    1.2486    3.5599 H   0  0  0  0  0  0  0  0  0  0  0  0
    0.6821   -1.7371    3.0740 H   0  0  0  0  0  0  0  0  0  0  0  0
    1.0047   -0.5058    1.9069 H   0  0  0  0  0  0  0  0  0  0  0  0
    4.2231    0.7253    3.0406 H   0  0  0  0  0  0  0  0  0  0  0  0
    2.7786    1.4743    3.6728 H   0  0  0  0  0  0  0  0  0  0  0  0
    2.8283    0.9707    2.0010 H   0  0  0  0  0  0  0  0  0  0  0  0
    2.5493   -2.3583    2.0196 H   0  0  0  0  0  0  0  0  0  0  0  0
    5.4001   -1.4040    2.4139 H   0  0  0  0  0  0  0  0  0  0  0  0
    3.2250   -0.7680   -0.9384 H   0  0  0  0  0  0  0  0  0  0  0  0
    5.5634    0.0028   -1.6720 H   0  0  0  0  0  0  0  0  0  0  0  0
    3.9598   -4.6040    1.6020 H   0  0  0  0  0  0  0  0  0  0  0  0
    5.6217   -4.3967    2.2176 H   0  0  0  0  0  0  0  0  0  0  0  0
    5.3614   -5.0194    0.6302 H   0  0  0  0  0  0  0  0  0  0  0  0
    3.0018   -2.9570   -0.0797 H   0  0  0  0  0  0  0  0  0  0  0  0
    5.8965   -4.5109   -1.4787 H   0  0  0  0  0  0  0  0  0  0  0  0
    4.9823   -4.8099   -2.9580 H   0  0  0  0  0  0  0  0  0  0  0  0
    4.2805   -5.0864   -1.3225 H   0  0  0  0  0  0  0  0  0  0  0  0
    3.7252   -3.3501   -4.4597 H   0  0  0  0  0  0  0  0  0  0  0  0
    2.4105   -2.1575   -4.3005 H   0  0  0  0  0  0  0  0  0  0  0  0
    5.0246   -1.4151   -4.5479 H   0  0  0  0  0  0  0  0  0  0  0  0
    3.1261   -0.2463   -2.8435 H   0  0  0  0  0  0  0  0  0  0  0  0
    6.1558   -2.4112   -2.7454 H   0  0  0  0  0  0  0  0  0  0  0  0
    3.0388   -3.9543    3.5250 H   0  0  0  0  0  0  0  0  0  0  0  0
    5.1281   -2.3835    4.5525 H   0  0  0  0  0  0  0  0  0  0  0  0
    1.6482   -2.8635    4.9657 H   0  0  0  0  0  0  0  0  0  0  0  0
    3.0620   -2.8543    5.9774 H   0  0  0  0  0  0  0  0  0  0  0  0
    4.3318   -0.9281    6.4184 H   0  0  0  0  0  0  0  0  0  0  0  0
    4.1223    0.6043    5.6027 H   0  0  0  0  0  0  0  0  0  0  0  0
    4.8888   -0.7113    4.7759 H   0  0  0  0  0  0  0  0  0  0  0  0
    1.9420    0.8310    5.8007 H   0  0  0  0  0  0  0  0  0  0  0  0
  1  2  1  0
  1 44  1  0
  1 45  1  0
  1 46  1  0
  2  3  1  0
  3 43  1  0
  3  4  1  0
  3 47  1  1
  4  5  2  0
  4 48  1  0
  5 11  1  0
  5  6  1  0
  6  7  1  0
  6 14  1  0
  6 49  1  1
  7  8  1  0
  7  9  1  0
  7 50  1  6
  8 51  1  0
  8 52  1  0
  8 53  1  0
  9 10  1  0
  9 11  1  0
  9 54  1  1
 10 55  1  0
 11 12  1  0
 11 13  1  0
 12 56  1  0
 12 57  1  0
 12 58  1  0
 13 59  1  0
 13 60  1  0
 13 61  1  0
 14 43  1  0
 14 15  1  6
 14 16  1  0
 15 62  1  0
 15 63  1  0
 15 64  1  0
 16 17  1  0
 16 65  1  0
 16 66  1  0
 17 18  1  0
 17 67  1  0
 17 68  1  0
 18 41  1  0
 18 19  1  1
 18 20  1  0
 19 69  1  0
 19 70  1  0
 19 71  1  0
 20 21  1  0
 20 38  1  0
 20 72  1  6
 21 28  1  0
 21 22  1  0
 21 73  1  1
 22 23  1  0
 23 30  1  0
 23 24  1  0
 23 74  1  6
 24 37  1  0
 24 25  1  0
 24 75  1  6
 25 26  1  0
 26 27  2  0
 26 28  1  0
 28 29  1  1
 28 30  1  0
 29 76  1  0
 29 77  1  0
 29 78  1  0
 30 31  1  0
 30 79  1  1
 31 37  1  0
 31 32  1  1
 31 33  1  0
 32 80  1  0
 32 81  1  0
 32 82  1  0
 33 34  1  0
 34 35  1  0
 34 83  1  0
 34 84  1  0
 35 36  1  0
 35 37  1  0
 35 85  1  6
 36 86  1  0
 37 87  1  6
 38 39  1  0
 38 40  1  0
 38 88  1  6
 39 89  1  0
 40 41  1  0
 40 90  1  0
 40 91  1  0
 41 42  1  1
 41 43  1  0
 42 92  1  0
 42 93  1  0
 42 94  1  0
 43 95  1  1
M  END
>  <i_m_ct_stereo_status>  (228) 
1

>  <s_m_source_file>  (228) 
/var/tmp/pbs.5076255.sched01/tmptpdlle0r/921kky2sk3.sdf

>  <i_m_source_file_index>  (228) 
6

>  <i_lp_mmshare_version>  (228) 
48012

>  <i_f3d_flags>  (228) 
2

>  <s_epik_input>  (228) 
W0NIM11bQ0BIXTFbQ0BASF0oW09IXSlDKFtDSDNdKShbQ0gzXSlDKFtDQEBIXTFbQ0BAXTIzW0NIM10pPVtDSF1bQ0BASF0oT1tDSDNdKVtDQEhdM1tDQF00KFtDSDNdKVtDQF0oW0NIM10pKFtDSDJdW0NIMl0yKVtDQEhdKFtDQEBIXShbT0hdKVtDSDJdNClbQ0BASF01T1tDSF0oW0NASF02W0NAXTU3W0NIM10pW0NAQEhdKE9DNz1PKVtDQEhdOFtDQF02KFtDSDNdKU9bQ0gyXVtDQEhdOFtPSF0=

>  <s_epik_cmdline>  (228) 
J2VwaWtfcHl0aG9uJywgJy1waHQnLCAnMi4wJywgJy1waCcsICc3LjAnLCAnLXRuJywgJzgnLCAnLW1hJywgJzIwMCcsICctaW1hZScsICc8aW5maWxlLm1hZT4nLCAnLW9tYWUnLCAnPG91dGZpbGUubWFlPic=

>  <r_lp_tautomer_probability>  (228) 
1

>  <r_epik_Ionization_Penalty>  (228) 
8.91016e-07

>  <r_epik_Ionization_Penalty_Charging>  (228) 
0

>  <r_epik_Ionization_Penalty_Neutral>  (228) 
8.91016e-07

>  <r_epik_State_Penalty>  (228) 
-0

>  <r_epik_Charging_Adjusted_Penalty>  (228) 
0

>  <i_epik_Tot_Q>  (228) 
0

>  <i_epik_Tot_abs_Q>  (228) 
0

>  <s_epik_Chemistry_Notes>  (228) 
This compound has an ester and may undergo hydrolysis at high or low pH.

>  <s_lp_Force_Field>  (228) 
OPLS3e

>  <r_lp_Energy>  (228) 
99.2766

>  <b_lp_Chiralities_Consistent>  (228) 
0

>  <s_lp_Variant>  (228) 
58:0-1

>  <s_i_glide_gridfile>  (228) 
pfpi4k_grid

>  <i_i_glide_lignum>  (228) 
6

>  <i_i_glide_rotatable_bonds>  (228) 
5

>  <r_i_docking_score>  (228) 
-2.24621

>  <r_i_glide_ligand_efficiency>  (228) 
-0.0522374

>  <r_i_glide_ligand_efficiency_sa>  (228) 
-0.183009

>  <r_i_glide_ligand_efficiency_ln>  (228) 
-0.471774

>  <r_i_glide_gscore>  (228) 
-2.24621

>  <r_i_glide_lipo>  (228) 
-0.418945

>  <r_i_glide_hbond>  (228) 
-0.119951

>  <r_i_glide_metal>  (228) 
-0

>  <r_i_glide_rewards>  (228) 
-0.110657

>  <r_i_glide_evdw>  (228) 
-28.0433

>  <r_i_glide_ecoul>  (228) 
-1.68455

>  <r_i_glide_erotb>  (228) 
0.0581923

>  <r_i_glide_esite>  (228) 
0

>  <r_i_glide_emodel>  (228) 
-33.4075

>  <r_i_glide_energy>  (228) 
-29.7279

>  <r_i_glide_einternal>  (228) 
0.499142

>  <r_i_glide_intrahb_reward>  (228) 
-0

>  <i_i_glide_confnum>  (228) 
2

>  <i_i_glide_posenum>  (228) 
20

>  <r_i_glide_eff_state_penalty>  (228) 
0

>  <ligand_id>  (228) 
58

>  <original_smiles>  (228) 
COC1C=C2C(C(C)C(O)C2(C)C)C2(C)CCC3(C)C(C4OC5C6OC(=O)C4(C)C5C4(C)OCC(O)C64)C(O)CC3(C)C12

>  <smiles>  (228) 
[H]OC1([H])C([H])([H])OC2(C([H])([H])[H])C1([H])C1([H])OC(=O)C3(C([H])([H])[H])C([H])(C4([H])C([H])(O[H])C([H])([H])C5(C([H])([H])[H])C6([H])C([H])(OC([H])([H])[H])C([H])=C7C([H])(C([H])(C([H])([H])[H])C([H])(O[H])C7(C([H])([H])[H])C([H])([H])[H])C6(C([H])([H])[H])C([H])([H])C([H])([H])C45C([H])([H])[H])OC1([H])C23[H]

$$$$
58:0:2
     RDKit          3D

 95102  0  0  1  0  0  0  0  0999 V2000
    2.1049   -1.9010    9.3507 C   0  0  0  0  0  0  0  0  0  0  0  0
    1.7479   -1.5013    8.0344 O   0  0  0  0  0  0  0  0  0  0  0  0
    2.0837   -0.1537    7.7089 C   0  0  2  0  0  0  0  0  0  0  0  0
    1.2301    0.8431    8.4860 C   0  0  0  0  0  0  0  0  0  0  0  0
    0.2353    1.5591    7.9252 C   0  0  0  0  0  0  0  0  0  0  0  0
   -0.1832    1.4444    6.4727 C   0  0  1  0  0  0  0  0  0  0  0  0
   -0.0809    2.9208    5.9962 C   0  0  1  0  0  0  0  0  0  0  0  0
   -1.1487    3.3280    4.9555 C   0  0  0  0  0  0  0  0  0  0  0  0
   -0.1219    3.7766    7.3040 C   0  0  1  0  0  0  0  0  0  0  0  0
   -0.9828    4.8981    7.2896 O   0  0  0  0  0  0  0  0  0  0  0  0
   -0.3911    2.8228    8.4935 C   0  0  0  0  0  0  0  0  0  0  0  0
   -1.8976    2.5979    8.7689 C   0  0  0  0  0  0  0  0  0  0  0  0
    0.2680    3.3452    9.7861 C   0  0  0  0  0  0  0  0  0  0  0  0
    0.5127    0.2641    5.6913 C   0  0  1  0  0  0  0  0  0  0  0  0
   -0.3587   -0.9942    5.9817 C   0  0  0  0  0  0  0  0  0  0  0  0
    0.4851    0.5098    4.1697 C   0  0  0  0  0  0  0  0  0  0  0  0
    1.3079   -0.5138    3.3800 C   0  0  0  0  0  0  0  0  0  0  0  0
    2.8266   -0.4876    3.7164 C   0  0  2  0  0  0  0  0  0  0  0  0
    3.3828    0.8792    3.2393 C   0  0  0  0  0  0  0  0  0  0  0  0
    3.4800   -1.7630    3.0181 C   0  0  1  0  0  0  0  0  0  0  0  0
    4.7045   -1.5874    2.0213 C   0  0  2  0  0  0  0  0  0  0  0  0
    4.3888   -0.5601    1.0720 O   0  0  0  0  0  0  0  0  0  0  0  0
    4.1391   -1.1118   -0.2125 C   0  0  1  0  0  0  0  0  0  0  0  0
    5.3783   -1.0420   -1.1258 C   0  0  1  0  0  0  0  0  0  0  0  0
    6.5582   -1.4536   -0.4137 O   0  0  0  0  0  0  0  0  0  0  0  0
    6.5146   -2.4676    0.4979 C   0  0  0  0  0  0  0  0  0  0  0  0
    7.5106   -3.0795    0.8767 O   0  0  0  0  0  0  0  0  0  0  0  0
    5.0960   -2.7710    1.0603 C   0  0  1  0  0  0  0  0  0  0  0  0
    5.1089   -4.1822    1.6909 C   0  0  0  0  0  0  0  0  0  0  0  0
    4.0253   -2.6138   -0.0424 C   0  0  2  0  0  0  0  0  0  0  0  0
    4.2669   -3.1604   -1.4802 C   0  0  1  0  0  0  0  0  0  0  0  0
    4.8396   -4.5807   -1.5605 C   0  0  0  0  0  0  0  0  0  0  0  0
    3.0097   -3.1196   -2.1544 O   0  0  0  0  0  0  0  0  0  0  0  0
    3.1962   -2.7297   -3.5058 C   0  0  0  0  0  0  0  0  0  0  0  0
    4.2938   -1.6766   -3.4194 C   0  0  1  0  0  0  0  0  0  0  0  0
    3.7218   -0.3900   -3.3186 O   0  0  0  0  0  0  0  0  0  0  0  0
    5.1223   -2.1093   -2.2043 C   0  0  1  0  0  0  0  0  0  0  0  0
    3.6795   -2.7792    4.1829 C   0  0  1  0  0  0  0  0  0  0  0  0
    5.0307   -2.9954    4.5303 O   0  0  0  0  0  0  0  0  0  0  0  0
    2.9803   -2.2053    5.4141 C   0  0  0  0  0  0  0  0  0  0  0  0
    3.0303   -0.6749    5.2662 C   0  0  1  0  0  0  0  0  0  0  0  0
    4.4622   -0.2090    5.6798 C   0  0  0  0  0  0  0  0  0  0  0  0
    1.9977    0.1203    6.1746 C   0  0  2  0  0  0  0  0  0  0  0  0
    1.8457   -2.9496    9.4840 H   0  0  0  0  0  0  0  0  0  0  0  0
    1.5744   -1.3304   10.1142 H   0  0  0  0  0  0  0  0  0  0  0  0
    3.1785   -1.8016    9.5202 H   0  0  0  0  0  0  0  0  0  0  0  0
    3.1097    0.0375    8.0239 H   0  0  0  0  0  0  0  0  0  0  0  0
    1.5586    1.0532    9.4925 H   0  0  0  0  0  0  0  0  0  0  0  0
   -1.2481    1.2162    6.4886 H   0  0  0  0  0  0  0  0  0  0  0  0
    0.8985    3.0876    5.5466 H   0  0  0  0  0  0  0  0  0  0  0  0
   -2.1637    3.2241    5.3428 H   0  0  0  0  0  0  0  0  0  0  0  0
   -1.0847    2.7374    4.0419 H   0  0  0  0  0  0  0  0  0  0  0  0
   -1.0123    4.3665    4.6513 H   0  0  0  0  0  0  0  0  0  0  0  0
    0.8788    4.1940    7.4233 H   0  0  0  0  0  0  0  0  0  0  0  0
   -1.8665    4.5872    7.4144 H   0  0  0  0  0  0  0  0  0  0  0  0
   -2.3541    3.4683    9.2443 H   0  0  0  0  0  0  0  0  0  0  0  0
   -2.0390    1.7548    9.4471 H   0  0  0  0  0  0  0  0  0  0  0  0
   -2.4710    2.3941    7.8650 H   0  0  0  0  0  0  0  0  0  0  0  0
   -0.1797    4.2948   10.0814 H   0  0  0  0  0  0  0  0  0  0  0  0
    1.3365    3.5194    9.6670 H   0  0  0  0  0  0  0  0  0  0  0  0
    0.1260    2.6548   10.6179 H   0  0  0  0  0  0  0  0  0  0  0  0
    0.0183   -1.9044    5.5302 H   0  0  0  0  0  0  0  0  0  0  0  0
   -1.3701   -0.8727    5.5880 H   0  0  0  0  0  0  0  0  0  0  0  0
   -0.4617   -1.1878    7.0481 H   0  0  0  0  0  0  0  0  0  0  0  0
   -0.5438    0.4880    3.8099 H   0  0  0  0  0  0  0  0  0  0  0  0
    0.8575    1.5016    3.9288 H   0  0  0  0  0  0  0  0  0  0  0  0
    0.8968   -1.5082    3.5464 H   0  0  0  0  0  0  0  0  0  0  0  0
    1.1653   -0.3290    2.3135 H   0  0  0  0  0  0  0  0  0  0  0  0
    4.4709    0.8956    3.2175 H   0  0  0  0  0  0  0  0  0  0  0  0
    3.0764    1.6932    3.8958 H   0  0  0  0  0  0  0  0  0  0  0  0
    3.0234    1.1333    2.2413 H   0  0  0  0  0  0  0  0  0  0  0  0
    2.6995   -2.1999    2.3970 H   0  0  0  0  0  0  0  0  0  0  0  0
    5.5709   -1.2428    2.5913 H   0  0  0  0  0  0  0  0  0  0  0  0
    3.2543   -0.6822   -0.6781 H   0  0  0  0  0  0  0  0  0  0  0  0
    5.5361   -0.0662   -1.5755 H   0  0  0  0  0  0  0  0  0  0  0  0
    4.1187   -4.4767    2.0267 H   0  0  0  0  0  0  0  0  0  0  0  0
    5.8091   -4.2437    2.5253 H   0  0  0  0  0  0  0  0  0  0  0  0
    5.4459   -4.9486    0.9924 H   0  0  0  0  0  0  0  0  0  0  0  0
    3.0455   -2.9183    0.3211 H   0  0  0  0  0  0  0  0  0  0  0  0
    5.8435   -4.6288   -1.1556 H   0  0  0  0  0  0  0  0  0  0  0  0
    4.9072   -4.9250   -2.5929 H   0  0  0  0  0  0  0  0  0  0  0  0
    4.2201   -5.2782   -0.9956 H   0  0  0  0  0  0  0  0  0  0  0  0
    3.5495   -3.5849   -4.0856 H   0  0  0  0  0  0  0  0  0  0  0  0
    2.2712   -2.3716   -3.9592 H   0  0  0  0  0  0  0  0  0  0  0  0
    4.8988   -1.6671   -4.3234 H   0  0  0  0  0  0  0  0  0  0  0  0
    3.0288   -0.4164   -2.6728 H   0  0  0  0  0  0  0  0  0  0  0  0
    6.0620   -2.5404   -2.5586 H   0  0  0  0  0  0  0  0  0  0  0  0
    3.2437   -3.7464    3.9395 H   0  0  0  0  0  0  0  0  0  0  0  0
    5.4153   -2.1637    4.7553 H   0  0  0  0  0  0  0  0  0  0  0  0
    1.9634   -2.5735    5.4148 H   0  0  0  0  0  0  0  0  0  0  0  0
    3.4298   -2.5576    6.3415 H   0  0  0  0  0  0  0  0  0  0  0  0
    4.7661   -0.6362    6.6348 H   0  0  0  0  0  0  0  0  0  0  0  0
    4.5278    0.8740    5.7807 H   0  0  0  0  0  0  0  0  0  0  0  0
    5.2265   -0.4836    4.9545 H   0  0  0  0  0  0  0  0  0  0  0  0
    2.3570    1.1441    6.0829 H   0  0  0  0  0  0  0  0  0  0  0  0
  1  2  1  0
  1 44  1  0
  1 45  1  0
  1 46  1  0
  2  3  1  0
  3 43  1  0
  3  4  1  0
  3 47  1  1
  4  5  2  0
  4 48  1  0
  5 11  1  0
  5  6  1  0
  6  7  1  0
  6 14  1  0
  6 49  1  1
  7  8  1  0
  7  9  1  0
  7 50  1  6
  8 51  1  0
  8 52  1  0
  8 53  1  0
  9 10  1  0
  9 11  1  0
  9 54  1  1
 10 55  1  0
 11 12  1  0
 11 13  1  0
 12 56  1  0
 12 57  1  0
 12 58  1  0
 13 59  1  0
 13 60  1  0
 13 61  1  0
 14 43  1  0
 14 15  1  6
 14 16  1  0
 15 62  1  0
 15 63  1  0
 15 64  1  0
 16 17  1  0
 16 65  1  0
 16 66  1  0
 17 18  1  0
 17 67  1  0
 17 68  1  0
 18 41  1  0
 18 19  1  6
 18 20  1  0
 19 69  1  0
 19 70  1  0
 19 71  1  0
 20 21  1  0
 20 38  1  0
 20 72  1  6
 21 28  1  0
 21 22  1  0
 21 73  1  1
 22 23  1  0
 23 30  1  0
 23 24  1  0
 23 74  1  6
 24 37  1  0
 24 25  1  0
 24 75  1  6
 25 26  1  0
 26 27  2  0
 26 28  1  0
 28 29  1  1
 28 30  1  0
 29 76  1  0
 29 77  1  0
 29 78  1  0
 30 31  1  0
 30 79  1  1
 31 37  1  0
 31 32  1  1
 31 33  1  0
 32 80  1  0
 32 81  1  0
 32 82  1  0
 33 34  1  0
 34 35  1  0
 34 83  1  0
 34 84  1  0
 35 36  1  0
 35 37  1  0
 35 85  1  6
 36 86  1  0
 37 87  1  6
 38 39  1  0
 38 40  1  0
 38 88  1  6
 39 89  1  0
 40 41  1  0
 40 90  1  0
 40 91  1  0
 41 42  1  1
 41 43  1  0
 42 92  1  0
 42 93  1  0
 42 94  1  0
 43 95  1  1
M  END
>  <i_m_ct_stereo_status>  (229) 
1

>  <s_m_source_file>  (229) 
/var/tmp/pbs.5076255.sched01/tmptpdlle0r/921kky2sk3.sdf

>  <i_m_source_file_index>  (229) 
6

>  <i_lp_mmshare_version>  (229) 
48012

>  <i_f3d_flags>  (229) 
2

>  <s_epik_input>  (229) 
W0NIM11bQ0BIXTFbQ0BASF0oW09IXSlDKFtDSDNdKShbQ0gzXSlDKFtDQEBIXTFbQ0BAXTIzW0NIM10pPVtDSF1bQ0BASF0oT1tDSDNdKVtDQEhdM1tDQF00KFtDSDNdKVtDQF0oW0NIM10pKFtDSDJdW0NIMl0yKVtDQEhdKFtDQEBIXShbT0hdKVtDSDJdNClbQ0BASF01T1tDSF0oW0NASF02W0NAXTU3W0NIM10pW0NAQEhdKE9DNz1PKVtDQEhdOFtDQF02KFtDSDNdKU9bQ0gyXVtDQEhdOFtPSF0=

>  <s_epik_cmdline>  (229) 
J2VwaWtfcHl0aG9uJywgJy1waHQnLCAnMi4wJywgJy1waCcsICc3LjAnLCAnLXRuJywgJzgnLCAnLW1hJywgJzIwMCcsICctaW1hZScsICc8aW5maWxlLm1hZT4nLCAnLW9tYWUnLCAnPG91dGZpbGUubWFlPic=

>  <r_lp_tautomer_probability>  (229) 
1

>  <r_epik_Ionization_Penalty>  (229) 
8.91016e-07

>  <r_epik_Ionization_Penalty_Charging>  (229) 
0

>  <r_epik_Ionization_Penalty_Neutral>  (229) 
8.91016e-07

>  <r_epik_State_Penalty>  (229) 
-0

>  <r_epik_Charging_Adjusted_Penalty>  (229) 
0

>  <i_epik_Tot_Q>  (229) 
0

>  <i_epik_Tot_abs_Q>  (229) 
0

>  <s_epik_Chemistry_Notes>  (229) 
This compound has an ester and may undergo hydrolysis at high or low pH.

>  <s_lp_Force_Field>  (229) 
OPLS3e

>  <r_lp_Energy>  (229) 
99.2766

>  <b_lp_Chiralities_Consistent>  (229) 
0

>  <s_lp_Variant>  (229) 
58:0-1

>  <s_i_glide_gridfile>  (229) 
pfpi4k_grid

>  <i_i_glide_lignum>  (229) 
6

>  <i_i_glide_rotatable_bonds>  (229) 
5

>  <r_i_docking_score>  (229) 
-2.21243

>  <r_i_glide_ligand_efficiency>  (229) 
-0.051452

>  <r_i_glide_ligand_efficiency_sa>  (229) 
-0.180257

>  <r_i_glide_ligand_efficiency_ln>  (229) 
-0.46468

>  <r_i_glide_gscore>  (229) 
-2.21243

>  <r_i_glide_lipo>  (229) 
-0.482334

>  <r_i_glide_hbond>  (229) 
-0.116142

>  <r_i_glide_metal>  (229) 
-0

>  <r_i_glide_rewards>  (229) 
-0.119003

>  <r_i_glide_evdw>  (229) 
-28.3779

>  <r_i_glide_ecoul>  (229) 
-0.895006

>  <r_i_glide_erotb>  (229) 
0.0581923

>  <r_i_glide_esite>  (229) 
0

>  <r_i_glide_emodel>  (229) 
-33.2787

>  <r_i_glide_energy>  (229) 
-29.2729

>  <r_i_glide_einternal>  (229) 
0.354033

>  <r_i_glide_intrahb_reward>  (229) 
-0

>  <i_i_glide_confnum>  (229) 
2

>  <i_i_glide_posenum>  (229) 
30

>  <r_i_glide_eff_state_penalty>  (229) 
0

>  <ligand_id>  (229) 
58

>  <original_smiles>  (229) 
COC1C=C2C(C(C)C(O)C2(C)C)C2(C)CCC3(C)C(C4OC5C6OC(=O)C4(C)C5C4(C)OCC(O)C64)C(O)CC3(C)C12

>  <smiles>  (229) 
[H]OC1([H])C([H])([H])OC2(C([H])([H])[H])C1([H])C1([H])OC(=O)C3(C([H])([H])[H])C([H])(C4([H])C([H])(O[H])C([H])([H])C5(C([H])([H])[H])C6([H])C([H])(OC([H])([H])[H])C([H])=C7C([H])(C([H])(C([H])([H])[H])C([H])(O[H])C7(C([H])([H])[H])C([H])([H])[H])C6(C([H])([H])[H])C([H])([H])C([H])([H])C45C([H])([H])[H])OC1([H])C23[H]

$$$$
61:0:0
     RDKit          3D

 53 59  0  0  1  0  0  0  0  0999 V2000
    4.9913   -6.6571    2.4169 C   0  0  0  0  0  0  0  0  0  0  0  0
    4.2107   -5.7927    1.4273 C   0  0  0  0  0  0  0  0  0  0  0  0
    3.0766   -6.6525    0.8748 C   0  0  0  0  0  0  0  0  0  0  0  0
    3.7508   -4.4326    1.9460 C   0  0  0  0  0  0  0  0  0  0  0  0
    4.3633   -3.7153    0.7160 C   0  0  1  0  0  0  0  0  0  0  0  0
    5.0384   -5.0359    0.3597 C   0  0  1  0  0  0  0  0  0  0  0  0
    6.5366   -4.7692    0.4382 C   0  0  0  0  0  0  0  0  0  0  0  0
    6.7067   -3.2324    0.3424 C   0  0  1  0  0  0  0  0  0  0  0  0
    6.7002   -2.6534   -1.0973 C   0  0  2  0  0  0  0  0  0  0  0  0
    8.1179   -2.3386   -1.5726 C   0  0  0  0  0  0  0  0  0  0  0  0
    6.0146   -1.4461   -1.0398 O   0  0  0  0  0  0  0  0  0  0  0  0
    5.1445   -1.3958    0.0823 C   0  0  1  0  0  0  0  0  0  0  0  0
    3.6712   -1.5612   -0.2862 C   0  0  1  0  0  0  0  0  0  0  0  0
    2.8965   -0.9209    0.6920 O   0  0  0  0  0  0  0  0  0  0  0  0
    3.3861   -1.0729   -1.5626 O   0  0  0  0  0  0  0  0  0  0  0  0
    3.2447   -2.1654   -2.4681 C   0  0  1  0  0  0  0  0  0  0  0  0
    2.0628   -2.1512   -3.3691 C   0  0  0  0  0  0  0  0  0  0  0  0
    4.4854   -2.1638   -3.3028 C   0  0  0  0  0  0  0  0  0  0  0  0
    4.5947   -1.5116   -4.3093 O   0  0  0  0  0  0  0  0  0  0  0  0
    4.8979   -3.5336   -2.6514 C   0  0  1  0  0  0  0  0  0  0  0  0
    4.8233   -4.5212   -3.6384 O   0  0  0  0  0  0  0  0  0  0  0  0
    6.1849   -3.5587   -2.0269 O   0  0  0  0  0  0  0  0  0  0  0  0
    3.6118   -3.4428   -1.7729 C   0  0  1  0  0  0  0  0  0  0  0  0
    3.4533   -3.0684   -0.3239 C   0  0  1  0  0  0  0  0  0  0  0  0
    2.1250   -3.3862   -0.0881 O   0  0  0  0  0  0  0  0  0  0  0  0
    5.4498   -2.6360    0.9376 C   0  0  1  0  0  0  0  0  0  0  0  0
    5.6864   -2.2190    2.4006 C   0  0  0  0  0  0  0  0  0  0  0  0
    4.3338   -7.1278    3.1488 H   0  0  0  0  0  0  0  0  0  0  0  0
    5.7079   -6.0609    2.9808 H   0  0  0  0  0  0  0  0  0  0  0  0
    5.5496   -7.4451    1.9092 H   0  0  0  0  0  0  0  0  0  0  0  0
    2.4982   -6.1216    0.1130 H   0  0  0  0  0  0  0  0  0  0  0  0
    2.3733   -6.9689    1.6451 H   0  0  0  0  0  0  0  0  0  0  0  0
    3.4871   -7.5559    0.4362 H   0  0  0  0  0  0  0  0  0  0  0  0
    2.6679   -4.3580    2.0621 H   0  0  0  0  0  0  0  0  0  0  0  0
    4.2151   -4.2031    2.8998 H   0  0  0  0  0  0  0  0  0  0  0  0
    4.7607   -5.4101   -0.6259 H   0  0  0  0  0  0  0  0  0  0  0  0
    6.9317   -5.0977    1.3970 H   0  0  0  0  0  0  0  0  0  0  0  0
    7.1025   -5.2998   -0.3195 H   0  0  0  0  0  0  0  0  0  0  0  0
    7.6020   -2.8923    0.8613 H   0  0  0  0  0  0  0  0  0  0  0  0
    8.0816   -1.9015   -2.5684 H   0  0  0  0  0  0  0  0  0  0  0  0
    8.7033   -3.2549   -1.6284 H   0  0  0  0  0  0  0  0  0  0  0  0
    8.6201   -1.6585   -0.8874 H   0  0  0  0  0  0  0  0  0  0  0  0
    5.2965   -0.4414    0.5934 H   0  0  0  0  0  0  0  0  0  0  0  0
    2.0049   -0.8986    0.3490 H   0  0  0  0  0  0  0  0  0  0  0  0
    2.0085   -2.8996   -4.1432 H   0  0  0  0  0  0  0  0  0  0  0  0
    2.1023   -1.1939   -3.9070 H   0  0  0  0  0  0  0  0  0  0  0  0
    1.2091   -2.3527   -2.7355 H   0  0  0  0  0  0  0  0  0  0  0  0
    4.8626   -5.3435   -3.1547 H   0  0  0  0  0  0  0  0  0  0  0  0
    2.9018   -4.2110   -2.0818 H   0  0  0  0  0  0  0  0  0  0  0  0
    1.6131   -2.7072   -0.5133 H   0  0  0  0  0  0  0  0  0  0  0  0
    6.4210   -1.4138    2.4493 H   0  0  0  0  0  0  0  0  0  0  0  0
    6.0689   -3.0507    2.9883 H   0  0  0  0  0  0  0  0  0  0  0  0
    4.7666   -1.8550    2.8635 H   0  0  0  0  0  0  0  0  0  0  0  0
  1  2  1  0
  1 28  1  0
  1 29  1  0
  1 30  1  0
  2  6  1  0
  2  3  1  0
  2  4  1  0
  3 31  1  0
  3 32  1  0
  3 33  1  0
  5  4  1  1
  4 34  1  0
  4 35  1  0
  5 24  1  0
  5 26  1  0
  5  6  1  0
  6  7  1  0
  6 36  1  6
  7  8  1  0
  7 37  1  0
  7 38  1  0
  8 26  1  0
  8  9  1  0
  8 39  1  1
  9 22  1  0
  9 10  1  6
  9 11  1  0
 10 40  1  0
 10 41  1  0
 10 42  1  0
 11 12  1  0
 12 13  1  0
 12 26  1  0
 12 43  1  1
 13 24  1  0
 13 14  1  1
 13 15  1  0
 14 44  1  0
 15 16  1  0
 16 23  1  0
 16 17  1  6
 16 18  1  0
 17 45  1  0
 17 46  1  0
 17 47  1  0
 18 19  2  0
 18 20  1  0
 20 21  1  6
 20 22  1  0
 20 23  1  0
 21 48  1  0
 23 24  1  0
 23 49  1  6
 24 25  1  1
 25 50  1  0
 26 27  1  1
 27 51  1  0
 27 52  1  0
 27 53  1  0
M  END
>  <i_m_ct_stereo_status>  (230) 
1

>  <s_m_source_file>  (230) 
/var/tmp/pbs.5076255.sched01/tmptpdlle0r/921kky2sk3.sdf

>  <i_m_source_file_index>  (230) 
10

>  <i_lp_mmshare_version>  (230) 
48012

>  <i_f3d_flags>  (230) 
0

>  <s_epik_input>  (230) 
W0NIM11DKFtDSDNdKShbQ0gyXTEpW0NAQEhdKFtDQF0xMjMpW0NIMl1bQ0BIXTRbQ0BdNShbQ0gzXSlPW0NASF0oW0NAQF0zNFtDSDNdKVtDQF02KFtPSF0pW0NAQF0yKFtPSF0pW0NASF03W0NAXShPNikoW0NIM10pQyg9TylbQ0BdNyhPNSlbT0hd

>  <s_epik_cmdline>  (230) 
J2VwaWtfcHl0aG9uJywgJy1waHQnLCAnMi4wJywgJy1waCcsICc3LjAnLCAnLXRuJywgJzgnLCAnLW1hJywgJzIwMCcsICctaW1hZScsICc8aW5maWxlLm1hZT4nLCAnLW9tYWUnLCAnPG91dGZpbGUubWFlPic=

>  <r_lp_tautomer_probability>  (230) 
1

>  <r_epik_Ionization_Penalty>  (230) 
7.07562e-05

>  <r_epik_Ionization_Penalty_Charging>  (230) 
0

>  <r_epik_Ionization_Penalty_Neutral>  (230) 
7.07562e-05

>  <r_epik_State_Penalty>  (230) 
-0

>  <r_epik_Charging_Adjusted_Penalty>  (230) 
0

>  <i_epik_Tot_Q>  (230) 
0

>  <i_epik_Tot_abs_Q>  (230) 
0

>  <s_lp_Force_Field>  (230) 
OPLS3e

>  <r_lp_Energy>  (230) 
67.284

>  <b_lp_Chiralities_Consistent>  (230) 
1

>  <s_lp_Variant>  (230) 
61:0-1

>  <s_i_glide_gridfile>  (230) 
pfpi4k_grid

>  <i_i_glide_lignum>  (230) 
10

>  <i_i_glide_rotatable_bonds>  (230) 
3

>  <r_i_docking_score>  (230) 
-3.85041

>  <r_i_glide_ligand_efficiency>  (230) 
-0.142608

>  <r_i_glide_ligand_efficiency_sa>  (230) 
-0.427823

>  <r_i_glide_ligand_efficiency_ln>  (230) 
-0.896312

>  <r_i_glide_gscore>  (230) 
-3.85041

>  <r_i_glide_lipo>  (230) 
-0.615646

>  <r_i_glide_hbond>  (230) 
-0.35086

>  <r_i_glide_metal>  (230) 
-0

>  <r_i_glide_rewards>  (230) 
-1.08062

>  <r_i_glide_evdw>  (230) 
1.49852

>  <r_i_glide_ecoul>  (230) 
-12.1669

>  <r_i_glide_erotb>  (230) 
0

>  <r_i_glide_esite>  (230) 
-0.101461

>  <r_i_glide_emodel>  (230) 
-13.5409

>  <r_i_glide_energy>  (230) 
-10.6684

>  <r_i_glide_einternal>  (230) 
1.18836

>  <r_i_glide_intrahb_reward>  (230) 
-0

>  <i_i_glide_confnum>  (230) 
2

>  <i_i_glide_posenum>  (230) 
7

>  <r_i_glide_eff_state_penalty>  (230) 
0

>  <ligand_id>  (230) 
61

>  <original_smiles>  (230) 
CC1(C)CC23C1CC1C4(C)OC(C5(O)OC6(C)C(=O)C(O)(O4)C6C52O)C13C

>  <smiles>  (230) 
[H]OC12OC3(C([H])([H])[H])OC4([H])C5(O[H])OC(C([H])([H])[H])(C1=O)C2([H])C5(O[H])C12C([H])([H])C(C([H])([H])[H])(C([H])([H])[H])C1([H])C([H])([H])C3([H])C42C([H])([H])[H]

$$$$
63:0:0
     RDKit          3D

 22 23  0  0  1  0  0  0  0  0999 V2000
   -4.4492    3.3703    2.1334 C   0  0  0  0  0  0  0  0  0  0  0  0
   -3.2823    2.9495    2.8997 N   0  0  0  0  0  0  0  0  0  0  0  0
   -2.2507    3.7444    3.2123 C   0  0  0  0  0  0  0  0  0  0  0  0
   -2.2164    4.9357    2.8866 O   0  0  0  0  0  0  0  0  0  0  0  0
   -1.0774    3.1569    4.0242 C   0  0  2  0  0  0  0  0  0  0  0  0
   -0.1983    2.2670    3.1051 C   0  0  0  0  0  0  0  0  0  0  0  0
   -0.6151    0.5461    3.4772 S   0  0  0  0  0  0  0  0  0  0  0  0
   -1.3845    0.9468    5.0535 C   0  0  0  0  0  0  0  0  0  0  0  0
   -1.7978    0.2872    6.0825 N   0  0  0  0  0  0  0  0  0  0  0  0
   -2.2765    1.2686    7.0458 C   0  0  0  0  0  0  0  0  0  0  0  0
   -2.0576    2.5899    6.3209 C   0  0  0  0  0  0  0  0  0  0  0  0
   -2.3158    3.6968    6.7827 O   0  0  0  0  0  0  0  0  0  0  0  0
   -1.5334    2.3044    5.1346 N   0  0  0  0  0  0  0  0  0  0  0  0
   -5.1500    2.5475    2.0392 H   0  0  0  0  0  0  0  0  0  0  0  0
   -4.1822    3.6761    1.1254 H   0  0  0  0  0  0  0  0  0  0  0  0
   -4.9649    4.1964    2.6213 H   0  0  0  0  0  0  0  0  0  0  0  0
   -3.2383    1.9592    3.1287 H   0  0  0  0  0  0  0  0  0  0  0  0
   -0.4798    3.9842    4.4204 H   0  0  0  0  0  0  0  0  0  0  0  0
   -0.3063    2.4716    2.0396 H   0  0  0  0  0  0  0  0  0  0  0  0
    0.8511    2.3988    3.3687 H   0  0  0  0  0  0  0  0  0  0  0  0
   -3.3357    1.1433    7.2714 H   0  0  0  0  0  0  0  0  0  0  0  0
   -1.7095    1.2419    7.9808 H   0  0  0  0  0  0  0  0  0  0  0  0
  1  2  1  0
  1 14  1  0
  1 15  1  0
  1 16  1  0
  2  3  1  0
  2 17  1  0
  3  4  2  0
  3  5  1  0
  5 13  1  0
  5  6  1  0
  5 18  1  1
  6  7  1  0
  6 19  1  0
  6 20  1  0
  7  8  1  0
  8 13  1  0
  8  9  2  0
  9 10  1  0
 10 11  1  0
 10 21  1  0
 10 22  1  0
 11 12  2  0
 11 13  1  0
M  END
>  <i_m_ct_stereo_status>  (231) 
1

>  <s_m_source_file>  (231) 
/var/tmp/pbs.5076255.sched01/tmptpdlle0r/921kky2sk3.sdf

>  <i_m_source_file_index>  (231) 
12

>  <i_lp_mmshare_version>  (231) 
48012

>  <i_f3d_flags>  (231) 
0

>  <s_epik_input>  (231) 
W0NIM11bTkhdQyg9TylbQ0BIXShbQ0gyXVMxKU4oQzE9MilDKD1PKVtDSDJdTjI=

>  <s_epik_cmdline>  (231) 
J2VwaWtfcHl0aG9uJywgJy1waHQnLCAnMi4wJywgJy1waCcsICc3LjAnLCAnLXRuJywgJzgnLCAnLW1hJywgJzIwMCcsICctaW1hZScsICc8aW5maWxlLm1hZT4nLCAnLW9tYWUnLCAnPG91dGZpbGUubWFlPic=

>  <r_lp_tautomer_probability>  (231) 
1

>  <r_epik_Ionization_Penalty>  (231) 
1.56395e-06

>  <r_epik_Ionization_Penalty_Charging>  (231) 
0

>  <r_epik_Ionization_Penalty_Neutral>  (231) 
1.56395e-06

>  <r_epik_State_Penalty>  (231) 
-0

>  <r_epik_Charging_Adjusted_Penalty>  (231) 
0

>  <i_epik_Tot_Q>  (231) 
0

>  <i_epik_Tot_abs_Q>  (231) 
0

>  <s_epik_Chemistry_Notes>  (231) 
This compound has an imine and may undergo hydrolysis.

>  <s_lp_Force_Field>  (231) 
OPLS3e

>  <r_lp_Energy>  (231) 
-10.8945

>  <b_lp_Chiralities_Consistent>  (231) 
1

>  <s_lp_Variant>  (231) 
63:0-1

>  <s_i_glide_gridfile>  (231) 
pfpi4k_grid

>  <i_i_glide_lignum>  (231) 
12

>  <i_i_glide_rotatable_bonds>  (231) 
2

>  <r_i_docking_score>  (231) 
-5.29305

>  <r_i_glide_ligand_efficiency>  (231) 
-0.407158

>  <r_i_glide_ligand_efficiency_sa>  (231) 
-0.957365

>  <r_i_glide_ligand_efficiency_ln>  (231) 
-1.48475

>  <r_i_glide_gscore>  (231) 
-5.29305

>  <r_i_glide_lipo>  (231) 
-0.204417

>  <r_i_glide_hbond>  (231) 
-0.563003

>  <r_i_glide_metal>  (231) 
-0

>  <r_i_glide_rewards>  (231) 
-2.16585

>  <r_i_glide_evdw>  (231) 
-18.6179

>  <r_i_glide_ecoul>  (231) 
-8.62706

>  <r_i_glide_erotb>  (231) 
0

>  <r_i_glide_esite>  (231) 
-0.134834

>  <r_i_glide_emodel>  (231) 
-35.7777

>  <r_i_glide_energy>  (231) 
-27.2449

>  <r_i_glide_einternal>  (231) 
1.88502

>  <r_i_glide_intrahb_reward>  (231) 
-0

>  <i_i_glide_confnum>  (231) 
1

>  <i_i_glide_posenum>  (231) 
27

>  <r_i_glide_eff_state_penalty>  (231) 
0

>  <ligand_id>  (231) 
63

>  <original_smiles>  (231) 
CNC(=O)C1CSC2=NCC(=O)N21

>  <smiles>  (231) 
[H]N(C(=O)C1([H])N2C(=O)C([H])([H])N=C2SC1([H])[H])C([H])([H])[H]

$$$$
63:0:1
     RDKit          3D

 22 23  0  0  1  0  0  0  0  0999 V2000
    2.3734   -2.8285   -3.9161 C   0  0  0  0  0  0  0  0  0  0  0  0
    2.6251   -2.3860   -2.5487 N   0  0  0  0  0  0  0  0  0  0  0  0
    3.8193   -2.4183   -1.9441 C   0  0  0  0  0  0  0  0  0  0  0  0
    4.8651   -2.7223   -2.5237 O   0  0  0  0  0  0  0  0  0  0  0  0
    3.8387   -2.0241   -0.4519 C   0  0  2  0  0  0  0  0  0  0  0  0
    4.7702   -0.8043   -0.2365 C   0  0  0  0  0  0  0  0  0  0  0  0
    6.3247   -1.4298    0.4466 S   0  0  0  0  0  0  0  0  0  0  0  0
    5.6096   -2.9986    0.9322 C   0  0  0  0  0  0  0  0  0  0  0  0
    5.9745   -3.9940    1.6710 N   0  0  0  0  0  0  0  0  0  0  0  0
    4.8661   -4.9328    1.6740 C   0  0  0  0  0  0  0  0  0  0  0  0
    3.8300   -4.2592    0.7743 C   0  0  0  0  0  0  0  0  0  0  0  0
    2.7066   -4.6987    0.5264 O   0  0  0  0  0  0  0  0  0  0  0  0
    4.3667   -3.1157    0.3724 N   0  0  0  0  0  0  0  0  0  0  0  0
    1.3356   -2.6409   -4.1915 H   0  0  0  0  0  0  0  0  0  0  0  0
    2.5471   -3.9006   -4.0072 H   0  0  0  0  0  0  0  0  0  0  0  0
    3.0188   -2.3079   -4.6252 H   0  0  0  0  0  0  0  0  0  0  0  0
    1.8375   -2.0466   -2.0069 H   0  0  0  0  0  0  0  0  0  0  0  0
    2.8299   -1.7692   -0.1229 H   0  0  0  0  0  0  0  0  0  0  0  0
    4.9493   -0.2460   -1.1491 H   0  0  0  0  0  0  0  0  0  0  0  0
    4.3309   -0.1331    0.5016 H   0  0  0  0  0  0  0  0  0  0  0  0
    5.1583   -5.9054    1.2799 H   0  0  0  0  0  0  0  0  0  0  0  0
    4.4666   -5.0837    2.6782 H   0  0  0  0  0  0  0  0  0  0  0  0
  1  2  1  0
  1 14  1  0
  1 15  1  0
  1 16  1  0
  2  3  1  0
  2 17  1  0
  3  4  2  0
  3  5  1  0
  5 13  1  0
  5  6  1  0
  5 18  1  1
  6  7  1  0
  6 19  1  0
  6 20  1  0
  7  8  1  0
  8 13  1  0
  8  9  2  0
  9 10  1  0
 10 11  1  0
 10 21  1  0
 10 22  1  0
 11 12  2  0
 11 13  1  0
M  END
>  <i_m_ct_stereo_status>  (232) 
1

>  <s_m_source_file>  (232) 
/var/tmp/pbs.5076255.sched01/tmptpdlle0r/921kky2sk3.sdf

>  <i_m_source_file_index>  (232) 
12

>  <i_lp_mmshare_version>  (232) 
48012

>  <i_f3d_flags>  (232) 
0

>  <s_epik_input>  (232) 
W0NIM11bTkhdQyg9TylbQ0BIXShbQ0gyXVMxKU4oQzE9MilDKD1PKVtDSDJdTjI=

>  <s_epik_cmdline>  (232) 
J2VwaWtfcHl0aG9uJywgJy1waHQnLCAnMi4wJywgJy1waCcsICc3LjAnLCAnLXRuJywgJzgnLCAnLW1hJywgJzIwMCcsICctaW1hZScsICc8aW5maWxlLm1hZT4nLCAnLW9tYWUnLCAnPG91dGZpbGUubWFlPic=

>  <r_lp_tautomer_probability>  (232) 
1

>  <r_epik_Ionization_Penalty>  (232) 
1.56395e-06

>  <r_epik_Ionization_Penalty_Charging>  (232) 
0

>  <r_epik_Ionization_Penalty_Neutral>  (232) 
1.56395e-06

>  <r_epik_State_Penalty>  (232) 
-0

>  <r_epik_Charging_Adjusted_Penalty>  (232) 
0

>  <i_epik_Tot_Q>  (232) 
0

>  <i_epik_Tot_abs_Q>  (232) 
0

>  <s_epik_Chemistry_Notes>  (232) 
This compound has an imine and may undergo hydrolysis.

>  <s_lp_Force_Field>  (232) 
OPLS3e

>  <r_lp_Energy>  (232) 
-10.8945

>  <b_lp_Chiralities_Consistent>  (232) 
1

>  <s_lp_Variant>  (232) 
63:0-1

>  <s_i_glide_gridfile>  (232) 
pfpi4k_grid

>  <i_i_glide_lignum>  (232) 
12

>  <i_i_glide_rotatable_bonds>  (232) 
2

>  <r_i_docking_score>  (232) 
-4.22348

>  <r_i_glide_ligand_efficiency>  (232) 
-0.324883

>  <r_i_glide_ligand_efficiency_sa>  (232) 
-0.763909

>  <r_i_glide_ligand_efficiency_ln>  (232) 
-1.18472

>  <r_i_glide_gscore>  (232) 
-4.22348

>  <r_i_glide_lipo>  (232) 
-0.246225

>  <r_i_glide_hbond>  (232) 
-0.16

>  <r_i_glide_metal>  (232) 
-0

>  <r_i_glide_rewards>  (232) 
-2.16644

>  <r_i_glide_evdw>  (232) 
-20.2826

>  <r_i_glide_ecoul>  (232) 
-3.72866

>  <r_i_glide_erotb>  (232) 
0

>  <r_i_glide_esite>  (232) 
-0.0773858

>  <r_i_glide_emodel>  (232) 
-31.0176

>  <r_i_glide_energy>  (232) 
-24.0112

>  <r_i_glide_einternal>  (232) 
1.08582

>  <r_i_glide_intrahb_reward>  (232) 
-0

>  <i_i_glide_confnum>  (232) 
1

>  <i_i_glide_posenum>  (232) 
2

>  <r_i_glide_eff_state_penalty>  (232) 
0

>  <ligand_id>  (232) 
63

>  <original_smiles>  (232) 
CNC(=O)C1CSC2=NCC(=O)N21

>  <smiles>  (232) 
[H]N(C(=O)C1([H])N2C(=O)C([H])([H])N=C2SC1([H])[H])C([H])([H])[H]

$$$$
63:0:2
     RDKit          3D

 22 23  0  0  1  0  0  0  0  0999 V2000
    2.6211   -3.1556   -4.0568 C   0  0  0  0  0  0  0  0  0  0  0  0
    3.0678   -3.0624   -2.6810 N   0  0  0  0  0  0  0  0  0  0  0  0
    3.5333   -1.9426   -2.1131 C   0  0  0  0  0  0  0  0  0  0  0  0
    3.6445   -0.8945   -2.7513 O   0  0  0  0  0  0  0  0  0  0  0  0
    3.9314   -1.9905   -0.6142 C   0  0  2  0  0  0  0  0  0  0  0  0
    5.1842   -1.1034   -0.3479 C   0  0  0  0  0  0  0  0  0  0  0  0
    6.6014   -2.2256   -0.2432 S   0  0  0  0  0  0  0  0  0  0  0  0
    5.5799   -3.6633    0.0882 C   0  0  0  0  0  0  0  0  0  0  0  0
    5.7937   -4.8776    0.4700 N   0  0  0  0  0  0  0  0  0  0  0  0
    4.4952   -5.5209    0.5576 C   0  0  0  0  0  0  0  0  0  0  0  0
    3.5310   -4.4186    0.1377 C   0  0  0  0  0  0  0  0  0  0  0  0
    2.3086   -4.5424    0.0588 O   0  0  0  0  0  0  0  0  0  0  0  0
    4.2657   -3.3434   -0.1305 N   0  0  0  0  0  0  0  0  0  0  0  0
    2.2159   -4.1499   -4.2477 H   0  0  0  0  0  0  0  0  0  0  0  0
    3.4649   -2.9931   -4.7220 H   0  0  0  0  0  0  0  0  0  0  0  0
    1.8452   -2.4202   -4.2755 H   0  0  0  0  0  0  0  0  0  0  0  0
    2.9890   -3.9056   -2.1279 H   0  0  0  0  0  0  0  0  0  0  0  0
    3.0810   -1.6072   -0.0442 H   0  0  0  0  0  0  0  0  0  0  0  0
    5.3743   -0.3239   -1.0842 H   0  0  0  0  0  0  0  0  0  0  0  0
    5.0787   -0.6067    0.6164 H   0  0  0  0  0  0  0  0  0  0  0  0
    4.4245   -6.3723   -0.1200 H   0  0  0  0  0  0  0  0  0  0  0  0
    4.2691   -5.8543    1.5715 H   0  0  0  0  0  0  0  0  0  0  0  0
  1  2  1  0
  1 14  1  0
  1 15  1  0
  1 16  1  0
  2  3  1  0
  2 17  1  0
  3  4  2  0
  3  5  1  0
  5 13  1  0
  5  6  1  0
  5 18  1  1
  6  7  1  0
  6 19  1  0
  6 20  1  0
  7  8  1  0
  8 13  1  0
  8  9  2  0
  9 10  1  0
 10 11  1  0
 10 21  1  0
 10 22  1  0
 11 12  2  0
 11 13  1  0
M  END
>  <i_m_ct_stereo_status>  (233) 
1

>  <s_m_source_file>  (233) 
/var/tmp/pbs.5076255.sched01/tmptpdlle0r/921kky2sk3.sdf

>  <i_m_source_file_index>  (233) 
12

>  <i_lp_mmshare_version>  (233) 
48012

>  <i_f3d_flags>  (233) 
0

>  <s_epik_input>  (233) 
W0NIM11bTkhdQyg9TylbQ0BIXShbQ0gyXVMxKU4oQzE9MilDKD1PKVtDSDJdTjI=

>  <s_epik_cmdline>  (233) 
J2VwaWtfcHl0aG9uJywgJy1waHQnLCAnMi4wJywgJy1waCcsICc3LjAnLCAnLXRuJywgJzgnLCAnLW1hJywgJzIwMCcsICctaW1hZScsICc8aW5maWxlLm1hZT4nLCAnLW9tYWUnLCAnPG91dGZpbGUubWFlPic=

>  <r_lp_tautomer_probability>  (233) 
1

>  <r_epik_Ionization_Penalty>  (233) 
1.56395e-06

>  <r_epik_Ionization_Penalty_Charging>  (233) 
0

>  <r_epik_Ionization_Penalty_Neutral>  (233) 
1.56395e-06

>  <r_epik_State_Penalty>  (233) 
-0

>  <r_epik_Charging_Adjusted_Penalty>  (233) 
0

>  <i_epik_Tot_Q>  (233) 
0

>  <i_epik_Tot_abs_Q>  (233) 
0

>  <s_epik_Chemistry_Notes>  (233) 
This compound has an imine and may undergo hydrolysis.

>  <s_lp_Force_Field>  (233) 
OPLS3e

>  <r_lp_Energy>  (233) 
-10.8945

>  <b_lp_Chiralities_Consistent>  (233) 
1

>  <s_lp_Variant>  (233) 
63:0-1

>  <s_i_glide_gridfile>  (233) 
pfpi4k_grid

>  <i_i_glide_lignum>  (233) 
12

>  <i_i_glide_rotatable_bonds>  (233) 
2

>  <r_i_docking_score>  (233) 
-4.09339

>  <r_i_glide_ligand_efficiency>  (233) 
-0.314876

>  <r_i_glide_ligand_efficiency_sa>  (233) 
-0.740379

>  <r_i_glide_ligand_efficiency_ln>  (233) 
-1.14823

>  <r_i_glide_gscore>  (233) 
-4.09339

>  <r_i_glide_lipo>  (233) 
-0.141838

>  <r_i_glide_hbond>  (233) 
-0.0985541

>  <r_i_glide_metal>  (233) 
-0

>  <r_i_glide_rewards>  (233) 
-2.17993

>  <r_i_glide_evdw>  (233) 
-22.0814

>  <r_i_glide_ecoul>  (233) 
-3.15949

>  <r_i_glide_erotb>  (233) 
0

>  <r_i_glide_esite>  (233) 
-0.0950759

>  <r_i_glide_emodel>  (233) 
-31.92

>  <r_i_glide_energy>  (233) 
-25.2409

>  <r_i_glide_einternal>  (233) 
1.26012

>  <r_i_glide_intrahb_reward>  (233) 
-0

>  <i_i_glide_confnum>  (233) 
2

>  <i_i_glide_posenum>  (233) 
9

>  <r_i_glide_eff_state_penalty>  (233) 
0

>  <ligand_id>  (233) 
63

>  <original_smiles>  (233) 
CNC(=O)C1CSC2=NCC(=O)N21

>  <smiles>  (233) 
[H]N(C(=O)C1([H])N2C(=O)C([H])([H])N=C2SC1([H])[H])C([H])([H])[H]

$$$$
64:0:0
     RDKit          3D

 81 88  0  0  1  0  0  0  0  0999 V2000
    2.5290   -4.6526   -0.6774 C   0  0  0  0  0  0  0  0  0  0  0  0
    4.0536   -4.3839   -0.8805 C   0  0  0  0  0  0  0  0  0  0  0  0
    4.7639   -5.7357   -0.5576 C   0  0  0  0  0  0  0  0  0  0  0  0
    4.3408   -3.8760   -2.3290 C   0  0  0  0  0  0  0  0  0  0  0  0
    5.0222   -4.6321   -3.0946 O   0  0  0  0  0  0  0  0  0  0  0  0
    3.7553   -2.5408   -2.7649 C   0  0  0  0  0  0  0  0  0  0  0  0
    3.2143   -1.8050   -1.5069 C   0  0  0  0  0  0  0  0  0  0  0  0
    4.1382   -1.8361   -0.2383 C   0  0  2  0  0  0  0  0  0  0  0  0
    3.2943   -1.2590    0.9351 C   0  0  0  0  0  0  0  0  0  0  0  0
    3.9526   -0.8922    2.1411 O   0  0  0  0  0  0  0  0  0  0  0  0
    4.2334   -1.7107    3.2830 C   0  0  2  0  0  0  0  0  0  0  0  0
    4.8113   -0.5148    4.1495 C   0  0  0  0  0  0  0  0  0  0  0  0
    3.8778    0.4189    4.6535 O   0  0  0  0  0  0  0  0  0  0  0  0
    5.4346   -2.7097    2.9969 C   0  0  1  0  0  0  0  0  0  0  0  0
    5.1772   -4.1827    3.2495 C   0  0  0  0  0  0  0  0  0  0  0  0
    3.9809   -4.7411    3.4713 C   0  0  0  0  0  0  0  0  0  0  0  0
    3.8726   -6.2586    3.6124 C   0  0  1  0  0  0  0  0  0  0  0  0
    3.9920   -6.7345    5.0928 C   0  0  0  0  0  0  0  0  0  0  0  0
    2.7454   -6.5174    6.0144 C   0  0  0  0  0  0  0  0  0  0  0  0
    1.3876   -6.7986    5.3188 C   0  0  0  0  0  0  0  0  0  0  0  0
    1.4473   -6.1200    3.9579 C   0  0  2  0  0  0  0  0  0  0  0  0
    1.4460   -4.5801    4.0536 C   0  0  0  0  0  0  0  0  0  0  0  0
    2.7159   -3.8728    3.4734 C   0  0  1  0  0  0  0  0  0  0  0  0
    2.9940   -2.4212    4.0146 C   0  0  0  0  0  0  0  0  0  0  0  0
    3.3153   -2.5444    5.5387 C   0  0  0  0  0  0  0  0  0  0  0  0
    1.6810   -1.6121    3.8408 C   0  0  0  0  0  0  0  0  0  0  0  0
    0.5262   -6.7127    2.5285 S   0  0  0  0  0  0  0  0  0  0  0  0
    1.8726   -6.4316    1.9057 O   0  0  0  0  0  0  0  0  0  0  0  0
    2.5391   -6.7711    3.1569 C   0  0  1  0  0  0  0  0  0  0  0  0
    6.3730   -2.5142    1.7485 C   0  0  2  0  0  0  0  0  0  0  0  0
    6.9420   -1.0918    1.5752 C   0  0  0  0  0  0  0  0  0  0  0  0
    6.1607   -0.2594    0.5311 C   0  0  0  0  0  0  0  0  0  0  0  0
    5.5145   -1.1270   -0.5738 C   0  0  2  0  0  0  0  0  0  0  0  0
    5.4154   -0.3382   -1.7440 O   0  0  0  0  0  0  0  0  0  0  0  0
    6.5211   -2.2805   -0.7652 C   0  0  0  0  0  0  0  0  0  0  0  0
    6.0460   -3.1896    0.3812 C   0  0  2  0  0  0  0  0  0  0  0  0
    4.5280   -3.2902    0.1365 C   0  0  2  0  0  0  0  0  0  0  0  0
    2.1473   -4.3196    0.2823 H   0  0  0  0  0  0  0  0  0  0  0  0
    2.3066   -5.7144   -0.6587 H   0  0  0  0  0  0  0  0  0  0  0  0
    1.8863   -4.2820   -1.4747 H   0  0  0  0  0  0  0  0  0  0  0  0
    4.7051   -5.9909    0.5007 H   0  0  0  0  0  0  0  0  0  0  0  0
    5.8136   -5.6909   -0.8103 H   0  0  0  0  0  0  0  0  0  0  0  0
    4.3619   -6.6050   -1.0911 H   0  0  0  0  0  0  0  0  0  0  0  0
    4.5195   -1.9459   -3.2906 H   0  0  0  0  0  0  0  0  0  0  0  0
    2.9112   -2.7189   -3.4411 H   0  0  0  0  0  0  0  0  0  0  0  0
    2.9660   -0.7748   -1.7792 H   0  0  0  0  0  0  0  0  0  0  0  0
    2.2693   -2.2759   -1.2476 H   0  0  0  0  0  0  0  0  0  0  0  0
    2.8854   -0.3238    0.5623 H   0  0  0  0  0  0  0  0  0  0  0  0
    2.4424   -1.9065    1.1203 H   0  0  0  0  0  0  0  0  0  0  0  0
    5.3781   -0.8631    5.0129 H   0  0  0  0  0  0  0  0  0  0  0  0
    5.4905    0.1144    3.5855 H   0  0  0  0  0  0  0  0  0  0  0  0
    3.2318   -0.0481    5.1628 H   0  0  0  0  0  0  0  0  0  0  0  0
    6.0850   -2.5514    3.8438 H   0  0  0  0  0  0  0  0  0  0  0  0
    6.0535   -4.8174    3.2578 H   0  0  0  0  0  0  0  0  0  0  0  0
    4.6648   -6.7208    3.0150 H   0  0  0  0  0  0  0  0  0  0  0  0
    4.1971   -7.8049    5.0739 H   0  0  0  0  0  0  0  0  0  0  0  0
    4.8650   -6.2855    5.5523 H   0  0  0  0  0  0  0  0  0  0  0  0
    2.8391   -7.1237    6.9156 H   0  0  0  0  0  0  0  0  0  0  0  0
    2.7512   -5.4855    6.3632 H   0  0  0  0  0  0  0  0  0  0  0  0
    1.2698   -7.8761    5.2035 H   0  0  0  0  0  0  0  0  0  0  0  0
    0.5402   -6.4599    5.9130 H   0  0  0  0  0  0  0  0  0  0  0  0
    0.5670   -4.1845    3.5423 H   0  0  0  0  0  0  0  0  0  0  0  0
    1.2722   -4.3059    5.0882 H   0  0  0  0  0  0  0  0  0  0  0  0
    2.4759   -3.7837    2.4211 H   0  0  0  0  0  0  0  0  0  0  0  0
    2.5695   -3.0968    6.1004 H   0  0  0  0  0  0  0  0  0  0  0  0
    3.3690   -1.5869    6.0525 H   0  0  0  0  0  0  0  0  0  0  0  0
    4.2664   -3.0449    5.7108 H   0  0  0  0  0  0  0  0  0  0  0  0
    0.9437   -1.8862    4.5946 H   0  0  0  0  0  0  0  0  0  0  0  0
    1.2182   -1.8011    2.8755 H   0  0  0  0  0  0  0  0  0  0  0  0
    1.8055   -0.5369    3.8957 H   0  0  0  0  0  0  0  0  0  0  0  0
    2.5262   -7.8633    3.2817 H   0  0  0  0  0  0  0  0  0  0  0  0
    7.2340   -3.1059    2.0142 H   0  0  0  0  0  0  0  0  0  0  0  0
    7.0320   -0.6259    2.5375 H   0  0  0  0  0  0  0  0  0  0  0  0
    7.9875   -1.1485    1.2353 H   0  0  0  0  0  0  0  0  0  0  0  0
    5.4668    0.4388    0.9793 H   0  0  0  0  0  0  0  0  0  0  0  0
    6.8980    0.3888    0.0810 H   0  0  0  0  0  0  0  0  0  0  0  0
    5.3467    0.5908   -1.4756 H   0  0  0  0  0  0  0  0  0  0  0  0
    6.4777   -2.7458   -1.7364 H   0  0  0  0  0  0  0  0  0  0  0  0
    7.5800   -2.0151   -0.7004 H   0  0  0  0  0  0  0  0  0  0  0  0
    6.5611   -4.1505    0.3601 H   0  0  0  0  0  0  0  0  0  0  0  0
    4.0579   -3.5863    1.0613 H   0  0  0  0  0  0  0  0  0  0  0  0
  1  2  1  0
  1 38  1  0
  1 39  1  0
  1 40  1  0
  2 37  1  0
  2  3  1  0
  2  4  1  0
  3 41  1  0
  3 42  1  0
  3 43  1  0
  4  5  2  0
  4  6  1  0
  6  7  1  0
  6 44  1  0
  6 45  1  0
  8  7  1  6
  7 46  1  0
  7 47  1  0
  8 33  1  0
  8 37  1  0
  8  9  1  0
  9 10  1  0
  9 48  1  0
  9 49  1  0
 10 11  1  0
 11 24  1  0
 11 12  1  1
 11 14  1  0
 12 13  1  0
 12 50  1  0
 12 51  1  0
 13 52  1  0
 14 15  1  0
 14 30  1  0
 14 53  1  1
 15 16  2  0
 15 54  1  0
 16 23  1  0
 16 17  1  0
 17 29  1  0
 17 18  1  0
 17 55  1  6
 18 19  1  0
 18 56  1  0
 18 57  1  0
 19 20  1  0
 19 58  1  0
 19 59  1  0
 20 21  1  0
 20 60  1  0
 20 61  1  0
 21 29  1  0
 21 22  1  0
 21 27  1  6
 22 23  1  0
 22 62  1  0
 22 63  1  0
 23 24  1  0
 23 64  1  6
 24 25  1  0
 24 26  1  0
 25 65  1  0
 25 66  1  0
 25 67  1  0
 26 68  1  0
 26 69  1  0
 26 70  1  0
 27 28  1  0
 28 29  1  0
 29 71  1  1
 30 36  1  0
 30 31  1  0
 30 72  1  1
 31 32  1  0
 31 73  1  0
 31 74  1  0
 32 33  1  0
 32 75  1  0
 32 76  1  0
 33 34  1  6
 33 35  1  0
 34 77  1  0
 35 36  1  0
 35 78  1  0
 35 79  1  0
 36 37  1  0
 36 80  1  1
 37 81  1  1
M  END
>  <i_m_ct_stereo_status>  (234) 
1

>  <s_m_source_file>  (234) 
/var/tmp/pbs.5076255.sched01/tmptpdlle0r/921kky2sk3.sdf

>  <i_m_source_file_index>  (234) 
13

>  <i_lp_mmshare_version>  (234) 
48012

>  <i_f3d_flags>  (234) 
0

>  <s_epik_input>  (234) 
W0NIMl0xW0NIMl1DKD1PKUMoW0NIM10pKFtDSDNdKVtDQEhdMltDQEBIXShbQ0gyXTMpW0NAQEhdKFtDSDJdW0NIMl1bQ0BAXTMoW0NAQF0xMjQpW09IXSlbQ0BIXTVbQ0BdKE9bQ0gyXTQpKFtDSDJdW09IXSlDKFtDSDNdKShbQ0gzXSlbQ0BIXTZDKD1bQ0hdNSlbQ0BASF03W0NASF04W0NAQF0oW0NIMl02KShTTzgpW0NIMl1bQ0gyXVtDSDJdNw==

>  <s_epik_cmdline>  (234) 
J2VwaWtfcHl0aG9uJywgJy1waHQnLCAnMi4wJywgJy1waCcsICc3LjAnLCAnLXRuJywgJzgnLCAnLW1hJywgJzIwMCcsICctaW1hZScsICc8aW5maWxlLm1hZT4nLCAnLW9tYWUnLCAnPG91dGZpbGUubWFlPic=

>  <r_lp_tautomer_probability>  (234) 
1

>  <r_epik_Ionization_Penalty>  (234) 
9.29094e-07

>  <r_epik_Ionization_Penalty_Charging>  (234) 
0

>  <r_epik_Ionization_Penalty_Neutral>  (234) 
9.29094e-07

>  <r_epik_State_Penalty>  (234) 
-0

>  <r_epik_Charging_Adjusted_Penalty>  (234) 
0

>  <i_epik_Tot_Q>  (234) 
0

>  <i_epik_Tot_abs_Q>  (234) 
0

>  <s_lp_Force_Field>  (234) 
OPLS3e

>  <r_lp_Energy>  (234) 
135.018

>  <b_lp_Chiralities_Consistent>  (234) 
1

>  <s_lp_Variant>  (234) 
64:0-1

>  <s_i_glide_gridfile>  (234) 
pfpi4k_grid

>  <i_i_glide_lignum>  (234) 
13

>  <i_i_glide_rotatable_bonds>  (234) 
3

>  <r_i_docking_score>  (234) 
-1.30117

>  <r_i_glide_ligand_efficiency>  (234) 
-0.0351667

>  <r_i_glide_ligand_efficiency_sa>  (234) 
-0.117183

>  <r_i_glide_ligand_efficiency_ln>  (234) 
-0.282193

>  <r_i_glide_gscore>  (234) 
-1.30117

>  <r_i_glide_lipo>  (234) 
-0.411472

>  <r_i_glide_hbond>  (234) 
-0.256227

>  <r_i_glide_metal>  (234) 
-0

>  <r_i_glide_rewards>  (234) 
0

>  <r_i_glide_evdw>  (234) 
6.03051

>  <r_i_glide_ecoul>  (234) 
-6.47188

>  <r_i_glide_erotb>  (234) 
0.0736965

>  <r_i_glide_esite>  (234) 
-0.0379091

>  <r_i_glide_emodel>  (234) 
-1.85911

>  <r_i_glide_energy>  (234) 
-0.441366

>  <r_i_glide_einternal>  (234) 
0.576167

>  <r_i_glide_intrahb_reward>  (234) 
-0

>  <i_i_glide_confnum>  (234) 
6

>  <i_i_glide_posenum>  (234) 
27

>  <r_i_glide_eff_state_penalty>  (234) 
0

>  <ligand_id>  (234) 
64

>  <original_smiles>  (234) 
CC1(C)C(=O)CCC23COC4(CO)C(C=C5C6CCCC7(CC5C4(C)C)SOC67)C4CCC2(O)CC4C13

>  <smiles>  (234) 
[H]OC([H])([H])C12OC([H])([H])C34C([H])([H])C([H])([H])C(=O)C(C([H])([H])[H])(C([H])([H])[H])C3([H])C3([H])C([H])([H])C4(O[H])C([H])([H])C([H])([H])C3([H])C1([H])C([H])=C1C3([H])C([H])([H])C([H])([H])C([H])([H])C4(SOC34[H])C([H])([H])C1([H])C2(C([H])([H])[H])C([H])([H])[H]

$$$$
65:0:0
     RDKit          3D

 64 68  0  0  1  0  0  0  0  0999 V2000
    7.2172   -6.7959    1.5982 C   0  0  0  0  0  0  0  0  0  0  0  0
    6.2252   -5.9156    1.3739 C   0  0  0  0  0  0  0  0  0  0  0  0
    6.4270   -4.4773    1.3470 C   0  0  0  0  0  0  0  0  0  0  0  0
    7.5076   -3.9173    1.4924 O   0  0  0  0  0  0  0  0  0  0  0  0
    5.1297   -3.7131    1.0291 C   0  0  1  0  0  0  0  0  0  0  0  0
    4.3211   -4.8605    0.3162 C   0  0  1  0  0  0  0  0  0  0  0  0
    4.6498   -4.9865   -1.0439 O   0  0  0  0  0  0  0  0  0  0  0  0
    4.8051   -6.1914    0.9401 C   0  0  2  0  0  0  0  0  0  0  0  0
    3.9351   -6.6976    2.1004 C   0  0  0  0  0  0  0  0  0  0  0  0
    3.1882   -5.6575    2.9780 C   0  0  1  0  0  0  0  0  0  0  0  0
    2.8684   -6.2650    4.3625 C   0  0  1  0  0  0  0  0  0  0  0  0
    2.3038   -7.6982    4.3811 C   0  0  0  0  0  0  0  0  0  0  0  0
    4.1612   -6.0693    5.1832 C   0  0  0  0  0  0  0  0  0  0  0  0
    4.9574   -4.9488    4.4819 C   0  0  0  0  0  0  0  0  0  0  0  0
    3.9861   -4.4079    3.4106 C   0  0  1  0  0  0  0  0  0  0  0  0
    4.3979   -3.2761    2.3797 C   0  0  1  0  0  0  0  0  0  0  0  0
    5.2357   -2.2576    3.2033 C   0  0  0  0  0  0  0  0  0  0  0  0
    3.0861   -2.5327    1.9842 C   0  0  0  0  0  0  0  0  0  0  0  0
    3.3245   -1.2650    1.1654 C   0  0  0  0  0  0  0  0  0  0  0  0
    4.2012   -1.4882   -0.0694 C   0  0  2  0  0  0  0  0  0  0  0  0
    3.4049   -1.9841   -1.1360 O   0  0  0  0  0  0  0  0  0  0  0  0
    3.9896   -1.9065   -2.4360 C   0  0  0  0  0  0  0  0  0  0  0  0
    3.1633   -2.8341   -3.3349 C   0  0  0  0  0  0  0  0  0  0  0  0
    3.9141   -0.4723   -2.9932 C   0  0  0  0  0  0  0  0  0  0  0  0
    5.4298   -2.3716   -2.3840 C   0  0  0  0  0  0  0  0  0  0  0  0
    6.1119   -2.5979   -1.2456 C   0  0  0  0  0  0  0  0  0  0  0  0
    7.5782   -2.9977   -1.2997 C   0  0  0  0  0  0  0  0  0  0  0  0
    5.4330   -2.4163    0.1318 C   0  0  2  0  0  0  0  0  0  0  0  0
    7.0566   -7.8601    1.5430 H   0  0  0  0  0  0  0  0  0  0  0  0
    8.2157   -6.4719    1.8437 H   0  0  0  0  0  0  0  0  0  0  0  0
    3.2363   -4.7700    0.3612 H   0  0  0  0  0  0  0  0  0  0  0  0
    3.9581   -5.4614   -1.5023 H   0  0  0  0  0  0  0  0  0  0  0  0
    4.8599   -6.9947    0.1978 H   0  0  0  0  0  0  0  0  0  0  0  0
    3.1750   -7.3531    1.6718 H   0  0  0  0  0  0  0  0  0  0  0  0
    4.5587   -7.3413    2.7239 H   0  0  0  0  0  0  0  0  0  0  0  0
    2.2663   -5.3519    2.4823 H   0  0  0  0  0  0  0  0  0  0  0  0
    2.1043   -5.6314    4.8174 H   0  0  0  0  0  0  0  0  0  0  0  0
    3.0244   -8.4376    4.0322 H   0  0  0  0  0  0  0  0  0  0  0  0
    1.4165   -7.7777    3.7546 H   0  0  0  0  0  0  0  0  0  0  0  0
    2.0160   -7.9888    5.3910 H   0  0  0  0  0  0  0  0  0  0  0  0
    3.9177   -5.8068    6.2135 H   0  0  0  0  0  0  0  0  0  0  0  0
    4.7542   -6.9822    5.2158 H   0  0  0  0  0  0  0  0  0  0  0  0
    5.2580   -4.1814    5.1978 H   0  0  0  0  0  0  0  0  0  0  0  0
    5.8642   -5.3577    4.0391 H   0  0  0  0  0  0  0  0  0  0  0  0
    3.2844   -3.8657    4.0475 H   0  0  0  0  0  0  0  0  0  0  0  0
    4.6713   -1.8860    4.0594 H   0  0  0  0  0  0  0  0  0  0  0  0
    5.5637   -1.3788    2.6519 H   0  0  0  0  0  0  0  0  0  0  0  0
    6.1389   -2.7138    3.5901 H   0  0  0  0  0  0  0  0  0  0  0  0
    2.4153   -3.1792    1.4232 H   0  0  0  0  0  0  0  0  0  0  0  0
    2.5160   -2.2488    2.8703 H   0  0  0  0  0  0  0  0  0  0  0  0
    2.3600   -0.8566    0.8637 H   0  0  0  0  0  0  0  0  0  0  0  0
    3.7684   -0.4960    1.7936 H   0  0  0  0  0  0  0  0  0  0  0  0
    4.5677   -0.4988   -0.3485 H   0  0  0  0  0  0  0  0  0  0  0  0
    3.5529   -2.8480   -4.3538 H   0  0  0  0  0  0  0  0  0  0  0  0
    2.1234   -2.5098   -3.3806 H   0  0  0  0  0  0  0  0  0  0  0  0
    3.1817   -3.8525   -2.9548 H   0  0  0  0  0  0  0  0  0  0  0  0
    4.2501   -0.4166   -4.0299 H   0  0  0  0  0  0  0  0  0  0  0  0
    4.5395    0.2128   -2.4208 H   0  0  0  0  0  0  0  0  0  0  0  0
    2.8900   -0.0943   -2.9596 H   0  0  0  0  0  0  0  0  0  0  0  0
    5.8958   -2.5389   -3.3389 H   0  0  0  0  0  0  0  0  0  0  0  0
    8.1780   -2.4027   -0.6139 H   0  0  0  0  0  0  0  0  0  0  0  0
    7.9797   -2.8657   -2.3051 H   0  0  0  0  0  0  0  0  0  0  0  0
    7.7110   -4.0415   -1.0378 H   0  0  0  0  0  0  0  0  0  0  0  0
    6.1659   -1.8169    0.6653 H   0  0  0  0  0  0  0  0  0  0  0  0
  1  2  2  0
  1 29  1  0
  1 30  1  0
  2  8  1  0
  2  3  1  0
  3  4  2  0
  5  3  1  1
  5 16  1  0
  5 28  1  0
  5  6  1  0
  6  7  1  0
  6  8  1  0
  6 31  1  6
  7 32  1  0
  8  9  1  0
  8 33  1  6
  9 10  1  0
  9 34  1  0
  9 35  1  0
 10 15  1  0
 10 11  1  0
 10 36  1  6
 11 12  1  0
 11 13  1  0
 11 37  1  1
 12 38  1  0
 12 39  1  0
 12 40  1  0
 13 14  1  0
 13 41  1  0
 13 42  1  0
 14 15  1  0
 14 43  1  0
 14 44  1  0
 15 16  1  0
 15 45  1  1
 16 17  1  1
 16 18  1  0
 17 46  1  0
 17 47  1  0
 17 48  1  0
 18 19  1  0
 18 49  1  0
 18 50  1  0
 19 20  1  0
 19 51  1  0
 19 52  1  0
 20 28  1  0
 20 21  1  0
 20 53  1  6
 21 22  1  0
 22 23  1  0
 22 24  1  0
 22 25  1  0
 23 54  1  0
 23 55  1  0
 23 56  1  0
 24 57  1  0
 24 58  1  0
 24 59  1  0
 25 26  2  0
 25 60  1  0
 26 27  1  0
 26 28  1  0
 27 61  1  0
 27 62  1  0
 27 63  1  0
 28 64  1  1
M  END
>  <i_m_ct_stereo_status>  (235) 
1

>  <s_m_source_file>  (235) 
/var/tmp/pbs.5076255.sched01/tmptpdlle0r/921kky2sk3.sdf

>  <i_m_source_file_index>  (235) 
14

>  <i_lp_mmshare_version>  (235) 
48012

>  <i_f3d_flags>  (235) 
0

>  <s_epik_input>  (235) 
Tz1DMUMoPVtDSDJdKVtDSF0oW0NAQEhdMltPSF0pW0NIMl1bQ0BASF0oW0NAQEhdKFtDSDNdKVtDSDJdW0NIMl0zKVtDQEBIXTNbQ0BdKFtDQEBdMTI0KShbQ0gzXSlbQ0gyXVtDSDJdW0NASF01W0NAQEhdNEMoW0NIM10pPVtDSF1DKE81KShbQ0gzXSlbQ0gzXQ==

>  <s_epik_cmdline>  (235) 
J2VwaWtfcHl0aG9uJywgJy1waHQnLCAnMi4wJywgJy1waCcsICc3LjAnLCAnLXRuJywgJzgnLCAnLW1hJywgJzIwMCcsICctaW1hZScsICc8aW5maWxlLm1hZT4nLCAnLW9tYWUnLCAnPG91dGZpbGUubWFlPic=

>  <r_lp_tautomer_probability>  (235) 
1

>  <r_epik_Ionization_Penalty>  (235) 
5.51882e-08

>  <r_epik_Ionization_Penalty_Charging>  (235) 
0

>  <r_epik_Ionization_Penalty_Neutral>  (235) 
5.51882e-08

>  <r_epik_State_Penalty>  (235) 
-0

>  <r_epik_Charging_Adjusted_Penalty>  (235) 
0

>  <i_epik_Tot_Q>  (235) 
0

>  <i_epik_Tot_abs_Q>  (235) 
0

>  <s_lp_Force_Field>  (235) 
OPLS3e

>  <r_lp_Energy>  (235) 
57.9648

>  <b_lp_Chiralities_Consistent>  (235) 
1

>  <s_lp_Variant>  (235) 
65:0-1

>  <s_i_glide_gridfile>  (235) 
pfpi4k_grid

>  <i_i_glide_lignum>  (235) 
14

>  <i_i_glide_rotatable_bonds>  (235) 
1

>  <r_i_docking_score>  (235) 
-3.5334

>  <r_i_glide_ligand_efficiency>  (235) 
-0.126193

>  <r_i_glide_ligand_efficiency_sa>  (235) 
-0.383195

>  <r_i_glide_ligand_efficiency_ln>  (235) 
-0.815611

>  <r_i_glide_gscore>  (235) 
-3.5334

>  <r_i_glide_lipo>  (235) 
-0.7842

>  <r_i_glide_hbond>  (235) 
0

>  <r_i_glide_metal>  (235) 
-0

>  <r_i_glide_rewards>  (235) 
-0.912661

>  <r_i_glide_evdw>  (235) 
-23.8505

>  <r_i_glide_ecoul>  (235) 
-4.29339

>  <r_i_glide_erotb>  (235) 
0

>  <r_i_glide_esite>  (235) 
0

>  <r_i_glide_emodel>  (235) 
-34.1698

>  <r_i_glide_energy>  (235) 
-28.1439

>  <r_i_glide_einternal>  (235) 
0.686491

>  <r_i_glide_intrahb_reward>  (235) 
-0

>  <i_i_glide_confnum>  (235) 
2

>  <i_i_glide_posenum>  (235) 
11

>  <r_i_glide_eff_state_penalty>  (235) 
0

>  <ligand_id>  (235) 
65

>  <original_smiles>  (235) 
C=C1C(=O)C23C(O)C1CC1C(C)CCC1C2(C)CCC1OC(C)(C)C=C(C)C13

>  <smiles>  (235) 
[H]OC1([H])C2([H])C(=C([H])[H])C(=O)C13C1([H])C(C([H])([H])[H])=C([H])C(C([H])([H])[H])(C([H])([H])[H])OC1([H])C([H])([H])C([H])([H])C3(C([H])([H])[H])C1([H])C([H])([H])C([H])([H])C([H])(C([H])([H])[H])C1([H])C2([H])[H]

$$$$
65:0:1
     RDKit          3D

 64 68  0  0  1  0  0  0  0  0999 V2000
    6.2239   -9.4178    1.6332 C   0  0  0  0  0  0  0  0  0  0  0  0
    5.4779   -8.3044    1.7081 C   0  0  0  0  0  0  0  0  0  0  0  0
    5.8896   -7.0902    2.3980 C   0  0  0  0  0  0  0  0  0  0  0  0
    6.9277   -6.9512    3.0555 O   0  0  0  0  0  0  0  0  0  0  0  0
    4.8423   -5.9767    2.2371 C   0  0  1  0  0  0  0  0  0  0  0  0
    4.0514   -6.4956    0.9691 C   0  0  1  0  0  0  0  0  0  0  0  0
    4.6135   -6.1300   -0.2832 O   0  0  0  0  0  0  0  0  0  0  0  0
    4.1663   -8.0330    1.0087 C   0  0  2  0  0  0  0  0  0  0  0  0
    2.9769   -8.7426    1.6803 C   0  0  0  0  0  0  0  0  0  0  0  0
    2.2174   -8.0141    2.8222 C   0  0  1  0  0  0  0  0  0  0  0  0
    1.4954   -9.0431    3.7253 C   0  0  1  0  0  0  0  0  0  0  0  0
    0.7204  -10.1709    3.0219 C   0  0  0  0  0  0  0  0  0  0  0  0
    2.5810   -9.5243    4.7109 C   0  0  0  0  0  0  0  0  0  0  0  0
    3.6827   -8.4437    4.7058 C   0  0  0  0  0  0  0  0  0  0  0  0
    3.0829   -7.2907    3.8742 C   0  0  1  0  0  0  0  0  0  0  0  0
    3.8993   -5.9721    3.5322 C   0  0  1  0  0  0  0  0  0  0  0  0
    4.6882   -5.6341    4.8392 C   0  0  0  0  0  0  0  0  0  0  0  0
    2.8429   -4.8418    3.3437 C   0  0  0  0  0  0  0  0  0  0  0  0
    3.4492   -3.4430    3.2162 C   0  0  0  0  0  0  0  0  0  0  0  0
    4.5369   -3.3447    2.1453 C   0  0  2  0  0  0  0  0  0  0  0  0
    3.9266   -3.1229    0.8796 O   0  0  0  0  0  0  0  0  0  0  0  0
    4.8129   -2.6621   -0.1442 C   0  0  0  0  0  0  0  0  0  0  0  0
    4.0754   -2.9162   -1.4689 C   0  0  0  0  0  0  0  0  0  0  0  0
    5.0846   -1.1527    0.0219 C   0  0  0  0  0  0  0  0  0  0  0  0
    6.1258   -3.4288   -0.1164 C   0  0  0  0  0  0  0  0  0  0  0  0
    6.4688   -4.2946    0.8593 C   0  0  0  0  0  0  0  0  0  0  0  0
    7.8209   -4.9904    0.8200 C   0  0  0  0  0  0  0  0  0  0  0  0
    5.5286   -4.5398    2.0637 C   0  0  2  0  0  0  0  0  0  0  0  0
    5.9002  -10.2803    1.0723 H   0  0  0  0  0  0  0  0  0  0  0  0
    7.1774   -9.4859    2.1346 H   0  0  0  0  0  0  0  0  0  0  0  0
    3.0152   -6.1727    0.9251 H   0  0  0  0  0  0  0  0  0  0  0  0
    3.9678   -6.2498   -0.9706 H   0  0  0  0  0  0  0  0  0  0  0  0
    4.2588   -8.4523    0.0060 H   0  0  0  0  0  0  0  0  0  0  0  0
    2.2406   -8.9588    0.9047 H   0  0  0  0  0  0  0  0  0  0  0  0
    3.3257   -9.7194    2.0170 H   0  0  0  0  0  0  0  0  0  0  0  0
    1.4898   -7.3209    2.3975 H   0  0  0  0  0  0  0  0  0  0  0  0
    0.7578   -8.4930    4.3115 H   0  0  0  0  0  0  0  0  0  0  0  0
    1.3779  -10.8534    2.4823 H   0  0  0  0  0  0  0  0  0  0  0  0
   -0.0009   -9.7716    2.3092 H   0  0  0  0  0  0  0  0  0  0  0  0
    0.1659  -10.7717    3.7432 H   0  0  0  0  0  0  0  0  0  0  0  0
    2.1552   -9.6647    5.7053 H   0  0  0  0  0  0  0  0  0  0  0  0
    2.9972  -10.4838    4.4065 H   0  0  0  0  0  0  0  0  0  0  0  0
    3.9304   -8.1414    5.7247 H   0  0  0  0  0  0  0  0  0  0  0  0
    4.5877   -8.8409    4.2507 H   0  0  0  0  0  0  0  0  0  0  0  0
    2.3503   -6.9068    4.5867 H   0  0  0  0  0  0  0  0  0  0  0  0
    4.0042   -5.5193    5.6832 H   0  0  0  0  0  0  0  0  0  0  0  0
    5.2596   -4.7084    4.7917 H   0  0  0  0  0  0  0  0  0  0  0  0
    5.4011   -6.4111    5.1146 H   0  0  0  0  0  0  0  0  0  0  0  0
    2.2238   -5.0179    2.4677 H   0  0  0  0  0  0  0  0  0  0  0  0
    2.1379   -4.8171    4.1769 H   0  0  0  0  0  0  0  0  0  0  0  0
    2.6618   -2.7232    2.9924 H   0  0  0  0  0  0  0  0  0  0  0  0
    3.8517   -3.1358    4.1798 H   0  0  0  0  0  0  0  0  0  0  0  0
    5.1124   -2.4534    2.4054 H   0  0  0  0  0  0  0  0  0  0  0  0
    4.6760   -2.6082   -2.3264 H   0  0  0  0  0  0  0  0  0  0  0  0
    3.1330   -2.3716   -1.5057 H   0  0  0  0  0  0  0  0  0  0  0  0
    3.8454   -3.9740   -1.5929 H   0  0  0  0  0  0  0  0  0  0  0  0
    5.6500   -0.7612   -0.8250 H   0  0  0  0  0  0  0  0  0  0  0  0
    5.6676   -0.9377    0.9193 H   0  0  0  0  0  0  0  0  0  0  0  0
    4.1521   -0.5901    0.0873 H   0  0  0  0  0  0  0  0  0  0  0  0
    6.7940   -3.2597   -0.9472 H   0  0  0  0  0  0  0  0  0  0  0  0
    8.3336   -4.9046    1.7788 H   0  0  0  0  0  0  0  0  0  0  0  0
    8.4595   -4.5415    0.0589 H   0  0  0  0  0  0  0  0  0  0  0  0
    7.7089   -6.0451    0.5652 H   0  0  0  0  0  0  0  0  0  0  0  0
    6.2046   -4.4085    2.9089 H   0  0  0  0  0  0  0  0  0  0  0  0
  1  2  2  0
  1 29  1  0
  1 30  1  0
  2  8  1  0
  2  3  1  0
  3  4  2  0
  5  3  1  1
  5 16  1  0
  5 28  1  0
  5  6  1  0
  6  7  1  0
  6  8  1  0
  6 31  1  6
  7 32  1  0
  8  9  1  0
  8 33  1  6
  9 10  1  0
  9 34  1  0
  9 35  1  0
 10 15  1  0
 10 11  1  0
 10 36  1  6
 11 12  1  0
 11 13  1  0
 11 37  1  1
 12 38  1  0
 12 39  1  0
 12 40  1  0
 13 14  1  0
 13 41  1  0
 13 42  1  0
 14 15  1  0
 14 43  1  0
 14 44  1  0
 15 16  1  0
 15 45  1  1
 16 17  1  1
 16 18  1  0
 17 46  1  0
 17 47  1  0
 17 48  1  0
 18 19  1  0
 18 49  1  0
 18 50  1  0
 19 20  1  0
 19 51  1  0
 19 52  1  0
 20 28  1  0
 20 21  1  0
 20 53  1  1
 21 22  1  0
 22 23  1  0
 22 24  1  0
 22 25  1  0
 23 54  1  0
 23 55  1  0
 23 56  1  0
 24 57  1  0
 24 58  1  0
 24 59  1  0
 25 26  2  0
 25 60  1  0
 26 27  1  0
 26 28  1  0
 27 61  1  0
 27 62  1  0
 27 63  1  0
 28 64  1  1
M  END
>  <i_m_ct_stereo_status>  (236) 
1

>  <s_m_source_file>  (236) 
/var/tmp/pbs.5076255.sched01/tmptpdlle0r/921kky2sk3.sdf

>  <i_m_source_file_index>  (236) 
14

>  <i_lp_mmshare_version>  (236) 
48012

>  <i_f3d_flags>  (236) 
0

>  <s_epik_input>  (236) 
Tz1DMUMoPVtDSDJdKVtDSF0oW0NAQEhdMltPSF0pW0NIMl1bQ0BASF0oW0NAQEhdKFtDSDNdKVtDSDJdW0NIMl0zKVtDQEBIXTNbQ0BdKFtDQEBdMTI0KShbQ0gzXSlbQ0gyXVtDSDJdW0NASF01W0NAQEhdNEMoW0NIM10pPVtDSF1DKE81KShbQ0gzXSlbQ0gzXQ==

>  <s_epik_cmdline>  (236) 
J2VwaWtfcHl0aG9uJywgJy1waHQnLCAnMi4wJywgJy1waCcsICc3LjAnLCAnLXRuJywgJzgnLCAnLW1hJywgJzIwMCcsICctaW1hZScsICc8aW5maWxlLm1hZT4nLCAnLW9tYWUnLCAnPG91dGZpbGUubWFlPic=

>  <r_lp_tautomer_probability>  (236) 
1

>  <r_epik_Ionization_Penalty>  (236) 
5.51882e-08

>  <r_epik_Ionization_Penalty_Charging>  (236) 
0

>  <r_epik_Ionization_Penalty_Neutral>  (236) 
5.51882e-08

>  <r_epik_State_Penalty>  (236) 
-0

>  <r_epik_Charging_Adjusted_Penalty>  (236) 
0

>  <i_epik_Tot_Q>  (236) 
0

>  <i_epik_Tot_abs_Q>  (236) 
0

>  <s_lp_Force_Field>  (236) 
OPLS3e

>  <r_lp_Energy>  (236) 
57.9648

>  <b_lp_Chiralities_Consistent>  (236) 
1

>  <s_lp_Variant>  (236) 
65:0-1

>  <s_i_glide_gridfile>  (236) 
pfpi4k_grid

>  <i_i_glide_lignum>  (236) 
14

>  <i_i_glide_rotatable_bonds>  (236) 
1

>  <r_i_docking_score>  (236) 
-3.2963

>  <r_i_glide_ligand_efficiency>  (236) 
-0.117725

>  <r_i_glide_ligand_efficiency_sa>  (236) 
-0.357482

>  <r_i_glide_ligand_efficiency_ln>  (236) 
-0.760882

>  <r_i_glide_gscore>  (236) 
-3.2963

>  <r_i_glide_lipo>  (236) 
-0.695606

>  <r_i_glide_hbond>  (236) 
0

>  <r_i_glide_metal>  (236) 
-0

>  <r_i_glide_rewards>  (236) 
-0.81186

>  <r_i_glide_evdw>  (236) 
-29.1965

>  <r_i_glide_ecoul>  (236) 
-2.19335

>  <r_i_glide_erotb>  (236) 
0

>  <r_i_glide_esite>  (236) 
0

>  <r_i_glide_emodel>  (236) 
-37.3892

>  <r_i_glide_energy>  (236) 
-31.3899

>  <r_i_glide_einternal>  (236) 
0.592971

>  <r_i_glide_intrahb_reward>  (236) 
-0

>  <i_i_glide_confnum>  (236) 
2

>  <i_i_glide_posenum>  (236) 
2

>  <r_i_glide_eff_state_penalty>  (236) 
0

>  <ligand_id>  (236) 
65

>  <original_smiles>  (236) 
C=C1C(=O)C23C(O)C1CC1C(C)CCC1C2(C)CCC1OC(C)(C)C=C(C)C13

>  <smiles>  (236) 
[H]OC1([H])C2([H])C(=C([H])[H])C(=O)C13C1([H])C(C([H])([H])[H])=C([H])C(C([H])([H])[H])(C([H])([H])[H])OC1([H])C([H])([H])C([H])([H])C3(C([H])([H])[H])C1([H])C([H])([H])C([H])([H])C([H])(C([H])([H])[H])C1([H])C2([H])[H]

$$$$
65:0:2
     RDKit          3D

 64 68  0  0  1  0  0  0  0  0999 V2000
    4.0848   -2.1711    3.9172 C   0  0  0  0  0  0  0  0  0  0  0  0
    3.8401   -3.2874    3.2094 C   0  0  0  0  0  0  0  0  0  0  0  0
    4.3806   -4.5977    3.5511 C   0  0  0  0  0  0  0  0  0  0  0  0
    5.1718   -4.8335    4.4656 O   0  0  0  0  0  0  0  0  0  0  0  0
    3.8428   -5.6795    2.6004 C   0  0  1  0  0  0  0  0  0  0  0  0
    2.5634   -4.9565    2.0232 C   0  0  1  0  0  0  0  0  0  0  0  0
    1.3793   -5.0824    2.7926 O   0  0  0  0  0  0  0  0  0  0  0  0
    2.8806   -3.4506    2.0538 C   0  0  2  0  0  0  0  0  0  0  0  0
    3.4395   -2.8870    0.7361 C   0  0  0  0  0  0  0  0  0  0  0  0
    4.2925   -3.8092   -0.1759 C   0  0  1  0  0  0  0  0  0  0  0  0
    5.2138   -2.9587   -1.0822 C   0  0  1  0  0  0  0  0  0  0  0  0
    4.5823   -1.7319   -1.7704 C   0  0  0  0  0  0  0  0  0  0  0  0
    6.4431   -2.6438   -0.2049 C   0  0  0  0  0  0  0  0  0  0  0  0
    6.4493   -3.6946    0.9243 C   0  0  0  0  0  0  0  0  0  0  0  0
    5.3416   -4.6929    0.5281 C   0  0  1  0  0  0  0  0  0  0  0  0
    4.9328   -5.9180    1.4513 C   0  0  1  0  0  0  0  0  0  0  0  0
    6.2819   -6.4708    2.0099 C   0  0  0  0  0  0  0  0  0  0  0  0
    4.3571   -7.0057    0.4994 C   0  0  0  0  0  0  0  0  0  0  0  0
    4.1186   -8.3611    1.1723 C   0  0  0  0  0  0  0  0  0  0  0  0
    3.2509   -8.2608    2.4250 C   0  0  2  0  0  0  0  0  0  0  0  0
    1.8796   -8.2581    2.0432 O   0  0  0  0  0  0  0  0  0  0  0  0
    0.9635   -8.5304    3.1084 C   0  0  0  0  0  0  0  0  0  0  0  0
   -0.4073   -8.0583    2.6017 C   0  0  0  0  0  0  0  0  0  0  0  0
    0.9174  -10.0415    3.4109 C   0  0  0  0  0  0  0  0  0  0  0  0
    1.3511   -7.7626    4.3638 C   0  0  0  0  0  0  0  0  0  0  0  0
    2.5027   -7.0744    4.4995 C   0  0  0  0  0  0  0  0  0  0  0  0
    2.8180   -6.3648    5.8063 C   0  0  0  0  0  0  0  0  0  0  0  0
    3.5545   -7.0585    3.3669 C   0  0  2  0  0  0  0  0  0  0  0  0
    3.6200   -1.2311    3.6654 H   0  0  0  0  0  0  0  0  0  0  0  0
    4.7482   -2.1809    4.7675 H   0  0  0  0  0  0  0  0  0  0  0  0
    2.2800   -5.2737    1.0245 H   0  0  0  0  0  0  0  0  0  0  0  0
    1.5780   -4.8573    3.6891 H   0  0  0  0  0  0  0  0  0  0  0  0
    1.9897   -2.8666    2.2928 H   0  0  0  0  0  0  0  0  0  0  0  0
    2.5940   -2.5509    0.1340 H   0  0  0  0  0  0  0  0  0  0  0  0
    3.9925   -1.9794    0.9785 H   0  0  0  0  0  0  0  0  0  0  0  0
    3.6362   -4.4271   -0.7903 H   0  0  0  0  0  0  0  0  0  0  0  0
    5.5559   -3.6138   -1.8860 H   0  0  0  0  0  0  0  0  0  0  0  0
    4.2794   -0.9611   -1.0618 H   0  0  0  0  0  0  0  0  0  0  0  0
    3.6991   -2.0183   -2.3413 H   0  0  0  0  0  0  0  0  0  0  0  0
    5.2820   -1.2689   -2.4651 H   0  0  0  0  0  0  0  0  0  0  0  0
    7.3561   -2.6877   -0.8000 H   0  0  0  0  0  0  0  0  0  0  0  0
    6.3819   -1.6427    0.2206 H   0  0  0  0  0  0  0  0  0  0  0  0
    7.4292   -4.1663    1.0095 H   0  0  0  0  0  0  0  0  0  0  0  0
    6.2325   -3.2127    1.8755 H   0  0  0  0  0  0  0  0  0  0  0  0
    5.8321   -5.2045   -0.3017 H   0  0  0  0  0  0  0  0  0  0  0  0
    6.9584   -6.7392    1.1956 H   0  0  0  0  0  0  0  0  0  0  0  0
    6.1782   -7.3664    2.6188 H   0  0  0  0  0  0  0  0  0  0  0  0
    6.8062   -5.7457    2.6326 H   0  0  0  0  0  0  0  0  0  0  0  0
    3.4291   -6.6598    0.0507 H   0  0  0  0  0  0  0  0  0  0  0  0
    5.0118   -7.1765   -0.3428 H   0  0  0  0  0  0  0  0  0  0  0  0
    3.6473   -9.0525    0.4733 H   0  0  0  0  0  0  0  0  0  0  0  0
    5.0734   -8.8256    1.4131 H   0  0  0  0  0  0  0  0  0  0  0  0
    3.4472   -9.1797    2.9775 H   0  0  0  0  0  0  0  0  0  0  0  0
   -1.1835   -8.2105    3.3534 H   0  0  0  0  0  0  0  0  0  0  0  0
   -0.7019   -8.6019    1.7037 H   0  0  0  0  0  0  0  0  0  0  0  0
   -0.3881   -6.9991    2.3512 H   0  0  0  0  0  0  0  0  0  0  0  0
    0.1316  -10.2722    4.1334 H   0  0  0  0  0  0  0  0  0  0  0  0
    1.8517  -10.4027    3.8416 H   0  0  0  0  0  0  0  0  0  0  0  0
    0.7213  -10.6203    2.5071 H   0  0  0  0  0  0  0  0  0  0  0  0
    0.6353   -7.7902    5.1718 H   0  0  0  0  0  0  0  0  0  0  0  0
    3.8227   -6.6160    6.1490 H   0  0  0  0  0  0  0  0  0  0  0  0
    2.1193   -6.6723    6.5849 H   0  0  0  0  0  0  0  0  0  0  0  0
    2.7353   -5.2833    5.7012 H   0  0  0  0  0  0  0  0  0  0  0  0
    4.4673   -7.3317    3.8973 H   0  0  0  0  0  0  0  0  0  0  0  0
  1  2  2  0
  1 29  1  0
  1 30  1  0
  2  8  1  0
  2  3  1  0
  3  4  2  0
  5  3  1  1
  5 16  1  0
  5 28  1  0
  5  6  1  0
  6  7  1  0
  6  8  1  0
  6 31  1  6
  7 32  1  0
  8  9  1  0
  8 33  1  1
  9 10  1  0
  9 34  1  0
  9 35  1  0
 10 15  1  0
 10 11  1  0
 10 36  1  6
 11 12  1  0
 11 13  1  0
 11 37  1  6
 12 38  1  0
 12 39  1  0
 12 40  1  0
 13 14  1  0
 13 41  1  0
 13 42  1  0
 14 15  1  0
 14 43  1  0
 14 44  1  0
 15 16  1  0
 15 45  1  6
 16 17  1  1
 16 18  1  0
 17 46  1  0
 17 47  1  0
 17 48  1  0
 18 19  1  0
 18 49  1  0
 18 50  1  0
 19 20  1  0
 19 51  1  0
 19 52  1  0
 20 28  1  0
 20 21  1  0
 20 53  1  1
 21 22  1  0
 22 23  1  0
 22 24  1  0
 22 25  1  0
 23 54  1  0
 23 55  1  0
 23 56  1  0
 24 57  1  0
 24 58  1  0
 24 59  1  0
 25 26  2  0
 25 60  1  0
 26 27  1  0
 26 28  1  0
 27 61  1  0
 27 62  1  0
 27 63  1  0
 28 64  1  1
M  END
>  <i_m_ct_stereo_status>  (237) 
1

>  <s_m_source_file>  (237) 
/var/tmp/pbs.5076255.sched01/tmptpdlle0r/921kky2sk3.sdf

>  <i_m_source_file_index>  (237) 
14

>  <i_lp_mmshare_version>  (237) 
48012

>  <i_f3d_flags>  (237) 
0

>  <s_epik_input>  (237) 
Tz1DMUMoPVtDSDJdKVtDSF0oW0NAQEhdMltPSF0pW0NIMl1bQ0BASF0oW0NAQEhdKFtDSDNdKVtDSDJdW0NIMl0zKVtDQEBIXTNbQ0BdKFtDQEBdMTI0KShbQ0gzXSlbQ0gyXVtDSDJdW0NASF01W0NAQEhdNEMoW0NIM10pPVtDSF1DKE81KShbQ0gzXSlbQ0gzXQ==

>  <s_epik_cmdline>  (237) 
J2VwaWtfcHl0aG9uJywgJy1waHQnLCAnMi4wJywgJy1waCcsICc3LjAnLCAnLXRuJywgJzgnLCAnLW1hJywgJzIwMCcsICctaW1hZScsICc8aW5maWxlLm1hZT4nLCAnLW9tYWUnLCAnPG91dGZpbGUubWFlPic=

>  <r_lp_tautomer_probability>  (237) 
1

>  <r_epik_Ionization_Penalty>  (237) 
5.51882e-08

>  <r_epik_Ionization_Penalty_Charging>  (237) 
0

>  <r_epik_Ionization_Penalty_Neutral>  (237) 
5.51882e-08

>  <r_epik_State_Penalty>  (237) 
-0

>  <r_epik_Charging_Adjusted_Penalty>  (237) 
0

>  <i_epik_Tot_Q>  (237) 
0

>  <i_epik_Tot_abs_Q>  (237) 
0

>  <s_lp_Force_Field>  (237) 
OPLS3e

>  <r_lp_Energy>  (237) 
57.9648

>  <b_lp_Chiralities_Consistent>  (237) 
1

>  <s_lp_Variant>  (237) 
65:0-1

>  <s_i_glide_gridfile>  (237) 
pfpi4k_grid

>  <i_i_glide_lignum>  (237) 
14

>  <i_i_glide_rotatable_bonds>  (237) 
1

>  <r_i_docking_score>  (237) 
-2.83283

>  <r_i_glide_ligand_efficiency>  (237) 
-0.101173

>  <r_i_glide_ligand_efficiency_sa>  (237) 
-0.30722

>  <r_i_glide_ligand_efficiency_ln>  (237) 
-0.653901

>  <r_i_glide_gscore>  (237) 
-2.83283

>  <r_i_glide_lipo>  (237) 
-0.491684

>  <r_i_glide_hbond>  (237) 
0

>  <r_i_glide_metal>  (237) 
-0

>  <r_i_glide_rewards>  (237) 
-0.790005

>  <r_i_glide_evdw>  (237) 
-28.7191

>  <r_i_glide_ecoul>  (237) 
-0.767947

>  <r_i_glide_erotb>  (237) 
0

>  <r_i_glide_esite>  (237) 
0

>  <r_i_glide_emodel>  (237) 
-34.9461

>  <r_i_glide_energy>  (237) 
-29.487

>  <r_i_glide_einternal>  (237) 
0.0164525

>  <r_i_glide_intrahb_reward>  (237) 
-0

>  <i_i_glide_confnum>  (237) 
2

>  <i_i_glide_posenum>  (237) 
7

>  <r_i_glide_eff_state_penalty>  (237) 
0

>  <ligand_id>  (237) 
65

>  <original_smiles>  (237) 
C=C1C(=O)C23C(O)C1CC1C(C)CCC1C2(C)CCC1OC(C)(C)C=C(C)C13

>  <smiles>  (237) 
[H]OC1([H])C2([H])C(=C([H])[H])C(=O)C13C1([H])C(C([H])([H])[H])=C([H])C(C([H])([H])[H])(C([H])([H])[H])OC1([H])C([H])([H])C([H])([H])C3(C([H])([H])[H])C1([H])C([H])([H])C([H])([H])C([H])(C([H])([H])[H])C1([H])C2([H])[H]

$$$$
66:0:0
     RDKit          3D

 41 44  0  0  1  0  0  0  0  0999 V2000
    2.3402    3.8341    6.8866 C   0  0  0  0  0  0  0  0  0  0  0  0
    1.0659    3.5402    6.0973 C   0  0  0  0  0  0  0  0  0  0  0  0
   -0.0821    3.3812    6.7677 C   0  0  0  0  0  0  0  0  0  0  0  0
   -1.4095    3.0341    6.1277 C   0  0  1  0  0  0  0  0  0  0  0  0
   -2.4642    2.9526    7.2466 C   0  0  0  0  0  0  0  0  0  0  0  0
   -1.8127    4.1416    5.3147 O   0  0  0  0  0  0  0  0  0  0  0  0
   -1.2677    4.3064    3.9981 C   0  0  1  0  0  0  0  0  0  0  0  0
    0.2537    4.5518    3.9350 C   0  0  1  0  0  0  0  0  0  0  0  0
    0.5278    5.8436    4.4573 O   0  0  0  0  0  0  0  0  0  0  0  0
    1.1347    3.4120    4.5452 C   0  0  1  0  0  0  0  0  0  0  0  0
    2.5961    3.7065    4.0738 C   0  0  0  0  0  0  0  0  0  0  0  0
    0.6208    1.9765    4.0033 C   0  0  1  0  0  0  0  0  0  0  0  0
    1.3232    1.5327    2.6847 C   0  0  0  0  0  0  0  0  0  0  0  0
    0.7854    0.8854    5.0675 C   0  0  0  0  0  0  0  0  0  0  0  0
    1.7893    0.1980    5.2200 O   0  0  0  0  0  0  0  0  0  0  0  0
   -0.3458    0.8118    5.7933 O   0  0  0  0  0  0  0  0  0  0  0  0
   -1.3760    1.6887    5.3266 C   0  0  2  0  0  0  0  0  0  0  0  0
   -0.9328    1.8666    3.8685 C   0  0  2  0  0  0  0  0  0  0  0  0
   -1.3599    0.7291    3.1115 O   0  0  0  0  0  0  0  0  0  0  0  0
   -1.6049    3.0653    3.1970 C   0  0  1  0  0  0  0  0  0  0  0  0
   -3.0195    2.9626    3.1410 O   0  0  0  0  0  0  0  0  0  0  0  0
    3.1220    3.0960    6.7014 H   0  0  0  0  0  0  0  0  0  0  0  0
    2.1422    3.8271    7.9582 H   0  0  0  0  0  0  0  0  0  0  0  0
    2.7235    4.8232    6.6429 H   0  0  0  0  0  0  0  0  0  0  0  0
   -0.0870    3.4628    7.8440 H   0  0  0  0  0  0  0  0  0  0  0  0
   -2.2213    2.1519    7.9541 H   0  0  0  0  0  0  0  0  0  0  0  0
   -3.4644    2.7623    6.8448 H   0  0  0  0  0  0  0  0  0  0  0  0
   -2.4973    3.8921    7.8057 H   0  0  0  0  0  0  0  0  0  0  0  0
   -1.7597    5.1538    3.5231 H   0  0  0  0  0  0  0  0  0  0  0  0
    0.5166    4.6116    2.8860 H   0  0  0  0  0  0  0  0  0  0  0  0
    0.6041    6.4385    3.7202 H   0  0  0  0  0  0  0  0  0  0  0  0
    2.6622    3.7712    2.9835 H   0  0  0  0  0  0  0  0  0  0  0  0
    3.3088    2.9440    4.4070 H   0  0  0  0  0  0  0  0  0  0  0  0
    2.9433    4.6787    4.4355 H   0  0  0  0  0  0  0  0  0  0  0  0
    1.0620    2.1784    1.8452 H   0  0  0  0  0  0  0  0  0  0  0  0
    1.0558    0.5155    2.4009 H   0  0  0  0  0  0  0  0  0  0  0  0
    2.4108    1.5112    2.7647 H   0  0  0  0  0  0  0  0  0  0  0  0
   -2.3585    1.2121    5.3539 H   0  0  0  0  0  0  0  0  0  0  0  0
   -2.3024    0.7376    3.0225 H   0  0  0  0  0  0  0  0  0  0  0  0
   -1.2232    3.1659    2.1782 H   0  0  0  0  0  0  0  0  0  0  0  0
   -3.2540    2.1782    2.6546 H   0  0  0  0  0  0  0  0  0  0  0  0
  1  2  1  0
  1 22  1  0
  1 23  1  0
  1 24  1  0
  2 10  1  0
  2  3  2  0
  3  4  1  0
  3 25  1  0
  4 17  1  0
  4  5  1  1
  4  6  1  0
  5 26  1  0
  5 27  1  0
  5 28  1  0
  6  7  1  0
  7 20  1  0
  7  8  1  0
  7 29  1  6
  8  9  1  0
  8 10  1  0
  8 30  1  6
  9 31  1  0
 10 11  1  6
 10 12  1  0
 11 32  1  0
 11 33  1  0
 11 34  1  0
 12 18  1  0
 12 13  1  6
 12 14  1  0
 13 35  1  0
 13 36  1  0
 13 37  1  0
 14 15  2  0
 14 16  1  0
 16 17  1  0
 17 18  1  0
 17 38  1  6
 18 19  1  6
 18 20  1  0
 19 39  1  0
 20 21  1  0
 20 40  1  6
 21 41  1  0
M  END
>  <i_m_ct_stereo_status>  (238) 
1

>  <s_m_source_file>  (238) 
/var/tmp/pbs.5076255.sched01/tmptpdlle0r/921kky2sk3.sdf

>  <i_m_source_file_index>  (238) 
15

>  <i_lp_mmshare_version>  (238) 
48012

>  <i_f3d_flags>  (238) 
0

>  <s_epik_input>  (238) 
W09IXVtDQEhdMVtDQEBIXShPMilbQ0BASF0oW09IXSlbQ0BAXShbQ0gzXSkoQyhbQ0gzXSk9W0NIXTMpW0NAQF0oW0NIM10pKEMoPU8pTzQpW0NAQF0xKFtPSF0pW0NAQEhdNFtDQF0yM1tDSDNd

>  <s_epik_cmdline>  (238) 
J2VwaWtfcHl0aG9uJywgJy1waHQnLCAnMi4wJywgJy1waCcsICc3LjAnLCAnLXRuJywgJzgnLCAnLW1hJywgJzIwMCcsICctaW1hZScsICc8aW5maWxlLm1hZT4nLCAnLW9tYWUnLCAnPG91dGZpbGUubWFlPic=

>  <r_lp_tautomer_probability>  (238) 
1

>  <r_epik_Ionization_Penalty>  (238) 
5.14998e-06

>  <r_epik_Ionization_Penalty_Charging>  (238) 
0

>  <r_epik_Ionization_Penalty_Neutral>  (238) 
5.14998e-06

>  <r_epik_State_Penalty>  (238) 
-0

>  <r_epik_Charging_Adjusted_Penalty>  (238) 
0

>  <i_epik_Tot_Q>  (238) 
0

>  <i_epik_Tot_abs_Q>  (238) 
0

>  <s_epik_Chemistry_Notes>  (238) 
This compound has an ester and may undergo hydrolysis at high or low pH.

>  <s_lp_Force_Field>  (238) 
OPLS3e

>  <r_lp_Energy>  (238) 
31.8597

>  <b_lp_Chiralities_Consistent>  (238) 
1

>  <s_lp_Variant>  (238) 
66:0-1

>  <s_i_glide_gridfile>  (238) 
pfpi4k_grid

>  <i_i_glide_lignum>  (238) 
15

>  <i_i_glide_rotatable_bonds>  (238) 
3

>  <r_i_docking_score>  (238) 
-3.81113

>  <r_i_glide_ligand_efficiency>  (238) 
-0.181482

>  <r_i_glide_ligand_efficiency_sa>  (238) 
-0.500696

>  <r_i_glide_ligand_efficiency_ln>  (238) 
-0.942294

>  <r_i_glide_gscore>  (238) 
-3.81113

>  <r_i_glide_lipo>  (238) 
-0.151847

>  <r_i_glide_hbond>  (238) 
0

>  <r_i_glide_metal>  (238) 
-0

>  <r_i_glide_rewards>  (238) 
-1.38876

>  <r_i_glide_evdw>  (238) 
-19.2166

>  <r_i_glide_ecoul>  (238) 
-8.70835

>  <r_i_glide_erotb>  (238) 
0

>  <r_i_glide_esite>  (238) 
-0.00344682

>  <r_i_glide_emodel>  (238) 
-34.5214

>  <r_i_glide_energy>  (238) 
-27.9249

>  <r_i_glide_einternal>  (238) 
1.919

>  <r_i_glide_intrahb_reward>  (238) 
-0

>  <i_i_glide_confnum>  (238) 
1

>  <i_i_glide_posenum>  (238) 
24

>  <r_i_glide_eff_state_penalty>  (238) 
0

>  <ligand_id>  (238) 
66

>  <original_smiles>  (238) 
CC1=CC2(C)OC3C(O)C1(C)C1(C)C(=O)OC2C1(O)C3O

>  <smiles>  (238) 
[H]OC1([H])C2([H])OC3(C([H])([H])[H])C([H])=C(C([H])([H])[H])C(C([H])([H])[H])(C2([H])O[H])C2(C([H])([H])[H])C(=O)OC3([H])C12O[H]

$$$$
66:0:1
     RDKit          3D

 41 44  0  0  1  0  0  0  0  0999 V2000
   -2.5648    2.7215    2.8629 C   0  0  0  0  0  0  0  0  0  0  0  0
   -1.1939    2.3116    3.3778 C   0  0  0  0  0  0  0  0  0  0  0  0
   -0.3859    1.5743    2.5928 C   0  0  0  0  0  0  0  0  0  0  0  0
    0.9853    1.0730    2.9990 C   0  0  1  0  0  0  0  0  0  0  0  0
    1.5583    0.2641    1.8320 C   0  0  0  0  0  0  0  0  0  0  0  0
    1.8744    2.1912    3.1196 O   0  0  0  0  0  0  0  0  0  0  0  0
    1.8371    3.0014    4.2981 C   0  0  1  0  0  0  0  0  0  0  0  0
    0.4885    3.7089    4.5902 C   0  0  1  0  0  0  0  0  0  0  0  0
    0.2567    4.7674    3.6762 O   0  0  0  0  0  0  0  0  0  0  0  0
   -0.7477    2.7724    4.7874 C   0  0  1  0  0  0  0  0  0  0  0  0
   -1.8672    3.6643    5.4061 C   0  0  0  0  0  0  0  0  0  0  0  0
   -0.3826    1.5448    5.7705 C   0  0  1  0  0  0  0  0  0  0  0  0
   -0.6649    1.8530    7.2762 C   0  0  0  0  0  0  0  0  0  0  0  0
   -1.1037    0.2506    5.3725 C   0  0  0  0  0  0  0  0  0  0  0  0
   -2.1865   -0.1193    5.8234 O   0  0  0  0  0  0  0  0  0  0  0  0
   -0.3289   -0.4212    4.4937 O   0  0  0  0  0  0  0  0  0  0  0  0
    0.9519    0.1859    4.2857 C   0  0  2  0  0  0  0  0  0  0  0  0
    1.0671    1.0172    5.5724 C   0  0  2  0  0  0  0  0  0  0  0  0
    1.4858    0.1505    6.6205 O   0  0  0  0  0  0  0  0  0  0  0  0
    2.1528    2.1014    5.4898 C   0  0  1  0  0  0  0  0  0  0  0  0
    3.4563    1.5540    5.3581 O   0  0  0  0  0  0  0  0  0  0  0  0
   -3.3649    2.4052    3.5327 H   0  0  0  0  0  0  0  0  0  0  0  0
   -2.7628    2.2381    1.9064 H   0  0  0  0  0  0  0  0  0  0  0  0
   -2.6358    3.7954    2.6993 H   0  0  0  0  0  0  0  0  0  0  0  0
   -0.7293    1.2738    1.6163 H   0  0  0  0  0  0  0  0  0  0  0  0
    0.9386   -0.6148    1.6355 H   0  0  0  0  0  0  0  0  0  0  0  0
    2.5786   -0.0727    2.0308 H   0  0  0  0  0  0  0  0  0  0  0  0
    1.5729    0.8716    0.9247 H   0  0  0  0  0  0  0  0  0  0  0  0
    2.6179    3.7593    4.2024 H   0  0  0  0  0  0  0  0  0  0  0  0
    0.6337    4.2140    5.5455 H   0  0  0  0  0  0  0  0  0  0  0  0
    0.2330    4.4208    2.7801 H   0  0  0  0  0  0  0  0  0  0  0  0
   -1.5485    4.1347    6.3397 H   0  0  0  0  0  0  0  0  0  0  0  0
   -2.7894    3.1114    5.6074 H   0  0  0  0  0  0  0  0  0  0  0  0
   -2.1179    4.4977    4.7472 H   0  0  0  0  0  0  0  0  0  0  0  0
   -0.0144    2.6366    7.6599 H   0  0  0  0  0  0  0  0  0  0  0  0
   -0.5192    0.9744    7.9082 H   0  0  0  0  0  0  0  0  0  0  0  0
   -1.6980    2.1510    7.4610 H   0  0  0  0  0  0  0  0  0  0  0  0
    1.7554   -0.5567    4.2540 H   0  0  0  0  0  0  0  0  0  0  0  0
    2.3887   -0.0722    6.4511 H   0  0  0  0  0  0  0  0  0  0  0  0
    2.1508    2.6935    6.4092 H   0  0  0  0  0  0  0  0  0  0  0  0
    3.5367    1.2036    4.4822 H   0  0  0  0  0  0  0  0  0  0  0  0
  1  2  1  0
  1 22  1  0
  1 23  1  0
  1 24  1  0
  2 10  1  0
  2  3  2  0
  3  4  1  0
  3 25  1  0
  4 17  1  0
  4  5  1  6
  4  6  1  0
  5 26  1  0
  5 27  1  0
  5 28  1  0
  6  7  1  0
  7 20  1  0
  7  8  1  0
  7 29  1  6
  8  9  1  0
  8 10  1  0
  8 30  1  1
  9 31  1  0
 10 11  1  1
 10 12  1  0
 11 32  1  0
 11 33  1  0
 11 34  1  0
 12 18  1  0
 12 13  1  1
 12 14  1  0
 13 35  1  0
 13 36  1  0
 13 37  1  0
 14 15  2  0
 14 16  1  0
 16 17  1  0
 17 18  1  0
 17 38  1  6
 18 19  1  1
 18 20  1  0
 19 39  1  0
 20 21  1  0
 20 40  1  1
 21 41  1  0
M  END
>  <i_m_ct_stereo_status>  (239) 
1

>  <s_m_source_file>  (239) 
/var/tmp/pbs.5076255.sched01/tmptpdlle0r/921kky2sk3.sdf

>  <i_m_source_file_index>  (239) 
15

>  <i_lp_mmshare_version>  (239) 
48012

>  <i_f3d_flags>  (239) 
0

>  <s_epik_input>  (239) 
W09IXVtDQEhdMVtDQEBIXShPMilbQ0BASF0oW09IXSlbQ0BAXShbQ0gzXSkoQyhbQ0gzXSk9W0NIXTMpW0NAQF0oW0NIM10pKEMoPU8pTzQpW0NAQF0xKFtPSF0pW0NAQEhdNFtDQF0yM1tDSDNd

>  <s_epik_cmdline>  (239) 
J2VwaWtfcHl0aG9uJywgJy1waHQnLCAnMi4wJywgJy1waCcsICc3LjAnLCAnLXRuJywgJzgnLCAnLW1hJywgJzIwMCcsICctaW1hZScsICc8aW5maWxlLm1hZT4nLCAnLW9tYWUnLCAnPG91dGZpbGUubWFlPic=

>  <r_lp_tautomer_probability>  (239) 
1

>  <r_epik_Ionization_Penalty>  (239) 
5.14998e-06

>  <r_epik_Ionization_Penalty_Charging>  (239) 
0

>  <r_epik_Ionization_Penalty_Neutral>  (239) 
5.14998e-06

>  <r_epik_State_Penalty>  (239) 
-0

>  <r_epik_Charging_Adjusted_Penalty>  (239) 
0

>  <i_epik_Tot_Q>  (239) 
0

>  <i_epik_Tot_abs_Q>  (239) 
0

>  <s_epik_Chemistry_Notes>  (239) 
This compound has an ester and may undergo hydrolysis at high or low pH.

>  <s_lp_Force_Field>  (239) 
OPLS3e

>  <r_lp_Energy>  (239) 
31.8597

>  <b_lp_Chiralities_Consistent>  (239) 
1

>  <s_lp_Variant>  (239) 
66:0-1

>  <s_i_glide_gridfile>  (239) 
pfpi4k_grid

>  <i_i_glide_lignum>  (239) 
15

>  <i_i_glide_rotatable_bonds>  (239) 
3

>  <r_i_docking_score>  (239) 
-3.37647

>  <r_i_glide_ligand_efficiency>  (239) 
-0.160784

>  <r_i_glide_ligand_efficiency_sa>  (239) 
-0.443591

>  <r_i_glide_ligand_efficiency_ln>  (239) 
-0.834825

>  <r_i_glide_gscore>  (239) 
-3.37647

>  <r_i_glide_lipo>  (239) 
0

>  <r_i_glide_hbond>  (239) 
-0.132836

>  <r_i_glide_metal>  (239) 
-0

>  <r_i_glide_rewards>  (239) 
-1.38876

>  <r_i_glide_evdw>  (239) 
-20.8261

>  <r_i_glide_ecoul>  (239) 
-5.20944

>  <r_i_glide_erotb>  (239) 
0

>  <r_i_glide_esite>  (239) 
-0.0321528

>  <r_i_glide_emodel>  (239) 
-32.8426

>  <r_i_glide_energy>  (239) 
-26.0356

>  <r_i_glide_einternal>  (239) 
0.035161

>  <r_i_glide_intrahb_reward>  (239) 
-0

>  <i_i_glide_confnum>  (239) 
1

>  <i_i_glide_posenum>  (239) 
9

>  <r_i_glide_eff_state_penalty>  (239) 
0

>  <ligand_id>  (239) 
66

>  <original_smiles>  (239) 
CC1=CC2(C)OC3C(O)C1(C)C1(C)C(=O)OC2C1(O)C3O

>  <smiles>  (239) 
[H]OC1([H])C2([H])OC3(C([H])([H])[H])C([H])=C(C([H])([H])[H])C(C([H])([H])[H])(C2([H])O[H])C2(C([H])([H])[H])C(=O)OC3([H])C12O[H]

$$$$
66:0:2
     RDKit          3D

 41 44  0  0  1  0  0  0  0  0999 V2000
   -2.5861    2.8292    3.0491 C   0  0  0  0  0  0  0  0  0  0  0  0
   -1.2025    2.3927    3.5182 C   0  0  0  0  0  0  0  0  0  0  0  0
   -0.4217    1.6943    2.6802 C   0  0  0  0  0  0  0  0  0  0  0  0
    0.9605    1.1719    3.0198 C   0  0  1  0  0  0  0  0  0  0  0  0
    1.4994    0.4301    1.7923 C   0  0  0  0  0  0  0  0  0  0  0  0
    1.8464    2.2864    3.1745 O   0  0  0  0  0  0  0  0  0  0  0  0
    1.8456    3.0367    4.3938 C   0  0  1  0  0  0  0  0  0  0  0  0
    0.5096    3.7255    4.7642 C   0  0  1  0  0  0  0  0  0  0  0  0
    0.2644    4.8214    3.8945 O   0  0  0  0  0  0  0  0  0  0  0  0
   -0.7228    2.7773    4.9415 C   0  0  1  0  0  0  0  0  0  0  0  0
   -1.8240    3.6354    5.6343 C   0  0  0  0  0  0  0  0  0  0  0  0
   -0.3282    1.4996    5.8488 C   0  0  1  0  0  0  0  0  0  0  0  0
   -0.5751    1.7229    7.3749 C   0  0  0  0  0  0  0  0  0  0  0  0
   -1.0694    0.2282    5.3979 C   0  0  0  0  0  0  0  0  0  0  0  0
   -2.1505   -0.1527    5.8422 O   0  0  0  0  0  0  0  0  0  0  0  0
   -0.3104   -0.3973    4.4737 O   0  0  0  0  0  0  0  0  0  0  0  0
    0.9636    0.2204    4.2642 C   0  0  2  0  0  0  0  0  0  0  0  0
    1.1190    0.9840    5.5871 C   0  0  2  0  0  0  0  0  0  0  0  0
    1.5597    0.0663    6.5859 O   0  0  0  0  0  0  0  0  0  0  0  0
    2.1979    2.0826    5.5266 C   0  0  1  0  0  0  0  0  0  0  0  0
    3.5106    1.5869    5.3244 O   0  0  0  0  0  0  0  0  0  0  0  0
   -3.3694    2.4605    3.7088 H   0  0  0  0  0  0  0  0  0  0  0  0
   -2.7976    2.4093    2.0692 H   0  0  0  0  0  0  0  0  0  0  0  0
   -2.6658    3.9099    2.9589 H   0  0  0  0  0  0  0  0  0  0  0  0
   -0.7906    1.4436    1.6972 H   0  0  0  0  0  0  0  0  0  0  0  0
    0.8757   -0.4344    1.5571 H   0  0  0  0  0  0  0  0  0  0  0  0
    2.5237    0.0845    1.9407 H   0  0  0  0  0  0  0  0  0  0  0  0
    1.4910    1.0806    0.9176 H   0  0  0  0  0  0  0  0  0  0  0  0
    2.6242    3.7983    4.3138 H   0  0  0  0  0  0  0  0  0  0  0  0
    0.6812    4.1907    5.7359 H   0  0  0  0  0  0  0  0  0  0  0  0
    0.2647    4.5050    2.9966 H   0  0  0  0  0  0  0  0  0  0  0  0
   -1.4848    4.0614    6.5812 H   0  0  0  0  0  0  0  0  0  0  0  0
   -2.7387    3.0700    5.8314 H   0  0  0  0  0  0  0  0  0  0  0  0
   -2.0941    4.5000    5.0237 H   0  0  0  0  0  0  0  0  0  0  0  0
    0.0880    2.4853    7.7839 H   0  0  0  0  0  0  0  0  0  0  0  0
   -0.4190    0.8121    7.9563 H   0  0  0  0  0  0  0  0  0  0  0  0
   -1.6019    2.0140    7.6033 H   0  0  0  0  0  0  0  0  0  0  0  0
    1.7641   -0.5180    4.1738 H   0  0  0  0  0  0  0  0  0  0  0  0
    1.7919    0.5615    7.3557 H   0  0  0  0  0  0  0  0  0  0  0  0
    2.2213    2.6277    6.4726 H   0  0  0  0  0  0  0  0  0  0  0  0
    3.5482    1.2033    4.4601 H   0  0  0  0  0  0  0  0  0  0  0  0
  1  2  1  0
  1 22  1  0
  1 23  1  0
  1 24  1  0
  2 10  1  0
  2  3  2  0
  3  4  1  0
  3 25  1  0
  4 17  1  0
  4  5  1  6
  4  6  1  0
  5 26  1  0
  5 27  1  0
  5 28  1  0
  6  7  1  0
  7 20  1  0
  7  8  1  0
  7 29  1  6
  8  9  1  0
  8 10  1  0
  8 30  1  1
  9 31  1  0
 10 11  1  1
 10 12  1  0
 11 32  1  0
 11 33  1  0
 11 34  1  0
 12 18  1  0
 12 13  1  1
 12 14  1  0
 13 35  1  0
 13 36  1  0
 13 37  1  0
 14 15  2  0
 14 16  1  0
 16 17  1  0
 17 18  1  0
 17 38  1  6
 18 19  1  1
 18 20  1  0
 19 39  1  0
 20 21  1  0
 20 40  1  1
 21 41  1  0
M  END
>  <i_m_ct_stereo_status>  (240) 
1

>  <s_m_source_file>  (240) 
/var/tmp/pbs.5076255.sched01/tmptpdlle0r/921kky2sk3.sdf

>  <i_m_source_file_index>  (240) 
15

>  <i_lp_mmshare_version>  (240) 
48012

>  <i_f3d_flags>  (240) 
0

>  <s_epik_input>  (240) 
W09IXVtDQEhdMVtDQEBIXShPMilbQ0BASF0oW09IXSlbQ0BAXShbQ0gzXSkoQyhbQ0gzXSk9W0NIXTMpW0NAQF0oW0NIM10pKEMoPU8pTzQpW0NAQF0xKFtPSF0pW0NAQEhdNFtDQF0yM1tDSDNd

>  <s_epik_cmdline>  (240) 
J2VwaWtfcHl0aG9uJywgJy1waHQnLCAnMi4wJywgJy1waCcsICc3LjAnLCAnLXRuJywgJzgnLCAnLW1hJywgJzIwMCcsICctaW1hZScsICc8aW5maWxlLm1hZT4nLCAnLW9tYWUnLCAnPG91dGZpbGUubWFlPic=

>  <r_lp_tautomer_probability>  (240) 
1

>  <r_epik_Ionization_Penalty>  (240) 
5.14998e-06

>  <r_epik_Ionization_Penalty_Charging>  (240) 
0

>  <r_epik_Ionization_Penalty_Neutral>  (240) 
5.14998e-06

>  <r_epik_State_Penalty>  (240) 
-0

>  <r_epik_Charging_Adjusted_Penalty>  (240) 
0

>  <i_epik_Tot_Q>  (240) 
0

>  <i_epik_Tot_abs_Q>  (240) 
0

>  <s_epik_Chemistry_Notes>  (240) 
This compound has an ester and may undergo hydrolysis at high or low pH.

>  <s_lp_Force_Field>  (240) 
OPLS3e

>  <r_lp_Energy>  (240) 
31.8597

>  <b_lp_Chiralities_Consistent>  (240) 
1

>  <s_lp_Variant>  (240) 
66:0-1

>  <s_i_glide_gridfile>  (240) 
pfpi4k_grid

>  <i_i_glide_lignum>  (240) 
15

>  <i_i_glide_rotatable_bonds>  (240) 
3

>  <r_i_docking_score>  (240) 
-3.2335

>  <r_i_glide_ligand_efficiency>  (240) 
-0.153976

>  <r_i_glide_ligand_efficiency_sa>  (240) 
-0.424809

>  <r_i_glide_ligand_efficiency_ln>  (240) 
-0.799477

>  <r_i_glide_gscore>  (240) 
-3.2335

>  <r_i_glide_lipo>  (240) 
0

>  <r_i_glide_hbond>  (240) 
-0.137897

>  <r_i_glide_metal>  (240) 
-0

>  <r_i_glide_rewards>  (240) 
-1.38876

>  <r_i_glide_evdw>  (240) 
-21.1415

>  <r_i_glide_ecoul>  (240) 
-4.11726

>  <r_i_glide_erotb>  (240) 
0

>  <r_i_glide_esite>  (240) 
-0.0321848

>  <r_i_glide_emodel>  (240) 
-31.6805

>  <r_i_glide_energy>  (240) 
-25.2588

>  <r_i_glide_einternal>  (240) 
0.120945

>  <r_i_glide_intrahb_reward>  (240) 
-0

>  <i_i_glide_confnum>  (240) 
1

>  <i_i_glide_posenum>  (240) 
28

>  <r_i_glide_eff_state_penalty>  (240) 
0

>  <ligand_id>  (240) 
66

>  <original_smiles>  (240) 
CC1=CC2(C)OC3C(O)C1(C)C1(C)C(=O)OC2C1(O)C3O

>  <smiles>  (240) 
[H]OC1([H])C2([H])OC3(C([H])([H])[H])C([H])=C(C([H])([H])[H])C(C([H])([H])[H])(C2([H])O[H])C2(C([H])([H])[H])C(=O)OC3([H])C12O[H]

$$$$
67:1:0
     RDKit          3D

109119  0  0  1  0  0  0  0  0999 V2000
    1.5302   -9.5104   10.5961 C   0  0  0  0  0  0  0  0  0  0  0  0
    1.6362  -10.2522    9.2416 C   0  0  0  0  0  0  0  0  0  0  0  0
    2.1767   -9.4539    8.0530 N   0  0  1  0  0  0  0  0  0  0  0  0
    1.2296   -8.3244    7.5425 C   0  0  0  0  0  0  0  0  0  0  0  0
    1.3477   -6.7082    7.8442 C   0  0  2  0  0  0  0  0  0  0  0  0
   -0.1419   -6.2126    7.8172 C   0  0  0  0  0  0  0  0  0  0  0  0
   -0.2368   -4.8666    8.2536 O   0  0  0  0  0  0  0  0  0  0  0  0
   -1.4659   -4.2239    7.9879 C   0  0  0  0  0  0  0  0  0  0  0  0
    2.2495   -5.5438    7.1699 C   0  0  0  0  0  0  0  0  0  0  0  0
    2.4148   -5.1400    5.7012 C   0  0  0  0  0  0  0  0  0  0  0  0
    3.7656   -5.5851    5.0265 C   0  0  1  0  0  0  0  0  0  0  0  0
    4.8844   -4.7778    5.3852 O   0  0  0  0  0  0  0  0  0  0  0  0
    4.8679   -3.4211    4.9380 C   0  0  0  0  0  0  0  0  0  0  0  0
    4.1237   -7.1364    5.1883 C   0  0  1  0  0  0  0  0  0  0  0  0
    2.5488   -7.7516    4.7411 C   0  0  1  0  0  0  0  0  0  0  0  0
    1.6354   -8.2232    3.4562 C   0  0  1  0  0  0  0  0  0  0  0  0
    1.6300   -7.1714    2.4935 O   0  0  0  0  0  0  0  0  0  0  0  0
    0.6213   -7.2615    1.4932 C   0  0  0  0  0  0  0  0  0  0  0  0
    1.8348   -9.7406    2.7845 C   0  0  0  0  0  0  0  0  0  0  0  0
    3.0978  -10.6343    3.3068 C   0  0  2  0  0  0  0  0  0  0  0  0
    3.0390  -11.9741    2.8665 O   0  0  0  0  0  0  0  0  0  0  0  0
    2.9333  -10.4259    4.8199 C   0  0  2  0  0  0  0  0  0  0  0  0
    3.1728   -8.9521    4.8366 C   0  0  1  0  0  0  0  0  0  0  0  0
    4.3205   -8.7279    3.6039 C   0  0  1  0  0  0  0  0  0  0  0  0
    4.8889   -7.5045    2.8600 C   0  0  0  0  0  0  0  0  0  0  0  0
    5.2583   -8.0826    4.0212 C   0  0  1  0  0  0  0  0  0  0  0  0
    6.7668   -7.5958    4.1275 C   0  0  0  0  0  0  0  0  0  0  0  0
    4.7619   -9.8933    3.2173 C   0  0  2  0  0  0  0  0  0  0  0  0
    5.5958  -10.6206    2.1324 N   0  0  1  0  0  0  0  0  0  0  0  0
    6.3116   -9.8381    1.0847 C   0  0  0  0  0  0  0  0  0  0  0  0
    6.4747  -11.5124    2.8740 C   0  0  0  0  0  0  0  0  0  0  0  0
    6.6176  -10.7039    4.1158 C   0  0  0  0  0  0  0  0  0  0  0  0
    5.2244  -10.0167    4.4196 C   0  0  1  0  0  0  0  0  0  0  0  0
    4.2933  -10.7398    5.4956 C   0  0  2  0  0  0  0  0  0  0  0  0
    4.4815  -12.1436    5.4770 O   0  0  0  0  0  0  0  0  0  0  0  0
    4.5975  -10.2592    7.0347 C   0  0  1  0  0  0  0  0  0  0  0  0
    6.0185   -9.6542    7.0760 C   0  0  0  0  0  0  0  0  0  0  0  0
    6.0811   -8.1426    6.8713 N   0  0  2  0  0  0  0  0  0  0  0  0
    6.7189   -7.6225    8.1028 C   0  0  0  0  0  0  0  0  0  0  0  0
    5.5719   -7.8098    9.0674 C   0  0  0  0  0  0  0  0  0  0  0  0
    4.2094   -7.8446    8.2200 C   0  0  2  0  0  0  0  0  0  0  0  0
    3.4085   -6.9890    9.3138 C   0  0  0  0  0  0  0  0  0  0  0  0
    1.8700   -6.6845    9.2808 C   0  0  1  0  0  0  0  0  0  0  0  0
    1.6252   -5.4490    9.9750 O   0  0  0  0  0  0  0  0  0  0  0  0
    1.7378   -5.5718   11.3972 C   0  0  0  0  0  0  0  0  0  0  0  0
    3.7060   -9.3285    8.0490 C   0  0  1  0  0  0  0  0  0  0  0  0
    4.7727   -7.3631    6.7728 C   0  0  2  0  0  0  0  0  0  0  0  0
    1.3377  -10.1686   11.4486 H   0  0  0  0  0  0  0  0  0  0  0  0
    0.6700   -8.8610   10.6109 H   0  0  0  0  0  0  0  0  0  0  0  0
    2.4806   -9.0119   10.8143 H   0  0  0  0  0  0  0  0  0  0  0  0
    2.2787  -11.1206    9.4012 H   0  0  0  0  0  0  0  0  0  0  0  0
    0.6548  -10.6512    8.9820 H   0  0  0  0  0  0  0  0  0  0  0  0
    0.8612   -8.6401    6.5728 H   0  0  0  0  0  0  0  0  0  0  0  0
    0.3129   -8.6249    8.0454 H   0  0  0  0  0  0  0  0  0  0  0  0
   -0.5490   -6.2994    6.8075 H   0  0  0  0  0  0  0  0  0  0  0  0
   -0.7867   -6.8001    8.4751 H   0  0  0  0  0  0  0  0  0  0  0  0
   -1.3694   -3.1939    8.3387 H   0  0  0  0  0  0  0  0  0  0  0  0
   -2.2829   -4.7085    8.5295 H   0  0  0  0  0  0  0  0  0  0  0  0
   -1.6719   -4.1982    6.9135 H   0  0  0  0  0  0  0  0  0  0  0  0
    1.8877   -4.6257    7.6277 H   0  0  0  0  0  0  0  0  0  0  0  0
    3.2465   -5.4504    7.5587 H   0  0  0  0  0  0  0  0  0  0  0  0
    1.5200   -5.3891    5.1348 H   0  0  0  0  0  0  0  0  0  0  0  0
    2.3630   -4.0546    5.6899 H   0  0  0  0  0  0  0  0  0  0  0  0
    3.5288   -5.3271    4.0067 H   0  0  0  0  0  0  0  0  0  0  0  0
    5.8211   -2.9496    5.1770 H   0  0  0  0  0  0  0  0  0  0  0  0
    4.1044   -2.8185    5.4300 H   0  0  0  0  0  0  0  0  0  0  0  0
    4.7315   -3.3373    3.8581 H   0  0  0  0  0  0  0  0  0  0  0  0
    1.8246   -7.4437    5.4392 H   0  0  0  0  0  0  0  0  0  0  0  0
    0.6121   -8.2478    3.8488 H   0  0  0  0  0  0  0  0  0  0  0  0
    0.7222   -6.4191    0.8123 H   0  0  0  0  0  0  0  0  0  0  0  0
   -0.3866   -7.2436    1.9114 H   0  0  0  0  0  0  0  0  0  0  0  0
    0.7218   -8.1532    0.8821 H   0  0  0  0  0  0  0  0  0  0  0  0
    0.9125  -10.3052    2.9232 H   0  0  0  0  0  0  0  0  0  0  0  0
    1.9390   -9.6673    1.7051 H   0  0  0  0  0  0  0  0  0  0  0  0
    3.2666  -12.0717    1.9617 H   0  0  0  0  0  0  0  0  0  0  0  0
    2.0386  -10.8077    5.3084 H   0  0  0  0  0  0  0  0  0  0  0  0
    3.2297   -8.8795    5.8790 H   0  0  0  0  0  0  0  0  0  0  0  0
    3.6585   -8.4466    2.6094 H   0  0  0  0  0  0  0  0  0  0  0  0
    5.4980   -7.6788    1.9823 H   0  0  0  0  0  0  0  0  0  0  0  0
    4.3063   -6.5960    2.7921 H   0  0  0  0  0  0  0  0  0  0  0  0
    7.3229   -7.6853    3.1969 H   0  0  0  0  0  0  0  0  0  0  0  0
    7.3828   -8.1115    4.8536 H   0  0  0  0  0  0  0  0  0  0  0  0
    6.8019   -6.5410    4.3938 H   0  0  0  0  0  0  0  0  0  0  0  0
    7.0852   -9.2033    1.4951 H   0  0  0  0  0  0  0  0  0  0  0  0
    5.6197   -9.2583    0.4908 H   0  0  0  0  0  0  0  0  0  0  0  0
    6.7994  -10.5263    0.4074 H   0  0  0  0  0  0  0  0  0  0  0  0
    5.9473  -12.4443    3.0491 H   0  0  0  0  0  0  0  0  0  0  0  0
    7.4072  -11.7447    2.3634 H   0  0  0  0  0  0  0  0  0  0  0  0
    6.9569  -11.3846    4.8878 H   0  0  0  0  0  0  0  0  0  0  0  0
    7.4315  -10.0095    3.9458 H   0  0  0  0  0  0  0  0  0  0  0  0
    3.7694  -12.5707    5.9459 H   0  0  0  0  0  0  0  0  0  0  0  0
    4.6850  -11.1946    7.5782 H   0  0  0  0  0  0  0  0  0  0  0  0
    6.4426   -9.9542    8.0309 H   0  0  0  0  0  0  0  0  0  0  0  0
    6.7781  -10.0957    6.4677 H   0  0  0  0  0  0  0  0  0  0  0  0
    7.6322   -8.1433    8.3867 H   0  0  0  0  0  0  0  0  0  0  0  0
    6.9908   -6.5772    7.9814 H   0  0  0  0  0  0  0  0  0  0  0  0
    5.7089   -8.7000    9.6788 H   0  0  0  0  0  0  0  0  0  0  0  0
    5.6867   -7.0035    9.7909 H   0  0  0  0  0  0  0  0  0  0  0  0
    3.5507   -7.4825   10.2819 H   0  0  0  0  0  0  0  0  0  0  0  0
    3.9060   -6.0223    9.4639 H   0  0  0  0  0  0  0  0  0  0  0  0
    1.2893   -7.3250    9.7769 H   0  0  0  0  0  0  0  0  0  0  0  0
    1.4729   -4.6109   11.8346 H   0  0  0  0  0  0  0  0  0  0  0  0
    2.7651   -5.7897   11.6939 H   0  0  0  0  0  0  0  0  0  0  0  0
    1.0846   -6.3241   11.8608 H   0  0  0  0  0  0  0  0  0  0  0  0
    3.9614   -9.7797    9.0094 H   0  0  0  0  0  0  0  0  0  0  0  0
    5.0889   -6.3609    7.0040 H   0  0  0  0  0  0  0  0  0  0  0  0
    6.6786   -7.9165    6.0851 H   0  0  0  0  0  0  0  0  0  0  0  0
    4.9727  -11.2187    1.5917 H   0  0  0  0  0  0  0  0  0  0  0  0
    2.0319  -10.1602    7.3411 H   0  0  0  0  0  0  0  0  0  0  0  0
  1  2  1  0
  1 48  1  0
  1 49  1  0
  1 50  1  0
  2  3  1  0
  2 51  1  0
  2 52  1  0
  3 46  1  0
  3  4  1  0
  3109  1  6
  4  5  1  0
  4 53  1  0
  4 54  1  0
  5 43  1  0
  5  6  1  1
  5  9  1  0
  6  7  1  0
  6 55  1  0
  6 56  1  0
  7  8  1  0
  8 57  1  0
  8 58  1  0
  8 59  1  0
  9 10  1  0
  9 60  1  0
  9 61  1  0
 10 11  1  0
 10 62  1  0
 10 63  1  0
 11 12  1  0
 11 14  1  0
 11 64  1  6
 12 13  1  0
 13 65  1  0
 13 66  1  0
 13 67  1  0
 14 26  1  6
 14 47  1  0
 14 15  1  0
 15 23  1  0
 15 16  1  0
 15 68  1  1
 16 17  1  0
 16 19  1  0
 16 69  1  1
 17 18  1  0
 18 70  1  0
 18 71  1  0
 18 72  1  0
 19 20  1  0
 19 73  1  0
 19 74  1  0
 28 20  1  1
 20 21  1  1
 20 22  1  0
 21 75  1  0
 22 34  1  0
 22 23  1  0
 22 76  1  1
 23 24  1  0
 23 77  1  1
 24 33  1  0
 24 25  1  0
 24 78  1  6
 25 26  1  0
 25 79  1  0
 25 80  1  0
 26 27  1  1
 26 28  1  0
 27 81  1  0
 27 82  1  0
 27 83  1  0
 28 33  1  0
 28 29  1  0
 29 30  1  0
 29 31  1  0
 29108  1  6
 30 84  1  0
 30 85  1  0
 30 86  1  0
 31 32  1  0
 31 87  1  0
 31 88  1  0
 33 32  1  6
 32 89  1  0
 32 90  1  0
 33 34  1  0
 34 35  1  1
 34 36  1  0
 35 91  1  0
 36 46  1  0
 36 37  1  0
 36 92  1  1
 37 38  1  0
 37 93  1  0
 37 94  1  0
 38 47  1  0
 38 39  1  0
 38107  1  6
 39 40  1  0
 39 95  1  0
 39 96  1  0
 41 40  1  1
 40 97  1  0
 40 98  1  0
 41 42  1  0
 41 46  1  0
 41 47  1  0
 42 43  1  0
 42 99  1  0
 42100  1  0
 43 44  1  0
 43101  1  1
 44 45  1  0
 45102  1  0
 45103  1  0
 45104  1  0
 46105  1  1
 47106  1  1
M  CHG  3   3   1  29   1  38   1
M  END
>  <i_m_ct_stereo_status>  (241) 
1

>  <s_m_source_file>  (241) 
/var/tmp/pbs.5076255.sched01/tmptpdlle0r/921kky2sk3.sdf

>  <i_m_source_file_index>  (241) 
17

>  <i_lp_mmshare_version>  (241) 
48012

>  <i_f3d_flags>  (241) 
2

>  <s_epik_input>  (241) 
W0NIM11PW0NAQEhdMVtDSDJdW0NIMl1bQ0BAXShbQ0gyXU9bQ0gzXSkoW0NIMl1OMltDSDJdW0NIM10pW0NASF0oT1tDSDNdKVtDSDJdW0NAXTMoW0NASF00TihbQ0gyXTUpW0NIMl1bQ0gyXTMpW0NASF0yW0NASF01W0NAXTYoW09IXSlDKFtDQEBIXTdbQ0gyXVtDQEBdODlbQ0gzXSkoW0NIMl1bQ0gyXU4yW0NIM10pW0NAXTI5W0NAQF0oW09IXSkoW0NAQEhdNltDSF03W0NIXTJbQ0BAXTE0OClbQ0gyXVtDQEBIXTJPW0NIM10=

>  <s_epik_cmdline>  (241) 
J2VwaWtfcHl0aG9uJywgJy1waHQnLCAnMi4wJywgJy1waCcsICc3LjAnLCAnLXRuJywgJzgnLCAnLW1hJywgJzIwMCcsICctaW1hZScsICc8aW5maWxlLm1hZT4nLCAnLW9tYWUnLCAnPG91dGZpbGUubWFlPic=

>  <r_epik_Ionization_Penalty>  (241) 
0.597834

>  <r_epik_Ionization_Penalty_Charging>  (241) 
0.597832

>  <r_epik_Ionization_Penalty_Neutral>  (241) 
2.27911e-06

>  <r_epik_State_Penalty>  (241) 
0.564621

>  <r_epik_Charging_Adjusted_Penalty>  (241) 
1.16245

>  <i_epik_Tot_Q>  (241) 
3

>  <i_epik_Tot_abs_Q>  (241) 
3

>  <s_lp_Force_Field>  (241) 
OPLS3e

>  <r_lp_Energy>  (241) 
1063.05

>  <b_lp_Chiralities_Consistent>  (241) 
0

>  <s_lp_Variant>  (241) 
67:0-2

>  <s_i_glide_gridfile>  (241) 
pfpi4k_grid

>  <i_i_glide_lignum>  (241) 
17

>  <i_i_glide_rotatable_bonds>  (241) 
8

>  <r_i_docking_score>  (241) 
-2.69503

>  <r_i_glide_ligand_efficiency>  (241) 
-0.057341

>  <r_i_glide_ligand_efficiency_sa>  (241) 
-0.206934

>  <r_i_glide_ligand_efficiency_ln>  (241) 
-0.555659

>  <r_i_glide_gscore>  (241) 
-2.69503

>  <r_i_glide_lipo>  (241) 
-0.0759966

>  <r_i_glide_hbond>  (241) 
-0.232478

>  <r_i_glide_metal>  (241) 
-0

>  <r_i_glide_rewards>  (241) 
0

>  <r_i_glide_evdw>  (241) 
-19.613

>  <r_i_glide_ecoul>  (241) 
-8.66503

>  <r_i_glide_erotb>  (241) 
0.049273

>  <r_i_glide_esite>  (241) 
-0.155421

>  <r_i_glide_emodel>  (241) 
-29.9844

>  <r_i_glide_energy>  (241) 
-28.278

>  <r_i_glide_einternal>  (241) 
5.35037

>  <r_i_glide_intrahb_reward>  (241) 
-0

>  <i_i_glide_confnum>  (241) 
3

>  <i_i_glide_posenum>  (241) 
20

>  <r_i_glide_eff_state_penalty>  (241) 
0

>  <ligand_id>  (241) 
67

>  <original_smiles>  (241) 
CCN1CC2(COC)CCC(OC)C34C5C(OC)CC6(O)C7C5C5CC3(C)C63N(C)CCC53C7(O)C3CN5CCC(CC2OC)(C31)C54

>  <smiles>  (241) 
[H]OC12C3([H])C4([H])C5([H])C([H])(OC([H])([H])[H])C([H])([H])C3(O[H])C36C1(C([H])([H])C([H])([H])[N+]3([H])C([H])([H])[H])C4([H])C([H])([H])C6(C([H])([H])[H])C51C([H])(OC([H])([H])[H])C([H])([H])C([H])([H])C3(C([H])([H])OC([H])([H])[H])C([H])(OC([H])([H])[H])C([H])([H])C45C([H])([H])C([H])([H])[N+]([H])(C([H])([H])C2([H])C4([H])[N+]([H])(C([H])([H])C([H])([H])[H])C3([H])[H])C15[H]

$$$$
67:1:1
     RDKit          3D

109119  0  0  1  0  0  0  0  0999 V2000
    1.2470   -9.9812    9.6920 C   0  0  0  0  0  0  0  0  0  0  0  0
    0.9005   -8.5212    9.3497 C   0  0  0  0  0  0  0  0  0  0  0  0
    1.4859   -8.0734    8.0425 N   0  0  1  0  0  0  0  0  0  0  0  0
    0.6625   -6.9813    7.3442 C   0  0  0  0  0  0  0  0  0  0  0  0
    0.9113   -5.3670    7.3914 C   0  0  2  0  0  0  0  0  0  0  0  0
   -0.5101   -4.7199    7.2334 C   0  0  0  0  0  0  0  0  0  0  0  0
   -1.3478   -5.0705    8.3268 O   0  0  0  0  0  0  0  0  0  0  0  0
   -2.6890   -4.6530    8.1854 C   0  0  0  0  0  0  0  0  0  0  0  0
    1.8986   -4.4152    6.5113 C   0  0  0  0  0  0  0  0  0  0  0  0
    2.0928   -4.3193    4.9802 C   0  0  0  0  0  0  0  0  0  0  0  0
    3.3984   -4.9917    4.3893 C   0  0  1  0  0  0  0  0  0  0  0  0
    4.5937   -4.2366    4.6015 O   0  0  0  0  0  0  0  0  0  0  0  0
    4.6906   -2.9939    3.9121 C   0  0  0  0  0  0  0  0  0  0  0  0
    3.6085   -6.5077    4.8428 C   0  0  1  0  0  0  0  0  0  0  0  0
    1.9827   -7.0386    4.4928 C   0  0  1  0  0  0  0  0  0  0  0  0
    1.0322   -7.6500    3.3132 C   0  0  1  0  0  0  0  0  0  0  0  0
    1.1052   -6.7954    2.1757 O   0  0  0  0  0  0  0  0  0  0  0  0
    0.0015   -6.8939    1.2863 C   0  0  0  0  0  0  0  0  0  0  0  0
    1.0716   -9.2748    2.9498 C   0  0  0  0  0  0  0  0  0  0  0  0
    2.2409  -10.1591    3.6576 C   0  0  2  0  0  0  0  0  0  0  0  0
    2.0325  -11.5335    3.4708 O   0  0  0  0  0  0  0  0  0  0  0  0
    2.0941   -9.6698    5.0987 C   0  0  2  0  0  0  0  0  0  0  0  0
    2.4845   -8.2469    4.8276 C   0  0  1  0  0  0  0  0  0  0  0  0
    3.6337   -8.3870    3.5857 C   0  0  1  0  0  0  0  0  0  0  0  0
    4.3219   -7.3718    2.6390 C   0  0  0  0  0  0  0  0  0  0  0  0
    4.6328   -7.7668    3.8859 C   0  0  1  0  0  0  0  0  0  0  0  0
    6.1785   -7.4159    3.9094 C   0  0  0  0  0  0  0  0  0  0  0  0
    3.9631   -9.6328    3.4423 C   0  0  2  0  0  0  0  0  0  0  0  0
    4.7024  -10.6095    2.5409 N   0  0  1  0  0  0  0  0  0  0  0  0
    5.4835  -10.1239    1.3713 C   0  0  0  0  0  0  0  0  0  0  0  0
    5.4919  -11.4351    3.4273 C   0  0  0  0  0  0  0  0  0  0  0  0
    5.7334  -10.4364    4.5118 C   0  0  0  0  0  0  0  0  0  0  0  0
    4.4098   -9.5598    4.6554 C   0  0  1  0  0  0  0  0  0  0  0  0
    3.4235   -9.9874    5.8347 C   0  0  2  0  0  0  0  0  0  0  0  0
    3.4914  -11.3843    6.0751 O   0  0  0  0  0  0  0  0  0  0  0  0
    3.7946   -9.2416    7.2479 C   0  0  1  0  0  0  0  0  0  0  0  0
    5.2629   -8.7603    7.1739 C   0  0  0  0  0  0  0  0  0  0  0  0
    5.4576   -7.3388    6.6945 N   0  0  2  0  0  0  0  0  0  0  0  0
    6.1515   -6.6713    7.7938 C   0  0  0  0  0  0  0  0  0  0  0  0
    5.0016   -6.5488    8.7754 C   0  0  0  0  0  0  0  0  0  0  0  0
    3.6255   -6.6292    7.9479 C   0  0  2  0  0  0  0  0  0  0  0  0
    2.9122   -5.5539    8.8844 C   0  0  0  0  0  0  0  0  0  0  0  0
    1.4250   -5.1568    8.8056 C   0  0  1  0  0  0  0  0  0  0  0  0
    1.2671   -3.7967    9.2124 O   0  0  0  0  0  0  0  0  0  0  0  0
    1.4724   -3.5591   10.6001 C   0  0  0  0  0  0  0  0  0  0  0  0
    2.9980   -8.0598    8.0586 C   0  0  1  0  0  0  0  0  0  0  0  0
    4.2385   -6.4822    6.4454 C   0  0  2  0  0  0  0  0  0  0  0  0
    0.7108  -10.2965   10.5900 H   0  0  0  0  0  0  0  0  0  0  0  0
    2.3094  -10.1325    9.8913 H   0  0  0  0  0  0  0  0  0  0  0  0
    0.9518  -10.6500    8.8827 H   0  0  0  0  0  0  0  0  0  0  0  0
   -0.1883   -8.4846    9.3317 H   0  0  0  0  0  0  0  0  0  0  0  0
    1.2104   -7.8694   10.1673 H   0  0  0  0  0  0  0  0  0  0  0  0
    0.2314   -7.3914    6.4372 H   0  0  0  0  0  0  0  0  0  0  0  0
   -0.2743   -7.0670    7.8770 H   0  0  0  0  0  0  0  0  0  0  0  0
   -0.4844   -3.6283    7.2041 H   0  0  0  0  0  0  0  0  0  0  0  0
   -0.9552   -5.0369    6.2878 H   0  0  0  0  0  0  0  0  0  0  0  0
   -3.2686   -4.9648    9.0526 H   0  0  0  0  0  0  0  0  0  0  0  0
   -3.1680   -5.0544    7.2946 H   0  0  0  0  0  0  0  0  0  0  0  0
   -2.7463   -3.5706    8.1289 H   0  0  0  0  0  0  0  0  0  0  0  0
    1.5744   -3.4030    6.7584 H   0  0  0  0  0  0  0  0  0  0  0  0
    2.9097   -4.3240    6.8715 H   0  0  0  0  0  0  0  0  0  0  0  0
    1.1835   -4.5904    4.4405 H   0  0  0  0  0  0  0  0  0  0  0  0
    2.1526   -3.2601    4.7399 H   0  0  0  0  0  0  0  0  0  0  0  0
    3.1884   -4.9055    3.3323 H   0  0  0  0  0  0  0  0  0  0  0  0
    5.6882   -2.5848    4.0568 H   0  0  0  0  0  0  0  0  0  0  0  0
    3.9975   -2.2463    4.2933 H   0  0  0  0  0  0  0  0  0  0  0  0
    4.5352   -3.0966    2.8382 H   0  0  0  0  0  0  0  0  0  0  0  0
    1.3035   -6.5506    5.1317 H   0  0  0  0  0  0  0  0  0  0  0  0
    0.0233   -7.5130    3.7126 H   0  0  0  0  0  0  0  0  0  0  0  0
    0.1714   -6.2411    0.4323 H   0  0  0  0  0  0  0  0  0  0  0  0
   -0.9380   -6.6110    1.7630 H   0  0  0  0  0  0  0  0  0  0  0  0
   -0.1251   -7.8915    0.8861 H   0  0  0  0  0  0  0  0  0  0  0  0
    0.1039   -9.7055    3.2142 H   0  0  0  0  0  0  0  0  0  0  0  0
    1.1580   -9.4103    1.8721 H   0  0  0  0  0  0  0  0  0  0  0  0
    1.1822  -11.7561    3.8197 H   0  0  0  0  0  0  0  0  0  0  0  0
    1.1600   -9.8551    5.6362 H   0  0  0  0  0  0  0  0  0  0  0  0
    2.5629   -7.9854    5.8351 H   0  0  0  0  0  0  0  0  0  0  0  0
    3.0193   -8.2453    2.5385 H   0  0  0  0  0  0  0  0  0  0  0  0
    4.8905   -7.7766    1.8091 H   0  0  0  0  0  0  0  0  0  0  0  0
    3.7963   -6.4682    2.3900 H   0  0  0  0  0  0  0  0  0  0  0  0
    6.7070   -7.7378    3.0095 H   0  0  0  0  0  0  0  0  0  0  0  0
    6.7528   -7.8426    4.7253 H   0  0  0  0  0  0  0  0  0  0  0  0
    6.3056   -6.3324    3.9653 H   0  0  0  0  0  0  0  0  0  0  0  0
    6.3245   -9.4887    1.6512 H   0  0  0  0  0  0  0  0  0  0  0  0
    4.8400   -9.6171    0.6451 H   0  0  0  0  0  0  0  0  0  0  0  0
    5.9152  -10.9789    0.8469 H   0  0  0  0  0  0  0  0  0  0  0  0
    4.8813  -12.2676    3.7892 H   0  0  0  0  0  0  0  0  0  0  0  0
    6.4042  -11.8287    2.9790 H   0  0  0  0  0  0  0  0  0  0  0  0
    6.0089  -11.0066    5.4013 H   0  0  0  0  0  0  0  0  0  0  0  0
    6.6132   -9.8691    4.2154 H   0  0  0  0  0  0  0  0  0  0  0  0
    2.7465  -11.6828    6.5968 H   0  0  0  0  0  0  0  0  0  0  0  0
    3.7936  -10.0607    7.9647 H   0  0  0  0  0  0  0  0  0  0  0  0
    5.6407   -8.9134    8.1855 H   0  0  0  0  0  0  0  0  0  0  0  0
    5.9539   -9.4116    6.6717 H   0  0  0  0  0  0  0  0  0  0  0  0
    7.0055   -7.2187    8.1965 H   0  0  0  0  0  0  0  0  0  0  0  0
    6.5283   -5.6929    7.4936 H   0  0  0  0  0  0  0  0  0  0  0  0
    5.0655   -7.3199    9.5483 H   0  0  0  0  0  0  0  0  0  0  0  0
    5.2025   -5.6284    9.3316 H   0  0  0  0  0  0  0  0  0  0  0  0
    3.0169   -5.8916    9.9201 H   0  0  0  0  0  0  0  0  0  0  0  0
    3.4721   -4.6141    8.8534 H   0  0  0  0  0  0  0  0  0  0  0  0
    0.8303   -5.7560    9.4942 H   0  0  0  0  0  0  0  0  0  0  0  0
    1.3028   -2.5060   10.8206 H   0  0  0  0  0  0  0  0  0  0  0  0
    2.4938   -3.7889   10.9025 H   0  0  0  0  0  0  0  0  0  0  0  0
    0.7894   -4.1434   11.2177 H   0  0  0  0  0  0  0  0  0  0  0  0
    3.2388   -8.2984    9.0934 H   0  0  0  0  0  0  0  0  0  0  0  0
    4.6455   -5.4793    6.4788 H   0  0  0  0  0  0  0  0  0  0  0  0
    6.0640   -7.3324    5.8838 H   0  0  0  0  0  0  0  0  0  0  0  0
    4.0161  -11.2396    2.1340 H   0  0  0  0  0  0  0  0  0  0  0  0
    1.2802   -8.8798    7.4727 H   0  0  0  0  0  0  0  0  0  0  0  0
  1  2  1  0
  1 48  1  0
  1 49  1  0
  1 50  1  0
  2  3  1  0
  2 51  1  0
  2 52  1  0
  3 46  1  0
  3  4  1  0
  3109  1  6
  4  5  1  0
  4 53  1  0
  4 54  1  0
  5 43  1  0
  5  6  1  1
  5  9  1  0
  6  7  1  0
  6 55  1  0
  6 56  1  0
  7  8  1  0
  8 57  1  0
  8 58  1  0
  8 59  1  0
  9 10  1  0
  9 60  1  0
  9 61  1  0
 10 11  1  0
 10 62  1  0
 10 63  1  0
 11 12  1  0
 11 14  1  0
 11 64  1  6
 12 13  1  0
 13 65  1  0
 13 66  1  0
 13 67  1  0
 14 26  1  6
 14 47  1  0
 14 15  1  0
 15 23  1  0
 15 16  1  0
 15 68  1  1
 16 17  1  0
 16 19  1  0
 16 69  1  1
 17 18  1  0
 18 70  1  0
 18 71  1  0
 18 72  1  0
 19 20  1  0
 19 73  1  0
 19 74  1  0
 28 20  1  1
 20 21  1  1
 20 22  1  0
 21 75  1  0
 22 34  1  0
 22 23  1  0
 22 76  1  1
 23 24  1  0
 23 77  1  1
 24 33  1  0
 24 25  1  0
 24 78  1  6
 25 26  1  0
 25 79  1  0
 25 80  1  0
 26 27  1  1
 26 28  1  0
 27 81  1  0
 27 82  1  0
 27 83  1  0
 28 33  1  0
 28 29  1  0
 29 30  1  0
 29 31  1  0
 29108  1  6
 30 84  1  0
 30 85  1  0
 30 86  1  0
 31 32  1  0
 31 87  1  0
 31 88  1  0
 33 32  1  6
 32 89  1  0
 32 90  1  0
 33 34  1  0
 34 35  1  1
 34 36  1  0
 35 91  1  0
 36 46  1  0
 36 37  1  0
 36 92  1  1
 37 38  1  0
 37 93  1  0
 37 94  1  0
 38 47  1  0
 38 39  1  0
 38107  1  6
 39 40  1  0
 39 95  1  0
 39 96  1  0
 41 40  1  1
 40 97  1  0
 40 98  1  0
 41 42  1  0
 41 46  1  0
 41 47  1  0
 42 43  1  0
 42 99  1  0
 42100  1  0
 43 44  1  0
 43101  1  1
 44 45  1  0
 45102  1  0
 45103  1  0
 45104  1  0
 46105  1  1
 47106  1  1
M  CHG  3   3   1  29   1  38   1
M  END
>  <i_m_ct_stereo_status>  (242) 
1

>  <s_m_source_file>  (242) 
/var/tmp/pbs.5076255.sched01/tmptpdlle0r/921kky2sk3.sdf

>  <i_m_source_file_index>  (242) 
17

>  <i_lp_mmshare_version>  (242) 
48012

>  <i_f3d_flags>  (242) 
2

>  <s_epik_input>  (242) 
W0NIM11PW0NAQEhdMVtDSDJdW0NIMl1bQ0BAXShbQ0gyXU9bQ0gzXSkoW0NIMl1OMltDSDJdW0NIM10pW0NASF0oT1tDSDNdKVtDSDJdW0NAXTMoW0NASF00TihbQ0gyXTUpW0NIMl1bQ0gyXTMpW0NASF0yW0NASF01W0NAXTYoW09IXSlDKFtDQEBIXTdbQ0gyXVtDQEBdODlbQ0gzXSkoW0NIMl1bQ0gyXU4yW0NIM10pW0NAXTI5W0NAQF0oW09IXSkoW0NAQEhdNltDSF03W0NIXTJbQ0BAXTE0OClbQ0gyXVtDQEBIXTJPW0NIM10=

>  <s_epik_cmdline>  (242) 
J2VwaWtfcHl0aG9uJywgJy1waHQnLCAnMi4wJywgJy1waCcsICc3LjAnLCAnLXRuJywgJzgnLCAnLW1hJywgJzIwMCcsICctaW1hZScsICc8aW5maWxlLm1hZT4nLCAnLW9tYWUnLCAnPG91dGZpbGUubWFlPic=

>  <r_epik_Ionization_Penalty>  (242) 
0.597834

>  <r_epik_Ionization_Penalty_Charging>  (242) 
0.597832

>  <r_epik_Ionization_Penalty_Neutral>  (242) 
2.27911e-06

>  <r_epik_State_Penalty>  (242) 
0.564621

>  <r_epik_Charging_Adjusted_Penalty>  (242) 
1.16245

>  <i_epik_Tot_Q>  (242) 
3

>  <i_epik_Tot_abs_Q>  (242) 
3

>  <s_lp_Force_Field>  (242) 
OPLS3e

>  <r_lp_Energy>  (242) 
1063.05

>  <b_lp_Chiralities_Consistent>  (242) 
0

>  <s_lp_Variant>  (242) 
67:0-2

>  <s_i_glide_gridfile>  (242) 
pfpi4k_grid

>  <i_i_glide_lignum>  (242) 
17

>  <i_i_glide_rotatable_bonds>  (242) 
8

>  <r_i_docking_score>  (242) 
-2.25954

>  <r_i_glide_ligand_efficiency>  (242) 
-0.0480754

>  <r_i_glide_ligand_efficiency_sa>  (242) 
-0.173496

>  <r_i_glide_ligand_efficiency_ln>  (242) 
-0.465871

>  <r_i_glide_gscore>  (242) 
-2.25954

>  <r_i_glide_lipo>  (242) 
-0.0287135

>  <r_i_glide_hbond>  (242) 
-0.110175

>  <r_i_glide_metal>  (242) 
-0

>  <r_i_glide_rewards>  (242) 
0

>  <r_i_glide_evdw>  (242) 
-19.9548

>  <r_i_glide_ecoul>  (242) 
-7.11929

>  <r_i_glide_erotb>  (242) 
0.049273

>  <r_i_glide_esite>  (242) 
-0.104294

>  <r_i_glide_emodel>  (242) 
-32.4969

>  <r_i_glide_energy>  (242) 
-27.0741

>  <r_i_glide_einternal>  (242) 
2.18465

>  <r_i_glide_intrahb_reward>  (242) 
-0

>  <i_i_glide_confnum>  (242) 
3

>  <i_i_glide_posenum>  (242) 
14

>  <r_i_glide_eff_state_penalty>  (242) 
0

>  <ligand_id>  (242) 
67

>  <original_smiles>  (242) 
CCN1CC2(COC)CCC(OC)C34C5C(OC)CC6(O)C7C5C5CC3(C)C63N(C)CCC53C7(O)C3CN5CCC(CC2OC)(C31)C54

>  <smiles>  (242) 
[H]OC12C3([H])C4([H])C5([H])C([H])(OC([H])([H])[H])C([H])([H])C3(O[H])C36C1(C([H])([H])C([H])([H])[N+]3([H])C([H])([H])[H])C4([H])C([H])([H])C6(C([H])([H])[H])C51C([H])(OC([H])([H])[H])C([H])([H])C([H])([H])C3(C([H])([H])OC([H])([H])[H])C([H])(OC([H])([H])[H])C([H])([H])C45C([H])([H])C([H])([H])[N+]([H])(C([H])([H])C2([H])C4([H])[N+]([H])(C([H])([H])C([H])([H])[H])C3([H])[H])C15[H]

$$$$
67:1:2
     RDKit          3D

109119  0  0  1  0  0  0  0  0999 V2000
    7.5790   -6.5649    9.7776 C   0  0  0  0  0  0  0  0  0  0  0  0
    6.1654   -7.1925    9.6441 C   0  0  0  0  0  0  0  0  0  0  0  0
    5.4191   -6.9451    8.3395 N   0  0  1  0  0  0  0  0  0  0  0  0
    4.8125   -5.5216    8.2008 C   0  0  0  0  0  0  0  0  0  0  0  0
    5.4408   -4.2442    7.3606 C   0  0  2  0  0  0  0  0  0  0  0  0
    4.9469   -2.9846    8.1539 C   0  0  0  0  0  0  0  0  0  0  0  0
    5.6418   -1.8204    7.7271 O   0  0  0  0  0  0  0  0  0  0  0  0
    5.2864   -0.6153    8.3663 C   0  0  0  0  0  0  0  0  0  0  0  0
    5.4040   -3.8645    5.7728 C   0  0  0  0  0  0  0  0  0  0  0  0
    4.2081   -3.7149    4.8557 C   0  0  0  0  0  0  0  0  0  0  0  0
    3.9573   -4.9098    3.8437 C   0  0  1  0  0  0  0  0  0  0  0  0
    4.8142   -4.8956    2.7026 O   0  0  0  0  0  0  0  0  0  0  0  0
    4.6224   -3.8202    1.7795 C   0  0  0  0  0  0  0  0  0  0  0  0
    3.9276   -6.3897    4.4923 C   0  0  1  0  0  0  0  0  0  0  0  0
    2.8484   -5.9930    5.7985 C   0  0  1  0  0  0  0  0  0  0  0  0
    1.2497   -5.9450    6.2190 C   0  0  1  0  0  0  0  0  0  0  0  0
    0.4626   -5.1826    5.2925 O   0  0  0  0  0  0  0  0  0  0  0  0
    0.8164   -3.7970    5.1996 C   0  0  0  0  0  0  0  0  0  0  0  0
    0.4373   -7.3373    6.6420 C   0  0  0  0  0  0  0  0  0  0  0  0
    1.2254   -8.7514    6.4120 C   0  0  2  0  0  0  0  0  0  0  0  0
    0.4920   -9.8152    7.0674 O   0  0  0  0  0  0  0  0  0  0  0  0
    2.5649   -8.3966    7.0397 C   0  0  2  0  0  0  0  0  0  0  0  0
    2.9323   -7.3327    6.0364 C   0  0  1  0  0  0  0  0  0  0  0  0
    2.2554   -7.8925    4.6140 C   0  0  1  0  0  0  0  0  0  0  0  0
    2.0093   -7.2770    3.1994 C   0  0  0  0  0  0  0  0  0  0  0  0
    3.1050   -7.8806    3.7238 C   0  0  1  0  0  0  0  0  0  0  0  0
    3.8377   -8.3523    2.3827 C   0  0  0  0  0  0  0  0  0  0  0  0
    1.8495   -9.1146    4.7663 C   0  0  2  0  0  0  0  0  0  0  0  0
    1.0446  -10.2836    4.1056 N   0  0  1  0  0  0  0  0  0  0  0  0
    0.4737  -10.1320    2.7390 C   0  0  0  0  0  0  0  0  0  0  0  0
    1.8700  -11.4570    4.2567 C   0  0  0  0  0  0  0  0  0  0  0  0
    3.2088  -10.7991    4.2060 C   0  0  0  0  0  0  0  0  0  0  0  0
    3.1052   -9.4122    4.9619 C   0  0  1  0  0  0  0  0  0  0  0  0
    3.6171   -9.3885    6.4692 C   0  0  2  0  0  0  0  0  0  0  0  0
    3.4137  -10.6467    7.1018 O   0  0  0  0  0  0  0  0  0  0  0  0
    5.2186   -9.0761    6.6017 C   0  0  1  0  0  0  0  0  0  0  0  0
    5.8880   -9.3907    5.2482 C   0  0  0  0  0  0  0  0  0  0  0  0
    6.0072   -8.2118    4.2958 N   0  0  2  0  0  0  0  0  0  0  0  0
    7.4443   -8.0726    4.0306 C   0  0  0  0  0  0  0  0  0  0  0  0
    7.8826   -7.4963    5.3570 C   0  0  0  0  0  0  0  0  0  0  0  0
    6.6025   -6.8007    6.0341 C   0  0  2  0  0  0  0  0  0  0  0  0
    7.4646   -5.5621    6.6124 C   0  0  0  0  0  0  0  0  0  0  0  0
    6.9262   -4.4268    7.5316 C   0  0  1  0  0  0  0  0  0  0  0  0
    7.7121   -3.2546    7.3179 O   0  0  0  0  0  0  0  0  0  0  0  0
    8.9324   -3.2224    8.0754 C   0  0  0  0  0  0  0  0  0  0  0  0
    5.9940   -7.7284    7.1533 C   0  0  1  0  0  0  0  0  0  0  0  0
    5.5827   -6.8352    4.7772 C   0  0  2  0  0  0  0  0  0  0  0  0
    8.1371   -6.9272   10.6335 H   0  0  0  0  0  0  0  0  0  0  0  0
    7.5411   -5.5105   10.0030 H   0  0  0  0  0  0  0  0  0  0  0  0
    8.1749   -6.8185    8.9098 H   0  0  0  0  0  0  0  0  0  0  0  0
    6.2979   -8.2811    9.7752 H   0  0  0  0  0  0  0  0  0  0  0  0
    5.5443   -6.8814   10.4957 H   0  0  0  0  0  0  0  0  0  0  0  0
    3.7339   -5.6241    8.2602 H   0  0  0  0  0  0  0  0  0  0  0  0
    4.8822   -5.1996    9.2409 H   0  0  0  0  0  0  0  0  0  0  0  0
    3.8773   -2.8271    8.0160 H   0  0  0  0  0  0  0  0  0  0  0  0
    5.1098   -3.0826    9.2332 H   0  0  0  0  0  0  0  0  0  0  0  0
    5.8966    0.1917    7.9459 H   0  0  0  0  0  0  0  0  0  0  0  0
    5.4796   -0.6716    9.4423 H   0  0  0  0  0  0  0  0  0  0  0  0
    4.2327   -0.3877    8.1803 H   0  0  0  0  0  0  0  0  0  0  0  0
    5.8212   -2.8568    5.7420 H   0  0  0  0  0  0  0  0  0  0  0  0
    6.1368   -4.3475    5.1422 H   0  0  0  0  0  0  0  0  0  0  0  0
    3.4547   -3.4103    5.5491 H   0  0  0  0  0  0  0  0  0  0  0  0
    4.3441   -2.8111    4.2675 H   0  0  0  0  0  0  0  0  0  0  0  0
    2.9961   -4.6586    3.4362 H   0  0  0  0  0  0  0  0  0  0  0  0
    5.2737   -3.9689    0.9180 H   0  0  0  0  0  0  0  0  0  0  0  0
    4.8833   -2.8433    2.1900 H   0  0  0  0  0  0  0  0  0  0  0  0
    3.5994   -3.7692    1.4001 H   0  0  0  0  0  0  0  0  0  0  0  0
    3.2779   -5.2740    6.4371 H   0  0  0  0  0  0  0  0  0  0  0  0
    1.2245   -5.3540    7.1444 H   0  0  0  0  0  0  0  0  0  0  0  0
    0.2069   -3.2650    4.4607 H   0  0  0  0  0  0  0  0  0  0  0  0
    1.7667   -3.6909    4.7841 H   0  0  0  0  0  0  0  0  0  0  0  0
    0.7831   -3.2639    6.1626 H   0  0  0  0  0  0  0  0  0  0  0  0
    0.1179   -7.2506    7.6766 H   0  0  0  0  0  0  0  0  0  0  0  0
   -0.4942   -7.3673    6.0782 H   0  0  0  0  0  0  0  0  0  0  0  0
    1.0011  -10.6025    7.1602 H   0  0  0  0  0  0  0  0  0  0  0  0
    2.6215   -8.1565    8.0934 H   0  0  0  0  0  0  0  0  0  0  0  0
    3.9226   -7.2329    6.3886 H   0  0  0  0  0  0  0  0  0  0  0  0
    1.1709   -7.3615    4.5241 H   0  0  0  0  0  0  0  0  0  0  0  0
    1.3979   -7.8351    2.5045 H   0  0  0  0  0  0  0  0  0  0  0  0
    1.9021   -6.2085    3.1011 H   0  0  0  0  0  0  0  0  0  0  0  0
    3.1713   -8.8101    1.6574 H   0  0  0  0  0  0  0  0  0  0  0  0
    4.6282   -9.0765    2.5118 H   0  0  0  0  0  0  0  0  0  0  0  0
    4.2828   -7.4956    1.8851 H   0  0  0  0  0  0  0  0  0  0  0  0
    1.2512  -10.0278    1.9916 H   0  0  0  0  0  0  0  0  0  0  0  0
   -0.2176   -9.3014    2.6807 H   0  0  0  0  0  0  0  0  0  0  0  0
   -0.0902  -11.0199    2.4699 H   0  0  0  0  0  0  0  0  0  0  0  0
    1.6752  -11.9040    5.2303 H   0  0  0  0  0  0  0  0  0  0  0  0
    1.7051  -12.2201    3.5023 H   0  0  0  0  0  0  0  0  0  0  0  0
    3.9131  -11.4895    4.6415 H   0  0  0  0  0  0  0  0  0  0  0  0
    3.4736  -10.7132    3.1605 H   0  0  0  0  0  0  0  0  0  0  0  0
    2.5450  -10.9673    7.0595 H   0  0  0  0  0  0  0  0  0  0  0  0
    5.5808   -9.8426    7.2758 H   0  0  0  0  0  0  0  0  0  0  0  0
    6.8625   -9.8206    5.4885 H   0  0  0  0  0  0  0  0  0  0  0  0
    5.5267  -10.2359    4.6927 H   0  0  0  0  0  0  0  0  0  0  0  0
    7.9468   -9.0061    3.7582 H   0  0  0  0  0  0  0  0  0  0  0  0
    7.6254   -7.3861    3.1995 H   0  0  0  0  0  0  0  0  0  0  0  0
    8.3273   -8.2591    5.9920 H   0  0  0  0  0  0  0  0  0  0  0  0
    8.7261   -6.8557    5.1186 H   0  0  0  0  0  0  0  0  0  0  0  0
    8.3175   -5.9633    7.1356 H   0  0  0  0  0  0  0  0  0  0  0  0
    7.9635   -5.0513    5.7647 H   0  0  0  0  0  0  0  0  0  0  0  0
    7.0048   -4.5942    8.5423 H   0  0  0  0  0  0  0  0  0  0  0  0
    9.4133   -2.2672    7.8815 H   0  0  0  0  0  0  0  0  0  0  0  0
    9.6209   -4.0053    7.7285 H   0  0  0  0  0  0  0  0  0  0  0  0
    8.8170   -3.3168    9.1580 H   0  0  0  0  0  0  0  0  0  0  0  0
    6.8788   -8.1854    7.5996 H   0  0  0  0  0  0  0  0  0  0  0  0
    6.0818   -6.1813    4.0824 H   0  0  0  0  0  0  0  0  0  0  0  0
    5.5335   -8.4299    3.4066 H   0  0  0  0  0  0  0  0  0  0  0  0
    0.2234  -10.4353    4.7042 H   0  0  0  0  0  0  0  0  0  0  0  0
    4.5735   -7.4837    8.5353 H   0  0  0  0  0  0  0  0  0  0  0  0
  1  2  1  0
  1 48  1  0
  1 49  1  0
  1 50  1  0
  2  3  1  0
  2 51  1  0
  2 52  1  0
  3 46  1  0
  3  4  1  0
  3109  1  1
  4  5  1  0
  4 53  1  0
  4 54  1  0
  5 43  1  0
  5  6  1  1
  5  9  1  0
  6  7  1  0
  6 55  1  0
  6 56  1  0
  7  8  1  0
  8 57  1  0
  8 58  1  0
  8 59  1  0
  9 10  1  0
  9 60  1  0
  9 61  1  0
 10 11  1  0
 10 62  1  0
 10 63  1  0
 11 12  1  0
 11 14  1  0
 11 64  1  6
 12 13  1  0
 13 65  1  0
 13 66  1  0
 13 67  1  0
 14 26  1  6
 14 47  1  0
 14 15  1  0
 15 23  1  0
 15 16  1  0
 15 68  1  1
 16 17  1  0
 16 19  1  0
 16 69  1  1
 17 18  1  0
 18 70  1  0
 18 71  1  0
 18 72  1  0
 19 20  1  0
 19 73  1  0
 19 74  1  0
 28 20  1  1
 20 21  1  1
 20 22  1  0
 21 75  1  0
 22 34  1  0
 22 23  1  0
 22 76  1  1
 23 24  1  0
 23 77  1  6
 24 33  1  0
 24 25  1  0
 24 78  1  1
 25 26  1  0
 25 79  1  0
 25 80  1  0
 26 27  1  6
 26 28  1  0
 27 81  1  0
 27 82  1  0
 27 83  1  0
 28 33  1  0
 28 29  1  0
 29 30  1  0
 29 31  1  0
 29108  1  1
 30 84  1  0
 30 85  1  0
 30 86  1  0
 31 32  1  0
 31 87  1  0
 31 88  1  0
 33 32  1  6
 32 89  1  0
 32 90  1  0
 33 34  1  0
 34 35  1  1
 34 36  1  0
 35 91  1  0
 36 46  1  0
 36 37  1  0
 36 92  1  1
 37 38  1  0
 37 93  1  0
 37 94  1  0
 38 47  1  0
 38 39  1  0
 38107  1  6
 39 40  1  0
 39 95  1  0
 39 96  1  0
 41 40  1  6
 40 97  1  0
 40 98  1  0
 41 42  1  0
 41 46  1  0
 41 47  1  0
 42 43  1  0
 42 99  1  0
 42100  1  0
 43 44  1  0
 43101  1  1
 44 45  1  0
 45102  1  0
 45103  1  0
 45104  1  0
 46105  1  1
 47106  1  6
M  CHG  3   3   1  29   1  38   1
M  END
>  <i_m_ct_stereo_status>  (243) 
1

>  <s_m_source_file>  (243) 
/var/tmp/pbs.5076255.sched01/tmptpdlle0r/921kky2sk3.sdf

>  <i_m_source_file_index>  (243) 
17

>  <i_lp_mmshare_version>  (243) 
48012

>  <i_f3d_flags>  (243) 
2

>  <s_epik_input>  (243) 
W0NIM11PW0NAQEhdMVtDSDJdW0NIMl1bQ0BAXShbQ0gyXU9bQ0gzXSkoW0NIMl1OMltDSDJdW0NIM10pW0NASF0oT1tDSDNdKVtDSDJdW0NAXTMoW0NASF00TihbQ0gyXTUpW0NIMl1bQ0gyXTMpW0NASF0yW0NASF01W0NAXTYoW09IXSlDKFtDQEBIXTdbQ0gyXVtDQEBdODlbQ0gzXSkoW0NIMl1bQ0gyXU4yW0NIM10pW0NAXTI5W0NAQF0oW09IXSkoW0NAQEhdNltDSF03W0NIXTJbQ0BAXTE0OClbQ0gyXVtDQEBIXTJPW0NIM10=

>  <s_epik_cmdline>  (243) 
J2VwaWtfcHl0aG9uJywgJy1waHQnLCAnMi4wJywgJy1waCcsICc3LjAnLCAnLXRuJywgJzgnLCAnLW1hJywgJzIwMCcsICctaW1hZScsICc8aW5maWxlLm1hZT4nLCAnLW9tYWUnLCAnPG91dGZpbGUubWFlPic=

>  <r_epik_Ionization_Penalty>  (243) 
0.597834

>  <r_epik_Ionization_Penalty_Charging>  (243) 
0.597832

>  <r_epik_Ionization_Penalty_Neutral>  (243) 
2.27911e-06

>  <r_epik_State_Penalty>  (243) 
0.564621

>  <r_epik_Charging_Adjusted_Penalty>  (243) 
1.16245

>  <i_epik_Tot_Q>  (243) 
3

>  <i_epik_Tot_abs_Q>  (243) 
3

>  <s_lp_Force_Field>  (243) 
OPLS3e

>  <r_lp_Energy>  (243) 
1063.05

>  <b_lp_Chiralities_Consistent>  (243) 
0

>  <s_lp_Variant>  (243) 
67:0-2

>  <s_i_glide_gridfile>  (243) 
pfpi4k_grid

>  <i_i_glide_lignum>  (243) 
17

>  <i_i_glide_rotatable_bonds>  (243) 
8

>  <r_i_docking_score>  (243) 
-2.19265

>  <r_i_glide_ligand_efficiency>  (243) 
-0.0466521

>  <r_i_glide_ligand_efficiency_sa>  (243) 
-0.168359

>  <r_i_glide_ligand_efficiency_ln>  (243) 
-0.452079

>  <r_i_glide_gscore>  (243) 
-2.19265

>  <r_i_glide_lipo>  (243) 
-0.183129

>  <r_i_glide_hbond>  (243) 
0

>  <r_i_glide_metal>  (243) 
-0

>  <r_i_glide_rewards>  (243) 
0

>  <r_i_glide_evdw>  (243) 
-17.3962

>  <r_i_glide_ecoul>  (243) 
-12.1291

>  <r_i_glide_erotb>  (243) 
0.049273

>  <r_i_glide_esite>  (243) 
-0.0169832

>  <r_i_glide_emodel>  (243) 
-29.4242

>  <r_i_glide_energy>  (243) 
-29.5253

>  <r_i_glide_einternal>  (243) 
4.65362

>  <r_i_glide_intrahb_reward>  (243) 
-0

>  <i_i_glide_confnum>  (243) 
3

>  <i_i_glide_posenum>  (243) 
3

>  <r_i_glide_eff_state_penalty>  (243) 
0

>  <ligand_id>  (243) 
67

>  <original_smiles>  (243) 
CCN1CC2(COC)CCC(OC)C34C5C(OC)CC6(O)C7C5C5CC3(C)C63N(C)CCC53C7(O)C3CN5CCC(CC2OC)(C31)C54

>  <smiles>  (243) 
[H]OC12C3([H])C4([H])C5([H])C([H])(OC([H])([H])[H])C([H])([H])C3(O[H])C36C1(C([H])([H])C([H])([H])[N+]3([H])C([H])([H])[H])C4([H])C([H])([H])C6(C([H])([H])[H])C51C([H])(OC([H])([H])[H])C([H])([H])C([H])([H])C3(C([H])([H])OC([H])([H])[H])C([H])(OC([H])([H])[H])C([H])([H])C45C([H])([H])C([H])([H])[N+]([H])(C([H])([H])C2([H])C4([H])[N+]([H])(C([H])([H])C([H])([H])[H])C3([H])[H])C15[H]

$$$$
67:2:0
     RDKit          3D

108118  0  0  1  0  0  0  0  0999 V2000
    0.8095   -0.8820    2.6147 C   0  0  0  0  0  0  0  0  0  0  0  0
    0.7540   -1.7999    3.8653 C   0  0  0  0  0  0  0  0  0  0  0  0
    1.4105   -3.1492    3.7926 N   0  0  1  0  0  0  0  0  0  0  0  0
    2.6225   -3.2935    2.8695 C   0  0  0  0  0  0  0  0  0  0  0  0
    4.1152   -2.8430    3.2511 C   0  0  2  0  0  0  0  0  0  0  0  0
    4.5934   -1.9301    2.0556 C   0  0  0  0  0  0  0  0  0  0  0  0
    3.8480   -0.7548    1.9596 O   0  0  0  0  0  0  0  0  0  0  0  0
    4.1031    0.0865    0.8655 C   0  0  0  0  0  0  0  0  0  0  0  0
    5.2639   -3.9579    3.3077 C   0  0  0  0  0  0  0  0  0  0  0  0
    5.7573   -4.6956    4.6212 C   0  0  0  0  0  0  0  0  0  0  0  0
    5.3458   -6.1619    5.0092 C   0  0  1  0  0  0  0  0  0  0  0  0
    5.7175   -6.4033    6.3642 O   0  0  0  0  0  0  0  0  0  0  0  0
    7.1110   -6.5017    6.6257 C   0  0  0  0  0  0  0  0  0  0  0  0
    3.8014   -6.4398    4.8435 C   0  0  1  0  0  0  0  0  0  0  0  0
    3.5685   -6.2569    3.0810 C   0  0  1  0  0  0  0  0  0  0  0  0
    3.1519   -7.0402    1.6387 C   0  0  1  0  0  0  0  0  0  0  0  0
    4.2495   -7.6072    0.8870 O   0  0  0  0  0  0  0  0  0  0  0  0
    4.7871   -8.8686    1.3146 C   0  0  0  0  0  0  0  0  0  0  0  0
    1.7715   -7.9578    1.3847 C   0  0  0  0  0  0  0  0  0  0  0  0
    0.7761   -8.1442    2.6546 C   0  0  2  0  0  0  0  0  0  0  0  0
   -0.4832   -8.6471    2.2812 O   0  0  0  0  0  0  0  0  0  0  0  0
    0.8255   -6.6764    3.0665 C   0  0  2  0  0  0  0  0  0  0  0  0
    2.3036   -6.6573    3.4436 C   0  0  1  0  0  0  0  0  0  0  0  0
    2.5792   -8.1584    4.0516 C   0  0  1  0  0  0  0  0  0  0  0  0
    3.8376   -8.8842    4.4904 C   0  0  0  0  0  0  0  0  0  0  0  0
    3.0128   -8.1043    5.2228 C   0  0  1  0  0  0  0  0  0  0  0  0
    3.4156   -8.6138    6.6781 C   0  0  0  0  0  0  0  0  0  0  0  0
    1.4270   -8.8225    4.2215 C   0  0  2  0  0  0  0  0  0  0  0  0
    0.8240  -10.1478    4.5407 N   0  0  1  0  0  0  0  0  0  0  0  0
    1.4730  -11.3642    3.9880 C   0  0  0  0  0  0  0  0  0  0  0  0
    0.6326  -10.1782    5.9773 C   0  0  0  0  0  0  0  0  0  0  0  0
    0.4704   -8.6950    6.2504 C   0  0  0  0  0  0  0  0  0  0  0  0
    1.1306   -7.8635    5.0375 C   0  0  1  0  0  0  0  0  0  0  0  0
    0.2770   -6.6110    4.5035 C   0  0  2  0  0  0  0  0  0  0  0  0
   -1.1119   -6.8986    4.4682 O   0  0  0  0  0  0  0  0  0  0  0  0
    0.4174   -5.2034    5.3295 C   0  0  1  0  0  0  0  0  0  0  0  0
    0.7718   -5.6310    6.7416 C   0  0  0  0  0  0  0  0  0  0  0  0
    2.2390   -5.8640    6.8890 N   0  0  0  0  0  0  0  0  0  0  0  0
    2.5764   -5.1278    8.0847 C   0  0  0  0  0  0  0  0  0  0  0  0
    2.4930   -3.7144    7.5353 C   0  0  0  0  0  0  0  0  0  0  0  0
    2.7085   -3.8402    5.9821 C   0  0  2  0  0  0  0  0  0  0  0  0
    3.6359   -2.5781    5.8279 C   0  0  0  0  0  0  0  0  0  0  0  0
    4.0932   -1.9491    4.4999 C   0  0  1  0  0  0  0  0  0  0  0  0
    5.3947   -1.3935    4.6860 O   0  0  0  0  0  0  0  0  0  0  0  0
    5.4374   -0.1842    5.4293 C   0  0  0  0  0  0  0  0  0  0  0  0
    1.3488   -3.8495    5.1385 C   0  0  1  0  0  0  0  0  0  0  0  0
    3.2540   -5.3161    5.9283 C   0  0  1  0  0  0  0  0  0  0  0  0
    0.0637   -0.0728    2.7028 H   0  0  0  0  0  0  0  0  0  0  0  0
    0.6117   -1.4245    1.6736 H   0  0  0  0  0  0  0  0  0  0  0  0
    1.7484   -0.3897    2.5509 H   0  0  0  0  0  0  0  0  0  0  0  0
    1.1754   -1.2165    4.6833 H   0  0  0  0  0  0  0  0  0  0  0  0
   -0.2976   -1.9645    4.1147 H   0  0  0  0  0  0  0  0  0  0  0  0
    2.6091   -4.2577    2.3774 H   0  0  0  0  0  0  0  0  0  0  0  0
    2.3641   -2.7244    1.9842 H   0  0  0  0  0  0  0  0  0  0  0  0
    5.6465   -1.6262    2.1440 H   0  0  0  0  0  0  0  0  0  0  0  0
    4.5510   -2.4986    1.1167 H   0  0  0  0  0  0  0  0  0  0  0  0
    3.3856    0.8960    0.8989 H   0  0  0  0  0  0  0  0  0  0  0  0
    3.9643   -0.4199   -0.0869 H   0  0  0  0  0  0  0  0  0  0  0  0
    5.0995    0.5359    0.8757 H   0  0  0  0  0  0  0  0  0  0  0  0
    5.2330   -4.6188    2.4451 H   0  0  0  0  0  0  0  0  0  0  0  0
    6.1756   -3.4124    3.0639 H   0  0  0  0  0  0  0  0  0  0  0  0
    6.8282   -4.8284    4.4890 H   0  0  0  0  0  0  0  0  0  0  0  0
    5.7253   -4.0443    5.4821 H   0  0  0  0  0  0  0  0  0  0  0  0
    5.9537   -6.8117    4.3838 H   0  0  0  0  0  0  0  0  0  0  0  0
    7.2558   -6.8070    7.6603 H   0  0  0  0  0  0  0  0  0  0  0  0
    7.6276   -5.5503    6.5035 H   0  0  0  0  0  0  0  0  0  0  0  0
    7.5979   -7.2467    5.9974 H   0  0  0  0  0  0  0  0  0  0  0  0
    4.4643   -6.8291    2.9470 H   0  0  0  0  0  0  0  0  0  0  0  0
    2.9448   -6.1630    1.0241 H   0  0  0  0  0  0  0  0  0  0  0  0
    5.5631   -9.2135    0.6256 H   0  0  0  0  0  0  0  0  0  0  0  0
    4.0151   -9.6554    1.2914 H   0  0  0  0  0  0  0  0  0  0  0  0
    5.1923   -8.7909    2.2876 H   0  0  0  0  0  0  0  0  0  0  0  0
    1.2004   -7.4724    0.5772 H   0  0  0  0  0  0  0  0  0  0  0  0
    2.0108   -8.9434    0.9779 H   0  0  0  0  0  0  0  0  0  0  0  0
   -0.3460   -9.2152    1.5241 H   0  0  0  0  0  0  0  0  0  0  0  0
    0.4819   -5.9171    2.3487 H   0  0  0  0  0  0  0  0  0  0  0  0
    2.0964   -5.7214    3.8554 H   0  0  0  0  0  0  0  0  0  0  0  0
    3.0063   -8.7486    3.1125 H   0  0  0  0  0  0  0  0  0  0  0  0
    3.7412   -9.9659    4.6444 H   0  0  0  0  0  0  0  0  0  0  0  0
    4.8473   -8.5276    4.4381 H   0  0  0  0  0  0  0  0  0  0  0  0
    3.3000   -9.6869    6.8006 H   0  0  0  0  0  0  0  0  0  0  0  0
    2.9094   -8.1341    7.5063 H   0  0  0  0  0  0  0  0  0  0  0  0
    4.4743   -8.4323    6.8422 H   0  0  0  0  0  0  0  0  0  0  0  0
    2.4089  -11.6204    4.4968 H   0  0  0  0  0  0  0  0  0  0  0  0
    1.6648  -11.2690    2.9080 H   0  0  0  0  0  0  0  0  0  0  0  0
    0.8000  -12.2123    4.1295 H   0  0  0  0  0  0  0  0  0  0  0  0
   -0.2395  -10.7632    6.2658 H   0  0  0  0  0  0  0  0  0  0  0  0
    1.5029  -10.6070    6.4679 H   0  0  0  0  0  0  0  0  0  0  0  0
   -0.5950   -8.4952    6.2993 H   0  0  0  0  0  0  0  0  0  0  0  0
    0.8659   -8.4737    7.2431 H   0  0  0  0  0  0  0  0  0  0  0  0
   -1.2236   -7.7635    4.0902 H   0  0  0  0  0  0  0  0  0  0  0  0
   -0.5952   -4.8133    5.3598 H   0  0  0  0  0  0  0  0  0  0  0  0
    0.3659   -4.8733    7.4156 H   0  0  0  0  0  0  0  0  0  0  0  0
    0.1908   -6.4866    7.0645 H   0  0  0  0  0  0  0  0  0  0  0  0
    1.9209   -5.3129    8.9374 H   0  0  0  0  0  0  0  0  0  0  0  0
    3.5974   -5.3694    8.3815 H   0  0  0  0  0  0  0  0  0  0  0  0
    1.5477   -3.2259    7.7785 H   0  0  0  0  0  0  0  0  0  0  0  0
    3.2412   -3.1384    8.0840 H   0  0  0  0  0  0  0  0  0  0  0  0
    3.1140   -1.7528    6.3168 H   0  0  0  0  0  0  0  0  0  0  0  0
    4.5231   -2.7110    6.4508 H   0  0  0  0  0  0  0  0  0  0  0  0
    3.4084   -1.1243    4.2997 H   0  0  0  0  0  0  0  0  0  0  0  0
    6.4675    0.1611    5.4916 H   0  0  0  0  0  0  0  0  0  0  0  0
    5.0745   -0.3232    6.4468 H   0  0  0  0  0  0  0  0  0  0  0  0
    4.8511    0.5986    4.9487 H   0  0  0  0  0  0  0  0  0  0  0  0
    0.7541   -3.1624    5.7415 H   0  0  0  0  0  0  0  0  0  0  0  0
    3.2321   -4.8330    4.9764 H   0  0  0  0  0  0  0  0  0  0  0  0
   -0.1183  -10.1256    4.1417 H   0  0  0  0  0  0  0  0  0  0  0  0
    0.7077   -3.6553    3.2731 H   0  0  0  0  0  0  0  0  0  0  0  0
  1  2  1  0
  1 48  1  0
  1 49  1  0
  1 50  1  0
  2  3  1  0
  2 51  1  0
  2 52  1  0
  3 46  1  0
  3  4  1  0
  3108  1  6
  4  5  1  0
  4 53  1  0
  4 54  1  0
  5 43  1  0
  5  6  1  6
  5  9  1  0
  6  7  1  0
  6 55  1  0
  6 56  1  0
  7  8  1  0
  8 57  1  0
  8 58  1  0
  8 59  1  0
  9 10  1  0
  9 60  1  0
  9 61  1  0
 10 11  1  0
 10 62  1  0
 10 63  1  0
 11 12  1  0
 11 14  1  0
 11 64  1  6
 12 13  1  0
 13 65  1  0
 13 66  1  0
 13 67  1  0
 14 26  1  1
 14 47  1  0
 14 15  1  0
 15 23  1  0
 15 16  1  0
 15 68  1  6
 16 17  1  0
 16 19  1  0
 16 69  1  6
 17 18  1  0
 18 70  1  0
 18 71  1  0
 18 72  1  0
 19 20  1  0
 19 73  1  0
 19 74  1  0
 28 20  1  6
 20 21  1  6
 20 22  1  0
 21 75  1  0
 22 34  1  0
 22 23  1  0
 22 76  1  6
 23 24  1  0
 23 77  1  1
 24 33  1  0
 24 25  1  0
 24 78  1  6
 25 26  1  0
 25 79  1  0
 25 80  1  0
 26 27  1  1
 26 28  1  0
 27 81  1  0
 27 82  1  0
 27 83  1  0
 28 33  1  0
 28 29  1  0
 29 30  1  0
 29 31  1  0
 29107  1  6
 30 84  1  0
 30 85  1  0
 30 86  1  0
 31 32  1  0
 31 87  1  0
 31 88  1  0
 33 32  1  1
 32 89  1  0
 32 90  1  0
 33 34  1  0
 34 35  1  6
 34 36  1  0
 35 91  1  0
 36 46  1  0
 36 37  1  0
 36 92  1  1
 37 38  1  0
 37 93  1  0
 37 94  1  0
 38 47  1  0
 38 39  1  0
 39 40  1  0
 39 95  1  0
 39 96  1  0
 41 40  1  1
 40 97  1  0
 40 98  1  0
 41 42  1  0
 41 46  1  0
 41 47  1  0
 42 43  1  0
 42 99  1  0
 42100  1  0
 43 44  1  0
 43101  1  6
 44 45  1  0
 45102  1  0
 45103  1  0
 45104  1  0
 46105  1  1
 47106  1  1
M  CHG  2   3   1  29   1
M  END
>  <i_m_ct_stereo_status>  (244) 
1

>  <s_m_source_file>  (244) 
/var/tmp/pbs.5076255.sched01/tmptpdlle0r/921kky2sk3.sdf

>  <i_m_source_file_index>  (244) 
18

>  <i_lp_mmshare_version>  (244) 
48012

>  <i_f3d_flags>  (244) 
2

>  <s_epik_input>  (244) 
W0NIM11PW0NAQEhdMVtDSDJdW0NIMl1bQ0BAXShbQ0gyXU9bQ0gzXSkoW0NIMl1OMltDSDJdW0NIM10pW0NASF0oT1tDSDNdKVtDSDJdW0NAXTMoW0NASF00TihbQ0gyXTUpW0NIMl1bQ0gyXTMpW0NASF0yW0NASF01W0NAXTYoW09IXSlDKFtDQEBIXTdbQ0gyXVtDQEBdODlbQ0gzXSkoW0NIMl1bQ0gyXU4yW0NIM10pW0NAXTI5W0NAQF0oW09IXSkoW0NAQEhdNltDSF03W0NIXTJbQ0BAXTE0OClbQ0gyXVtDQEBIXTJPW0NIM10=

>  <s_epik_cmdline>  (244) 
J2VwaWtfcHl0aG9uJywgJy1waHQnLCAnMi4wJywgJy1waCcsICc3LjAnLCAnLXRuJywgJzgnLCAnLW1hJywgJzIwMCcsICctaW1hZScsICc8aW5maWxlLm1hZT4nLCAnLW9tYWUnLCAnPG91dGZpbGUubWFlPic=

>  <r_epik_Ionization_Penalty>  (244) 
1.56908

>  <r_epik_Ionization_Penalty_Charging>  (244) 
0.00978906

>  <r_epik_Ionization_Penalty_Neutral>  (244) 
1.55929

>  <r_epik_State_Penalty>  (244) 
2.18131

>  <r_epik_Charging_Adjusted_Penalty>  (244) 
2.19109

>  <i_epik_Tot_Q>  (244) 
2

>  <i_epik_Tot_abs_Q>  (244) 
2

>  <s_lp_Force_Field>  (244) 
OPLS3e

>  <r_lp_Energy>  (244) 
1103.23

>  <b_lp_Chiralities_Consistent>  (244) 
0

>  <s_lp_Variant>  (244) 
67:0-3

>  <s_i_glide_gridfile>  (244) 
pfpi4k_grid

>  <i_i_glide_lignum>  (244) 
18

>  <i_i_glide_rotatable_bonds>  (244) 
8

>  <r_i_docking_score>  (244) 
-3.27538

>  <r_i_glide_ligand_efficiency>  (244) 
-0.069689

>  <r_i_glide_ligand_efficiency_sa>  (244) 
-0.251495

>  <r_i_glide_ligand_efficiency_ln>  (244) 
-0.675316

>  <r_i_glide_gscore>  (244) 
-3.27538

>  <r_i_glide_lipo>  (244) 
-0.346375

>  <r_i_glide_hbond>  (244) 
0

>  <r_i_glide_metal>  (244) 
-0

>  <r_i_glide_rewards>  (244) 
0

>  <r_i_glide_evdw>  (244) 
-25.5038

>  <r_i_glide_ecoul>  (244) 
-11.0073

>  <r_i_glide_erotb>  (244) 
0.0494146

>  <r_i_glide_esite>  (244) 
-0.052132

>  <r_i_glide_emodel>  (244) 
-41.0749

>  <r_i_glide_energy>  (244) 
-36.5111

>  <r_i_glide_einternal>  (244) 
4.16732

>  <r_i_glide_intrahb_reward>  (244) 
-0

>  <i_i_glide_confnum>  (244) 
1

>  <i_i_glide_posenum>  (244) 
10

>  <r_i_glide_eff_state_penalty>  (244) 
0

>  <ligand_id>  (244) 
67

>  <original_smiles>  (244) 
CCN1CC2(COC)CCC(OC)C34C5C(OC)CC6(O)C7C5C5CC3(C)C63N(C)CCC53C7(O)C3CN5CCC(CC2OC)(C31)C54

>  <smiles>  (244) 
[H]OC12C3([H])C4([H])C5([H])C([H])(OC([H])([H])[H])C([H])([H])C3(O[H])C36C1(C([H])([H])C([H])([H])[N+]3([H])C([H])([H])[H])C4([H])C([H])([H])C6(C([H])([H])[H])C51C([H])(OC([H])([H])[H])C([H])([H])C([H])([H])C3(C([H])([H])OC([H])([H])[H])C([H])(OC([H])([H])[H])C([H])([H])C45C([H])([H])C([H])([H])N(C([H])([H])C2([H])C4([H])[N+]([H])(C([H])([H])C([H])([H])[H])C3([H])[H])C15[H]

$$$$
67:2:1
     RDKit          3D

108118  0  0  1  0  0  0  0  0999 V2000
    0.7944   -1.6472    3.2755 C   0  0  0  0  0  0  0  0  0  0  0  0
    1.0577   -2.5098    4.5164 C   0  0  0  0  0  0  0  0  0  0  0  0
    1.5737   -3.9210    4.2596 N   0  0  1  0  0  0  0  0  0  0  0  0
    2.7414   -4.0403    3.2507 C   0  0  0  0  0  0  0  0  0  0  0  0
    4.2547   -3.7242    3.6181 C   0  0  2  0  0  0  0  0  0  0  0  0
    4.7210   -2.7012    2.5103 C   0  0  0  0  0  0  0  0  0  0  0  0
    3.9540   -1.5070    2.5451 O   0  0  0  0  0  0  0  0  0  0  0  0
    4.2374   -0.5841    1.5044 C   0  0  0  0  0  0  0  0  0  0  0  0
    5.3217   -4.9085    3.4794 C   0  0  0  0  0  0  0  0  0  0  0  0
    5.8597   -5.8196    4.6577 C   0  0  0  0  0  0  0  0  0  0  0  0
    5.3586   -7.2844    4.9125 C   0  0  1  0  0  0  0  0  0  0  0  0
    5.7647   -7.7094    6.2102 O   0  0  0  0  0  0  0  0  0  0  0  0
    7.1600   -7.9334    6.3885 C   0  0  0  0  0  0  0  0  0  0  0  0
    3.8059   -7.4374    4.8194 C   0  0  1  0  0  0  0  0  0  0  0  0
    3.4777   -7.0170    3.1097 C   0  0  1  0  0  0  0  0  0  0  0  0
    2.9718   -7.5884    1.6069 C   0  0  1  0  0  0  0  0  0  0  0  0
    4.0111   -8.1531    0.7909 O   0  0  0  0  0  0  0  0  0  0  0  0
    4.4459   -9.4692    1.1042 C   0  0  0  0  0  0  0  0  0  0  0  0
    1.5219   -8.3903    1.3155 C   0  0  0  0  0  0  0  0  0  0  0  0
    0.5475   -8.6586    2.5983 C   0  0  2  0  0  0  0  0  0  0  0  0
   -0.7554   -9.0603    2.2596 O   0  0  0  0  0  0  0  0  0  0  0  0
    0.7202   -7.2605    3.1775 C   0  0  2  0  0  0  0  0  0  0  0  0
    2.2084   -7.3895    3.4805 C   0  0  1  0  0  0  0  0  0  0  0  0
    2.4105   -8.9782    3.9028 C   0  0  1  0  0  0  0  0  0  0  0  0
    3.6300   -9.8320    4.1807 C   0  0  0  0  0  0  0  0  0  0  0  0
    2.9079   -9.0797    5.0441 C   0  0  1  0  0  0  0  0  0  0  0  0
    3.3300   -9.7853    6.4062 C   0  0  0  0  0  0  0  0  0  0  0  0
    1.2065   -9.5375    4.0442 C   0  0  2  0  0  0  0  0  0  0  0  0
    0.4909  -10.8474    4.2393 N   0  0  1  0  0  0  0  0  0  0  0  0
    1.0418  -12.0461    3.5587 C   0  0  0  0  0  0  0  0  0  0  0  0
    0.4133  -10.9993    5.6883 C   0  0  0  0  0  0  0  0  0  0  0  0
    0.3369   -9.5793    6.1164 C   0  0  0  0  0  0  0  0  0  0  0  0
    1.0179   -8.6848    4.9816 C   0  0  1  0  0  0  0  0  0  0  0  0
    0.2416   -7.3310    4.6301 C   0  0  2  0  0  0  0  0  0  0  0  0
   -1.1750   -7.5084    4.6289 O   0  0  0  0  0  0  0  0  0  0  0  0
    0.5160   -6.0555    5.6116 C   0  0  1  0  0  0  0  0  0  0  0  0
    0.9076   -6.6589    6.9390 C   0  0  0  0  0  0  0  0  0  0  0  0
    2.3588   -7.0082    6.9852 N   0  0  0  0  0  0  0  0  0  0  0  0
    2.8034   -6.4405    8.2343 C   0  0  0  0  0  0  0  0  0  0  0  0
    2.7951   -4.9735    7.8522 C   0  0  0  0  0  0  0  0  0  0  0  0
    2.9267   -4.9321    6.2823 C   0  0  2  0  0  0  0  0  0  0  0  0
    3.9304   -3.7267    6.2236 C   0  0  0  0  0  0  0  0  0  0  0  0
    4.3672   -2.9869    4.9653 C   0  0  1  0  0  0  0  0  0  0  0  0
    5.7184   -2.5720    5.1731 O   0  0  0  0  0  0  0  0  0  0  0  0
    5.8855   -1.4874    6.0803 C   0  0  0  0  0  0  0  0  0  0  0  0
    1.5180   -4.7689    5.5376 C   0  0  1  0  0  0  0  0  0  0  0  0
    3.3630   -6.4232    6.0373 C   0  0  1  0  0  0  0  0  0  0  0  0
    0.2367   -0.7567    3.5693 H   0  0  0  0  0  0  0  0  0  0  0  0
    0.2154   -2.1865    2.5213 H   0  0  0  0  0  0  0  0  0  0  0  0
    1.6988   -1.2742    2.7902 H   0  0  0  0  0  0  0  0  0  0  0  0
    1.7003   -1.9864    5.2129 H   0  0  0  0  0  0  0  0  0  0  0  0
    0.0967   -2.6061    5.0055 H   0  0  0  0  0  0  0  0  0  0  0  0
    2.6219   -4.9168    2.6589 H   0  0  0  0  0  0  0  0  0  0  0  0
    2.4423   -3.3522    2.4765 H   0  0  0  0  0  0  0  0  0  0  0  0
    5.7649   -2.3989    2.6305 H   0  0  0  0  0  0  0  0  0  0  0  0
    4.6526   -3.1721    1.5247 H   0  0  0  0  0  0  0  0  0  0  0  0
    3.5614    0.2637    1.6064 H   0  0  0  0  0  0  0  0  0  0  0  0
    4.0694   -1.0129    0.5143 H   0  0  0  0  0  0  0  0  0  0  0  0
    5.2594   -0.2049    1.5649 H   0  0  0  0  0  0  0  0  0  0  0  0
    5.2199   -5.4616    2.5438 H   0  0  0  0  0  0  0  0  0  0  0  0
    6.2329   -4.3762    3.2312 H   0  0  0  0  0  0  0  0  0  0  0  0
    6.9203   -5.9466    4.4480 H   0  0  0  0  0  0  0  0  0  0  0  0
    5.9076   -5.2725    5.5895 H   0  0  0  0  0  0  0  0  0  0  0  0
    5.8849   -7.9106    4.1923 H   0  0  0  0  0  0  0  0  0  0  0  0
    7.3286   -8.3644    7.3716 H   0  0  0  0  0  0  0  0  0  0  0  0
    7.7356   -7.0120    6.3464 H   0  0  0  0  0  0  0  0  0  0  0  0
    7.5635   -8.6317    5.6579 H   0  0  0  0  0  0  0  0  0  0  0  0
    4.3269   -7.6330    2.8640 H   0  0  0  0  0  0  0  0  0  0  0  0
    2.7791   -6.6476    1.0958 H   0  0  0  0  0  0  0  0  0  0  0  0
    5.1679   -9.8126    0.3637 H   0  0  0  0  0  0  0  0  0  0  0  0
    3.6465  -10.1887    1.0219 H   0  0  0  0  0  0  0  0  0  0  0  0
    4.8953   -9.5362    2.0868 H   0  0  0  0  0  0  0  0  0  0  0  0
    0.9533   -7.8323    0.5548 H   0  0  0  0  0  0  0  0  0  0  0  0
    1.7644   -9.3606    0.8932 H   0  0  0  0  0  0  0  0  0  0  0  0
   -0.6763   -9.6098    1.4830 H   0  0  0  0  0  0  0  0  0  0  0  0
    0.3921   -6.4170    2.5653 H   0  0  0  0  0  0  0  0  0  0  0  0
    2.0851   -6.5099    4.0108 H   0  0  0  0  0  0  0  0  0  0  0  0
    2.7627   -9.4712    2.8616 H   0  0  0  0  0  0  0  0  0  0  0  0
    3.4599  -10.9069    4.2109 H   0  0  0  0  0  0  0  0  0  0  0  0
    4.6333   -9.5224    3.9362 H   0  0  0  0  0  0  0  0  0  0  0  0
    3.1722  -10.8510    6.4237 H   0  0  0  0  0  0  0  0  0  0  0  0
    2.8922   -9.3726    7.3011 H   0  0  0  0  0  0  0  0  0  0  0  0
    4.4015   -9.6954    6.5265 H   0  0  0  0  0  0  0  0  0  0  0  0
    1.9770  -12.4002    3.9729 H   0  0  0  0  0  0  0  0  0  0  0  0
    1.2003  -11.8689    2.5378 H   0  0  0  0  0  0  0  0  0  0  0  0
    0.2941  -12.8176    3.6377 H   0  0  0  0  0  0  0  0  0  0  0  0
   -0.3332  -11.6800    6.1067 H   0  0  0  0  0  0  0  0  0  0  0  0
    1.4013  -11.3626    5.8678 H   0  0  0  0  0  0  0  0  0  0  0  0
   -0.7185   -9.3071    6.2765 H   0  0  0  0  0  0  0  0  0  0  0  0
    0.8175   -9.5499    7.0939 H   0  0  0  0  0  0  0  0  0  0  0  0
   -1.3508   -8.4134    4.3879 H   0  0  0  0  0  0  0  0  0  0  0  0
   -0.4605   -5.6115    5.7334 H   0  0  0  0  0  0  0  0  0  0  0  0
    0.5879   -5.9665    7.7216 H   0  0  0  0  0  0  0  0  0  0  0  0
    0.2859   -7.4998    7.2032 H   0  0  0  0  0  0  0  0  0  0  0  0
    2.1760   -6.6785    9.0991 H   0  0  0  0  0  0  0  0  0  0  0  0
    3.8122   -6.7775    8.4445 H   0  0  0  0  0  0  0  0  0  0  0  0
    1.9019   -4.4542    8.1992 H   0  0  0  0  0  0  0  0  0  0  0  0
    3.6052   -4.5118    8.4154 H   0  0  0  0  0  0  0  0  0  0  0  0
    3.4888   -2.9280    6.8283 H   0  0  0  0  0  0  0  0  0  0  0  0
    4.8270   -4.0005    6.7760 H   0  0  0  0  0  0  0  0  0  0  0  0
    3.7786   -2.0740    4.8791 H   0  0  0  0  0  0  0  0  0  0  0  0
    6.9331   -1.2013    6.1159 H   0  0  0  0  0  0  0  0  0  0  0  0
    5.5972   -1.7624    7.0927 H   0  0  0  0  0  0  0  0  0  0  0  0
    5.3236   -0.6037    5.7764 H   0  0  0  0  0  0  0  0  0  0  0  0
    1.0351   -4.1006    6.2364 H   0  0  0  0  0  0  0  0  0  0  0  0
    3.3380   -5.8273    5.1519 H   0  0  0  0  0  0  0  0  0  0  0  0
   -0.4586  -10.7063    3.8848 H   0  0  0  0  0  0  0  0  0  0  0  0
    0.7985   -4.3092    3.7335 H   0  0  0  0  0  0  0  0  0  0  0  0
  1  2  1  0
  1 48  1  0
  1 49  1  0
  1 50  1  0
  2  3  1  0
  2 51  1  0
  2 52  1  0
  3 46  1  0
  3  4  1  0
  3108  1  6
  4  5  1  0
  4 53  1  0
  4 54  1  0
  5 43  1  0
  5  6  1  6
  5  9  1  0
  6  7  1  0
  6 55  1  0
  6 56  1  0
  7  8  1  0
  8 57  1  0
  8 58  1  0
  8 59  1  0
  9 10  1  0
  9 60  1  0
  9 61  1  0
 10 11  1  0
 10 62  1  0
 10 63  1  0
 11 12  1  0
 11 14  1  0
 11 64  1  6
 12 13  1  0
 13 65  1  0
 13 66  1  0
 13 67  1  0
 14 26  1  1
 14 47  1  0
 14 15  1  0
 15 23  1  0
 15 16  1  0
 15 68  1  6
 16 17  1  0
 16 19  1  0
 16 69  1  6
 17 18  1  0
 18 70  1  0
 18 71  1  0
 18 72  1  0
 19 20  1  0
 19 73  1  0
 19 74  1  0
 28 20  1  6
 20 21  1  6
 20 22  1  0
 21 75  1  0
 22 34  1  0
 22 23  1  0
 22 76  1  6
 23 24  1  0
 23 77  1  1
 24 33  1  0
 24 25  1  0
 24 78  1  6
 25 26  1  0
 25 79  1  0
 25 80  1  0
 26 27  1  1
 26 28  1  0
 27 81  1  0
 27 82  1  0
 27 83  1  0
 28 33  1  0
 28 29  1  0
 29 30  1  0
 29 31  1  0
 29107  1  6
 30 84  1  0
 30 85  1  0
 30 86  1  0
 31 32  1  0
 31 87  1  0
 31 88  1  0
 33 32  1  1
 32 89  1  0
 32 90  1  0
 33 34  1  0
 34 35  1  6
 34 36  1  0
 35 91  1  0
 36 46  1  0
 36 37  1  0
 36 92  1  1
 37 38  1  0
 37 93  1  0
 37 94  1  0
 38 47  1  0
 38 39  1  0
 39 40  1  0
 39 95  1  0
 39 96  1  0
 41 40  1  1
 40 97  1  0
 40 98  1  0
 41 42  1  0
 41 46  1  0
 41 47  1  0
 42 43  1  0
 42 99  1  0
 42100  1  0
 43 44  1  0
 43101  1  6
 44 45  1  0
 45102  1  0
 45103  1  0
 45104  1  0
 46105  1  1
 47106  1  1
M  CHG  2   3   1  29   1
M  END
>  <i_m_ct_stereo_status>  (245) 
1

>  <s_m_source_file>  (245) 
/var/tmp/pbs.5076255.sched01/tmptpdlle0r/921kky2sk3.sdf

>  <i_m_source_file_index>  (245) 
18

>  <i_lp_mmshare_version>  (245) 
48012

>  <i_f3d_flags>  (245) 
2

>  <s_epik_input>  (245) 
W0NIM11PW0NAQEhdMVtDSDJdW0NIMl1bQ0BAXShbQ0gyXU9bQ0gzXSkoW0NIMl1OMltDSDJdW0NIM10pW0NASF0oT1tDSDNdKVtDSDJdW0NAXTMoW0NASF00TihbQ0gyXTUpW0NIMl1bQ0gyXTMpW0NASF0yW0NASF01W0NAXTYoW09IXSlDKFtDQEBIXTdbQ0gyXVtDQEBdODlbQ0gzXSkoW0NIMl1bQ0gyXU4yW0NIM10pW0NAXTI5W0NAQF0oW09IXSkoW0NAQEhdNltDSF03W0NIXTJbQ0BAXTE0OClbQ0gyXVtDQEBIXTJPW0NIM10=

>  <s_epik_cmdline>  (245) 
J2VwaWtfcHl0aG9uJywgJy1waHQnLCAnMi4wJywgJy1waCcsICc3LjAnLCAnLXRuJywgJzgnLCAnLW1hJywgJzIwMCcsICctaW1hZScsICc8aW5maWxlLm1hZT4nLCAnLW9tYWUnLCAnPG91dGZpbGUubWFlPic=

>  <r_epik_Ionization_Penalty>  (245) 
1.56908

>  <r_epik_Ionization_Penalty_Charging>  (245) 
0.00978906

>  <r_epik_Ionization_Penalty_Neutral>  (245) 
1.55929

>  <r_epik_State_Penalty>  (245) 
2.18131

>  <r_epik_Charging_Adjusted_Penalty>  (245) 
2.19109

>  <i_epik_Tot_Q>  (245) 
2

>  <i_epik_Tot_abs_Q>  (245) 
2

>  <s_lp_Force_Field>  (245) 
OPLS3e

>  <r_lp_Energy>  (245) 
1103.23

>  <b_lp_Chiralities_Consistent>  (245) 
0

>  <s_lp_Variant>  (245) 
67:0-3

>  <s_i_glide_gridfile>  (245) 
pfpi4k_grid

>  <i_i_glide_lignum>  (245) 
18

>  <i_i_glide_rotatable_bonds>  (245) 
8

>  <r_i_docking_score>  (245) 
-2.72391

>  <r_i_glide_ligand_efficiency>  (245) 
-0.0579555

>  <r_i_glide_ligand_efficiency_sa>  (245) 
-0.209151

>  <r_i_glide_ligand_efficiency_ln>  (245) 
-0.561614

>  <r_i_glide_gscore>  (245) 
-2.72391

>  <r_i_glide_lipo>  (245) 
-0.187647

>  <r_i_glide_hbond>  (245) 
-0.061766

>  <r_i_glide_metal>  (245) 
-0

>  <r_i_glide_rewards>  (245) 
0

>  <r_i_glide_evdw>  (245) 
-14.7319

>  <r_i_glide_ecoul>  (245) 
-11.6079

>  <r_i_glide_erotb>  (245) 
0.0494146

>  <r_i_glide_esite>  (245) 
-0.0461366

>  <r_i_glide_emodel>  (245) 
-28.4422

>  <r_i_glide_energy>  (245) 
-26.3397

>  <r_i_glide_einternal>  (245) 
3.08382

>  <r_i_glide_intrahb_reward>  (245) 
-0

>  <i_i_glide_confnum>  (245) 
1

>  <i_i_glide_posenum>  (245) 
15

>  <r_i_glide_eff_state_penalty>  (245) 
0

>  <ligand_id>  (245) 
67

>  <original_smiles>  (245) 
CCN1CC2(COC)CCC(OC)C34C5C(OC)CC6(O)C7C5C5CC3(C)C63N(C)CCC53C7(O)C3CN5CCC(CC2OC)(C31)C54

>  <smiles>  (245) 
[H]OC12C3([H])C4([H])C5([H])C([H])(OC([H])([H])[H])C([H])([H])C3(O[H])C36C1(C([H])([H])C([H])([H])[N+]3([H])C([H])([H])[H])C4([H])C([H])([H])C6(C([H])([H])[H])C51C([H])(OC([H])([H])[H])C([H])([H])C([H])([H])C3(C([H])([H])OC([H])([H])[H])C([H])(OC([H])([H])[H])C([H])([H])C45C([H])([H])C([H])([H])N(C([H])([H])C2([H])C4([H])[N+]([H])(C([H])([H])C([H])([H])[H])C3([H])[H])C15[H]

$$$$
67:2:2
     RDKit          3D

108118  0  0  1  0  0  0  0  0999 V2000
   -1.4130   -4.1497    8.1385 C   0  0  0  0  0  0  0  0  0  0  0  0
   -0.5102   -5.3523    8.4448 C   0  0  0  0  0  0  0  0  0  0  0  0
    0.5849   -5.6402    7.4374 N   0  0  1  0  0  0  0  0  0  0  0  0
    1.5295   -4.4635    7.1442 C   0  0  0  0  0  0  0  0  0  0  0  0
    2.7327   -4.0218    8.0939 C   0  0  2  0  0  0  0  0  0  0  0  0
    2.4787   -2.4906    8.3396 C   0  0  0  0  0  0  0  0  0  0  0  0
    1.2134   -2.2408    8.9465 O   0  0  0  0  0  0  0  0  0  0  0  0
    0.9661   -0.8726    9.2296 C   0  0  0  0  0  0  0  0  0  0  0  0
    4.2213   -4.0539    7.5064 C   0  0  0  0  0  0  0  0  0  0  0  0
    5.2570   -5.2361    7.6956 C   0  0  0  0  0  0  0  0  0  0  0  0
    5.5680   -6.3166    6.5973 C   0  0  1  0  0  0  0  0  0  0  0  0
    6.2783   -7.3989    7.1855 O   0  0  0  0  0  0  0  0  0  0  0  0
    7.6204   -7.1308    7.5686 C   0  0  0  0  0  0  0  0  0  0  0  0
    4.2816   -6.8955    5.9160 C   0  0  1  0  0  0  0  0  0  0  0  0
    3.5980   -5.4660    5.0861 C   0  0  1  0  0  0  0  0  0  0  0  0
    3.2524   -4.7529    3.5953 C   0  0  1  0  0  0  0  0  0  0  0  0
    4.3047   -3.9497    3.0175 O   0  0  0  0  0  0  0  0  0  0  0  0
    5.3915   -4.6264    2.3777 C   0  0  0  0  0  0  0  0  0  0  0  0
    2.3422   -5.4448    2.3629 C   0  0  0  0  0  0  0  0  0  0  0  0
    1.8010   -6.9498    2.6263 C   0  0  2  0  0  0  0  0  0  0  0  0
    0.8461   -7.2880    1.6307 O   0  0  0  0  0  0  0  0  0  0  0  0
    1.3286   -6.6848    4.0463 C   0  0  2  0  0  0  0  0  0  0  0  0
    2.7198   -6.4182    4.6252 C   0  0  1  0  0  0  0  0  0  0  0  0
    3.7028   -7.4341    3.7687 C   0  0  1  0  0  0  0  0  0  0  0  0
    5.2162   -7.5917    3.7235 C   0  0  0  0  0  0  0  0  0  0  0  0
    4.3299   -8.1984    4.5550 C   0  0  1  0  0  0  0  0  0  0  0  0
    5.2001   -9.4597    4.9749 C   0  0  0  0  0  0  0  0  0  0  0  0
    2.9723   -8.2825    3.0556 C   0  0  2  0  0  0  0  0  0  0  0  0
    3.0607   -9.3249    1.9811 N   0  0  1  0  0  0  0  0  0  0  0  0
    4.0253   -9.0952    0.8576 C   0  0  0  0  0  0  0  0  0  0  0  0
    3.1892  -10.6118    2.6625 C   0  0  0  0  0  0  0  0  0  0  0  0
    2.5213  -10.2826    3.9710 C   0  0  0  0  0  0  0  0  0  0  0  0
    2.5142   -8.6936    4.1880 C   0  0  1  0  0  0  0  0  0  0  0  0
    1.1373   -8.0629    4.7098 C   0  0  2  0  0  0  0  0  0  0  0  0
    0.0228   -8.6689    4.0746 O   0  0  0  0  0  0  0  0  0  0  0  0
    0.8689   -8.1294    6.3232 C   0  0  1  0  0  0  0  0  0  0  0  0
    1.6559   -9.3180    6.8033 C   0  0  0  0  0  0  0  0  0  0  0  0
    3.0861   -8.9649    7.0431 N   0  0  0  0  0  0  0  0  0  0  0  0
    3.3417   -9.5295    8.3452 C   0  0  0  0  0  0  0  0  0  0  0  0
    2.5857   -8.5270    9.1966 C   0  0  0  0  0  0  0  0  0  0  0  0
    2.4978   -7.2086    8.3470 C   0  0  2  0  0  0  0  0  0  0  0  0
    2.7705   -6.2122    9.5338 C   0  0  0  0  0  0  0  0  0  0  0  0
    2.6472   -4.6863    9.4741 C   0  0  1  0  0  0  0  0  0  0  0  0
    3.6317   -4.1142   10.3368 O   0  0  0  0  0  0  0  0  0  0  0  0
    3.3476   -4.2482   11.7248 C   0  0  0  0  0  0  0  0  0  0  0  0
    1.1085   -7.0718    7.5619 C   0  0  1  0  0  0  0  0  0  0  0  0
    3.5624   -7.5528    7.2435 C   0  0  1  0  0  0  0  0  0  0  0  0
   -2.2532   -4.2007    8.8237 H   0  0  0  0  0  0  0  0  0  0  0  0
   -1.8119   -4.1684    7.1202 H   0  0  0  0  0  0  0  0  0  0  0  0
   -0.9186   -3.1959    8.3162 H   0  0  0  0  0  0  0  0  0  0  0  0
   -0.1299   -5.3002    9.4625 H   0  0  0  0  0  0  0  0  0  0  0  0
   -1.1903   -6.1975    8.4411 H   0  0  0  0  0  0  0  0  0  0  0  0
    1.7824   -4.4380    6.1024 H   0  0  0  0  0  0  0  0  0  0  0  0
    0.8324   -3.6387    7.0941 H   0  0  0  0  0  0  0  0  0  0  0  0
    3.2352   -2.0522    8.9933 H   0  0  0  0  0  0  0  0  0  0  0  0
    2.5505   -1.9488    7.3934 H   0  0  0  0  0  0  0  0  0  0  0  0
   -0.0215   -0.7888    9.6831 H   0  0  0  0  0  0  0  0  0  0  0  0
    0.9684   -0.2644    8.3234 H   0  0  0  0  0  0  0  0  0  0  0  0
    1.6889   -0.4614    9.9369 H   0  0  0  0  0  0  0  0  0  0  0  0
    4.2837   -3.6132    6.5124 H   0  0  0  0  0  0  0  0  0  0  0  0
    4.7402   -3.2807    8.0756 H   0  0  0  0  0  0  0  0  0  0  0  0
    6.2161   -4.7396    7.8224 H   0  0  0  0  0  0  0  0  0  0  0  0
    5.1473   -5.7067    8.6591 H   0  0  0  0  0  0  0  0  0  0  0  0
    6.2362   -5.8404    5.8863 H   0  0  0  0  0  0  0  0  0  0  0  0
    8.0945   -8.0549    7.8940 H   0  0  0  0  0  0  0  0  0  0  0  0
    7.6861   -6.4353    8.4049 H   0  0  0  0  0  0  0  0  0  0  0  0
    8.2172   -6.7401    6.7441 H   0  0  0  0  0  0  0  0  0  0  0  0
    4.5992   -5.2338    4.7737 H   0  0  0  0  0  0  0  0  0  0  0  0
    2.5726   -3.9774    3.9370 H   0  0  0  0  0  0  0  0  0  0  0  0
    6.0542   -3.8791    1.9106 H   0  0  0  0  0  0  0  0  0  0  0  0
    5.0236   -5.1985    1.5207 H   0  0  0  0  0  0  0  0  0  0  0  0
    5.9176   -5.2875    3.0691 H   0  0  0  0  0  0  0  0  0  0  0  0
    1.4744   -4.7982    2.2020 H   0  0  0  0  0  0  0  0  0  0  0  0
    2.8631   -5.4307    1.4082 H   0  0  0  0  0  0  0  0  0  0  0  0
    0.4625   -8.1266    1.8547 H   0  0  0  0  0  0  0  0  0  0  0  0
    0.5648   -5.9187    4.2151 H   0  0  0  0  0  0  0  0  0  0  0  0
    2.2504   -6.4721    5.5532 H   0  0  0  0  0  0  0  0  0  0  0  0
    4.1347   -6.7167    2.9121 H   0  0  0  0  0  0  0  0  0  0  0  0
    5.5919   -8.2001    2.8990 H   0  0  0  0  0  0  0  0  0  0  0  0
    5.9096   -6.8879    4.1467 H   0  0  0  0  0  0  0  0  0  0  0  0
    5.5518  -10.0392    4.1260 H   0  0  0  0  0  0  0  0  0  0  0  0
    4.7313  -10.1401    5.6708 H   0  0  0  0  0  0  0  0  0  0  0  0
    6.0963   -9.1049    5.4663 H   0  0  0  0  0  0  0  0  0  0  0  0
    5.0577   -9.2701    1.1425 H   0  0  0  0  0  0  0  0  0  0  0  0
    3.9155   -8.0902    0.4465 H   0  0  0  0  0  0  0  0  0  0  0  0
    3.7866   -9.8107    0.0836 H   0  0  0  0  0  0  0  0  0  0  0  0
    2.6762  -11.3747    2.0959 H   0  0  0  0  0  0  0  0  0  0  0  0
    4.2375  -10.8837    2.7426 H   0  0  0  0  0  0  0  0  0  0  0  0
    1.5029  -10.6584    3.9101 H   0  0  0  0  0  0  0  0  0  0  0  0
    3.0004  -10.8608    4.7519 H   0  0  0  0  0  0  0  0  0  0  0  0
   -0.1267   -9.5238    4.4621 H   0  0  0  0  0  0  0  0  0  0  0  0
   -0.1806   -8.3715    6.4014 H   0  0  0  0  0  0  0  0  0  0  0  0
    1.1415   -9.7327    7.6713 H   0  0  0  0  0  0  0  0  0  0  0  0
    1.5578  -10.1566    6.1379 H   0  0  0  0  0  0  0  0  0  0  0  0
    3.0131  -10.5668    8.4700 H   0  0  0  0  0  0  0  0  0  0  0  0
    4.4063   -9.4807    8.5526 H   0  0  0  0  0  0  0  0  0  0  0  0
    1.6013   -8.8948    9.4888 H   0  0  0  0  0  0  0  0  0  0  0  0
    3.1304   -8.4582   10.1360 H   0  0  0  0  0  0  0  0  0  0  0  0
    2.0726   -6.4847   10.3295 H   0  0  0  0  0  0  0  0  0  0  0  0
    3.7455   -6.4464    9.9584 H   0  0  0  0  0  0  0  0  0  0  0  0
    1.6889   -4.4100    9.9073 H   0  0  0  0  0  0  0  0  0  0  0  0
    4.1264   -3.7578   12.3023 H   0  0  0  0  0  0  0  0  0  0  0  0
    3.3236   -5.2927   12.0308 H   0  0  0  0  0  0  0  0  0  0  0  0
    2.3957   -3.7890   11.9938 H   0  0  0  0  0  0  0  0  0  0  0  0
    0.4563   -7.5050    8.3162 H   0  0  0  0  0  0  0  0  0  0  0  0
    3.1410   -6.5730    7.1432 H   0  0  0  0  0  0  0  0  0  0  0  0
    2.1336   -9.3247    1.5557 H   0  0  0  0  0  0  0  0  0  0  0  0
    0.0417   -5.7137    6.5838 H   0  0  0  0  0  0  0  0  0  0  0  0
  1  2  1  0
  1 48  1  0
  1 49  1  0
  1 50  1  0
  2  3  1  0
  2 51  1  0
  2 52  1  0
  3 46  1  0
  3  4  1  0
  3108  1  6
  4  5  1  0
  4 53  1  0
  4 54  1  0
  5 43  1  0
  5  6  1  1
  5  9  1  0
  6  7  1  0
  6 55  1  0
  6 56  1  0
  7  8  1  0
  8 57  1  0
  8 58  1  0
  8 59  1  0
  9 10  1  0
  9 60  1  0
  9 61  1  0
 10 11  1  0
 10 62  1  0
 10 63  1  0
 11 12  1  0
 11 14  1  0
 11 64  1  6
 12 13  1  0
 13 65  1  0
 13 66  1  0
 13 67  1  0
 14 26  1  6
 14 47  1  0
 14 15  1  0
 15 23  1  0
 15 16  1  0
 15 68  1  1
 16 17  1  0
 16 19  1  0
 16 69  1  1
 17 18  1  0
 18 70  1  0
 18 71  1  0
 18 72  1  0
 19 20  1  0
 19 73  1  0
 19 74  1  0
 28 20  1  6
 20 21  1  6
 20 22  1  0
 21 75  1  0
 22 34  1  0
 22 23  1  0
 22 76  1  6
 23 24  1  0
 23 77  1  1
 24 33  1  0
 24 25  1  0
 24 78  1  6
 25 26  1  0
 25 79  1  0
 25 80  1  0
 26 27  1  1
 26 28  1  0
 27 81  1  0
 27 82  1  0
 27 83  1  0
 28 33  1  0
 28 29  1  0
 29 30  1  0
 29 31  1  0
 29107  1  6
 30 84  1  0
 30 85  1  0
 30 86  1  0
 31 32  1  0
 31 87  1  0
 31 88  1  0
 33 32  1  1
 32 89  1  0
 32 90  1  0
 33 34  1  0
 34 35  1  6
 34 36  1  0
 35 91  1  0
 36 46  1  0
 36 37  1  0
 36 92  1  6
 37 38  1  0
 37 93  1  0
 37 94  1  0
 38 47  1  0
 38 39  1  0
 39 40  1  0
 39 95  1  0
 39 96  1  0
 41 40  1  1
 40 97  1  0
 40 98  1  0
 41 42  1  0
 41 46  1  0
 41 47  1  0
 42 43  1  0
 42 99  1  0
 42100  1  0
 43 44  1  0
 43101  1  1
 44 45  1  0
 45102  1  0
 45103  1  0
 45104  1  0
 46105  1  1
 47106  1  1
M  CHG  2   3   1  29   1
M  END
>  <i_m_ct_stereo_status>  (246) 
1

>  <s_m_source_file>  (246) 
/var/tmp/pbs.5076255.sched01/tmptpdlle0r/921kky2sk3.sdf

>  <i_m_source_file_index>  (246) 
18

>  <i_lp_mmshare_version>  (246) 
48012

>  <i_f3d_flags>  (246) 
2

>  <s_epik_input>  (246) 
W0NIM11PW0NAQEhdMVtDSDJdW0NIMl1bQ0BAXShbQ0gyXU9bQ0gzXSkoW0NIMl1OMltDSDJdW0NIM10pW0NASF0oT1tDSDNdKVtDSDJdW0NAXTMoW0NASF00TihbQ0gyXTUpW0NIMl1bQ0gyXTMpW0NASF0yW0NASF01W0NAXTYoW09IXSlDKFtDQEBIXTdbQ0gyXVtDQEBdODlbQ0gzXSkoW0NIMl1bQ0gyXU4yW0NIM10pW0NAXTI5W0NAQF0oW09IXSkoW0NAQEhdNltDSF03W0NIXTJbQ0BAXTE0OClbQ0gyXVtDQEBIXTJPW0NIM10=

>  <s_epik_cmdline>  (246) 
J2VwaWtfcHl0aG9uJywgJy1waHQnLCAnMi4wJywgJy1waCcsICc3LjAnLCAnLXRuJywgJzgnLCAnLW1hJywgJzIwMCcsICctaW1hZScsICc8aW5maWxlLm1hZT4nLCAnLW9tYWUnLCAnPG91dGZpbGUubWFlPic=

>  <r_epik_Ionization_Penalty>  (246) 
1.56908

>  <r_epik_Ionization_Penalty_Charging>  (246) 
0.00978906

>  <r_epik_Ionization_Penalty_Neutral>  (246) 
1.55929

>  <r_epik_State_Penalty>  (246) 
2.18131

>  <r_epik_Charging_Adjusted_Penalty>  (246) 
2.19109

>  <i_epik_Tot_Q>  (246) 
2

>  <i_epik_Tot_abs_Q>  (246) 
2

>  <s_lp_Force_Field>  (246) 
OPLS3e

>  <r_lp_Energy>  (246) 
1103.23

>  <b_lp_Chiralities_Consistent>  (246) 
0

>  <s_lp_Variant>  (246) 
67:0-3

>  <s_i_glide_gridfile>  (246) 
pfpi4k_grid

>  <i_i_glide_lignum>  (246) 
18

>  <i_i_glide_rotatable_bonds>  (246) 
8

>  <r_i_docking_score>  (246) 
-2.22338

>  <r_i_glide_ligand_efficiency>  (246) 
-0.0473059

>  <r_i_glide_ligand_efficiency_sa>  (246) 
-0.170719

>  <r_i_glide_ligand_efficiency_ln>  (246) 
-0.458415

>  <r_i_glide_gscore>  (246) 
-2.22338

>  <r_i_glide_lipo>  (246) 
-0.0767885

>  <r_i_glide_hbond>  (246) 
0

>  <r_i_glide_metal>  (246) 
-0

>  <r_i_glide_rewards>  (246) 
-0.5

>  <r_i_glide_evdw>  (246) 
-19.3288

>  <r_i_glide_ecoul>  (246) 
-4.62197

>  <r_i_glide_erotb>  (246) 
0.0494146

>  <r_i_glide_esite>  (246) 
-0.0362712

>  <r_i_glide_emodel>  (246) 
-31.5921

>  <r_i_glide_energy>  (246) 
-23.9508

>  <r_i_glide_einternal>  (246) 
2.68977

>  <r_i_glide_intrahb_reward>  (246) 
-0.5

>  <i_i_glide_confnum>  (246) 
1

>  <i_i_glide_posenum>  (246) 
6

>  <r_i_glide_eff_state_penalty>  (246) 
0

>  <ligand_id>  (246) 
67

>  <original_smiles>  (246) 
CCN1CC2(COC)CCC(OC)C34C5C(OC)CC6(O)C7C5C5CC3(C)C63N(C)CCC53C7(O)C3CN5CCC(CC2OC)(C31)C54

>  <smiles>  (246) 
[H]OC12C3([H])C4([H])C5([H])C([H])(OC([H])([H])[H])C([H])([H])C3(O[H])C36C1(C([H])([H])C([H])([H])[N+]3([H])C([H])([H])[H])C4([H])C([H])([H])C6(C([H])([H])[H])C51C([H])(OC([H])([H])[H])C([H])([H])C([H])([H])C3(C([H])([H])OC([H])([H])[H])C([H])(OC([H])([H])[H])C([H])([H])C45C([H])([H])C([H])([H])N(C([H])([H])C2([H])C4([H])[N+]([H])(C([H])([H])C([H])([H])[H])C3([H])[H])C15[H]

$$$$
67:3:0
     RDKit          3D

108118  0  0  1  0  0  0  0  0999 V2000
   -0.1205   -1.2951    4.6130 C   0  0  0  0  0  0  0  0  0  0  0  0
    1.0437   -1.8521    5.4530 C   0  0  0  0  0  0  0  0  0  0  0  0
    1.6553   -3.1056    4.8578 N   0  0  1  0  0  0  0  0  0  0  0  0
    2.5961   -2.7797    3.6939 C   0  0  0  0  0  0  0  0  0  0  0  0
    4.1595   -2.4280    3.8120 C   0  0  2  0  0  0  0  0  0  0  0  0
    4.3334   -1.1363    2.9146 C   0  0  0  0  0  0  0  0  0  0  0  0
    3.5762   -0.0165    3.3873 O   0  0  0  0  0  0  0  0  0  0  0  0
    2.6612    0.5537    2.4573 C   0  0  0  0  0  0  0  0  0  0  0  0
    5.2826   -3.4193    3.2156 C   0  0  0  0  0  0  0  0  0  0  0  0
    5.8921   -4.6853    3.9606 C   0  0  0  0  0  0  0  0  0  0  0  0
    5.4281   -6.1754    3.8708 C   0  0  1  0  0  0  0  0  0  0  0  0
    6.3115   -7.0012    4.6319 O   0  0  0  0  0  0  0  0  0  0  0  0
    7.4522   -7.4750    3.9125 C   0  0  0  0  0  0  0  0  0  0  0  0
    3.9417   -6.4299    4.2867 C   0  0  1  0  0  0  0  0  0  0  0  0
    3.1798   -5.7558    2.9116 C   0  0  1  0  0  0  0  0  0  0  0  0
    2.5618   -6.0684    1.3801 C   0  0  1  0  0  0  0  0  0  0  0  0
    3.5027   -6.6850    0.5152 O   0  0  0  0  0  0  0  0  0  0  0  0
    4.6219   -5.8995    0.1506 C   0  0  0  0  0  0  0  0  0  0  0  0
    1.0473   -6.7909    1.2300 C   0  0  0  0  0  0  0  0  0  0  0  0
    0.3530   -7.4201    2.5858 C   0  0  2  0  0  0  0  0  0  0  0  0
   -1.0182   -7.7271    2.4025 O   0  0  0  0  0  0  0  0  0  0  0  0
    0.5356   -6.2044    3.4883 C   0  0  2  0  0  0  0  0  0  0  0  0
    2.0466   -6.0929    3.6133 C   0  0  1  0  0  0  0  0  0  0  0  0
    2.4133   -7.7617    3.3599 C   0  0  1  0  0  0  0  0  0  0  0  0
    3.7178   -8.5701    3.1527 C   0  0  0  0  0  0  0  0  0  0  0  0
    3.1965   -8.1069    4.3070 C   0  0  1  0  0  0  0  0  0  0  0  0
    3.8949   -9.0655    5.3366 C   0  0  0  0  0  0  0  0  0  0  0  0
    1.3722   -8.5186    3.6180 C   0  0  2  0  0  0  0  0  0  0  0  0
    1.0524   -9.9737    3.6179 N   0  0  0  0  0  0  0  0  0  0  0  0
    0.4891  -10.5121    2.3938 C   0  0  0  0  0  0  0  0  0  0  0  0
    0.2111  -10.1021    4.7153 C   0  0  0  0  0  0  0  0  0  0  0  0
    0.8637   -9.1581    5.6606 C   0  0  0  0  0  0  0  0  0  0  0  0
    1.3558   -7.9324    4.7701 C   0  0  1  0  0  0  0  0  0  0  0  0
    0.4911   -6.6147    4.9084 C   0  0  2  0  0  0  0  0  0  0  0  0
   -0.8637   -6.8678    5.1955 O   0  0  0  0  0  0  0  0  0  0  0  0
    1.0136   -5.5348    5.9981 C   0  0  1  0  0  0  0  0  0  0  0  0
    1.6572   -6.3917    7.0865 C   0  0  0  0  0  0  0  0  0  0  0  0
    3.1392   -6.6152    6.8845 N   0  0  2  0  0  0  0  0  0  0  0  0
    3.7435   -6.1099    8.1255 C   0  0  0  0  0  0  0  0  0  0  0  0
    3.6044   -4.6179    7.8873 C   0  0  0  0  0  0  0  0  0  0  0  0
    3.4609   -4.3592    6.3076 C   0  0  2  0  0  0  0  0  0  0  0  0
    4.4092   -3.1014    6.3064 C   0  0  0  0  0  0  0  0  0  0  0  0
    4.4918   -2.0081    5.2385 C   0  0  1  0  0  0  0  0  0  0  0  0
    5.7857   -1.4225    5.2986 O   0  0  0  0  0  0  0  0  0  0  0  0
    5.9405   -0.3811    6.2510 C   0  0  0  0  0  0  0  0  0  0  0  0
    1.9559   -4.1883    5.8834 C   0  0  1  0  0  0  0  0  0  0  0  0
    3.8401   -5.7970    5.8182 C   0  0  2  0  0  0  0  0  0  0  0  0
   -0.4684   -0.3710    5.0826 H   0  0  0  0  0  0  0  0  0  0  0  0
   -0.9579   -1.9943    4.5897 H   0  0  0  0  0  0  0  0  0  0  0  0
    0.1513   -1.0328    3.5872 H   0  0  0  0  0  0  0  0  0  0  0  0
    1.7871   -1.0679    5.5612 H   0  0  0  0  0  0  0  0  0  0  0  0
    0.6205   -1.9820    6.4497 H   0  0  0  0  0  0  0  0  0  0  0  0
    2.3130   -3.2495    2.7530 H   0  0  0  0  0  0  0  0  0  0  0  0
    2.1558   -1.8478    3.4159 H   0  0  0  0  0  0  0  0  0  0  0  0
    5.3637   -0.7784    2.9050 H   0  0  0  0  0  0  0  0  0  0  0  0
    4.1170   -1.3631    1.8687 H   0  0  0  0  0  0  0  0  0  0  0  0
    2.1203    1.3609    2.9555 H   0  0  0  0  0  0  0  0  0  0  0  0
    1.9191   -0.1680    2.1193 H   0  0  0  0  0  0  0  0  0  0  0  0
    3.1656    0.9554    1.5776 H   0  0  0  0  0  0  0  0  0  0  0  0
    5.0796   -3.6507    2.1691 H   0  0  0  0  0  0  0  0  0  0  0  0
    6.1603   -2.7887    3.0840 H   0  0  0  0  0  0  0  0  0  0  0  0
    6.8014   -4.8686    3.4025 H   0  0  0  0  0  0  0  0  0  0  0  0
    6.2259   -4.4248    4.9596 H   0  0  0  0  0  0  0  0  0  0  0  0
    5.5682   -6.4470    2.8409 H   0  0  0  0  0  0  0  0  0  0  0  0
    7.9803   -8.1995    4.5252 H   0  0  0  0  0  0  0  0  0  0  0  0
    8.1566   -6.6805    3.6668 H   0  0  0  0  0  0  0  0  0  0  0  0
    7.1903   -7.9856    2.9843 H   0  0  0  0  0  0  0  0  0  0  0  0
    3.5042   -4.7721    2.8667 H   0  0  0  0  0  0  0  0  0  0  0  0
    2.3908   -5.0777    0.9473 H   0  0  0  0  0  0  0  0  0  0  0  0
    5.2227   -6.5207   -0.5060 H   0  0  0  0  0  0  0  0  0  0  0  0
    5.2417   -5.6361    0.9951 H   0  0  0  0  0  0  0  0  0  0  0  0
    4.3502   -4.9844   -0.3837 H   0  0  0  0  0  0  0  0  0  0  0  0
    0.3588   -6.0738    0.7903 H   0  0  0  0  0  0  0  0  0  0  0  0
    1.1170   -7.5788    0.4803 H   0  0  0  0  0  0  0  0  0  0  0  0
   -1.0433   -8.3985    1.7349 H   0  0  0  0  0  0  0  0  0  0  0  0
   -0.1246   -5.3519    3.3018 H   0  0  0  0  0  0  0  0  0  0  0  0
    1.6792   -5.2093    3.1026 H   0  0  0  0  0  0  0  0  0  0  0  0
    2.5717   -8.0840    2.2003 H   0  0  0  0  0  0  0  0  0  0  0  0
    3.5821   -9.6309    2.9251 H   0  0  0  0  0  0  0  0  0  0  0  0
    4.5349   -8.1049    2.6215 H   0  0  0  0  0  0  0  0  0  0  0  0
    3.6984  -10.1164    5.1038 H   0  0  0  0  0  0  0  0  0  0  0  0
    3.5998   -8.9325    6.3704 H   0  0  0  0  0  0  0  0  0  0  0  0
    4.9767   -8.9379    5.3044 H   0  0  0  0  0  0  0  0  0  0  0  0
    0.4274  -11.5969    2.4714 H   0  0  0  0  0  0  0  0  0  0  0  0
    1.1393  -10.2434    1.5630 H   0  0  0  0  0  0  0  0  0  0  0  0
   -0.5214  -10.1619    2.1737 H   0  0  0  0  0  0  0  0  0  0  0  0
   -0.7640   -9.6972    4.4420 H   0  0  0  0  0  0  0  0  0  0  0  0
    0.1480  -11.1294    5.0711 H   0  0  0  0  0  0  0  0  0  0  0  0
    0.1342   -8.9133    6.4337 H   0  0  0  0  0  0  0  0  0  0  0  0
    1.6500   -9.7199    6.1537 H   0  0  0  0  0  0  0  0  0  0  0  0
   -1.1868   -7.4897    4.5492 H   0  0  0  0  0  0  0  0  0  0  0  0
    0.0945   -5.1329    6.4154 H   0  0  0  0  0  0  0  0  0  0  0  0
    1.4233   -5.8818    8.0190 H   0  0  0  0  0  0  0  0  0  0  0  0
    1.1594   -7.3307    7.2768 H   0  0  0  0  0  0  0  0  0  0  0  0
    3.2583   -6.4551    9.0351 H   0  0  0  0  0  0  0  0  0  0  0  0
    4.7898   -6.4070    8.1939 H   0  0  0  0  0  0  0  0  0  0  0  0
    2.7641   -4.2105    8.4544 H   0  0  0  0  0  0  0  0  0  0  0  0
    4.4777   -4.1753    8.3757 H   0  0  0  0  0  0  0  0  0  0  0  0
    4.1029   -2.4784    7.1533 H   0  0  0  0  0  0  0  0  0  0  0  0
    5.4254   -3.3996    6.5771 H   0  0  0  0  0  0  0  0  0  0  0  0
    3.8005   -1.2195    5.5116 H   0  0  0  0  0  0  0  0  0  0  0  0
    6.9566    0.0048    6.1936 H   0  0  0  0  0  0  0  0  0  0  0  0
    5.7717   -0.7373    7.2670 H   0  0  0  0  0  0  0  0  0  0  0  0
    5.2634    0.4504    6.0492 H   0  0  0  0  0  0  0  0  0  0  0  0
    1.6038   -3.7084    6.7866 H   0  0  0  0  0  0  0  0  0  0  0  0
    4.8776   -5.8865    6.1255 H   0  0  0  0  0  0  0  0  0  0  0  0
    3.3307   -7.5923    6.7867 H   0  0  0  0  0  0  0  0  0  0  0  0
    0.8576   -3.4950    4.3890 H   0  0  0  0  0  0  0  0  0  0  0  0
  1  2  1  0
  1 48  1  0
  1 49  1  0
  1 50  1  0
  2  3  1  0
  2 51  1  0
  2 52  1  0
  3 46  1  0
  3  4  1  0
  3108  1  6
  4  5  1  0
  4 53  1  0
  4 54  1  0
  5 43  1  0
  5  6  1  6
  5  9  1  0
  6  7  1  0
  6 55  1  0
  6 56  1  0
  7  8  1  0
  8 57  1  0
  8 58  1  0
  8 59  1  0
  9 10  1  0
  9 60  1  0
  9 61  1  0
 10 11  1  0
 10 62  1  0
 10 63  1  0
 11 12  1  0
 11 14  1  0
 11 64  1  6
 12 13  1  0
 13 65  1  0
 13 66  1  0
 13 67  1  0
 14 26  1  1
 14 47  1  0
 14 15  1  0
 15 23  1  0
 15 16  1  0
 15 68  1  6
 16 17  1  0
 16 19  1  0
 16 69  1  6
 17 18  1  0
 18 70  1  0
 18 71  1  0
 18 72  1  0
 19 20  1  0
 19 73  1  0
 19 74  1  0
 20 28  1  0
 20 21  1  6
 20 22  1  0
 21 75  1  0
 22 34  1  0
 22 23  1  0
 22 76  1  1
 23 24  1  0
 23 77  1  1
 24 33  1  0
 24 25  1  0
 24 78  1  6
 25 26  1  0
 25 79  1  0
 25 80  1  0
 26 27  1  1
 26 28  1  0
 27 81  1  0
 27 82  1  0
 27 83  1  0
 28 33  1  0
 28 29  1  1
 29 30  1  0
 29 31  1  0
 30 84  1  0
 30 85  1  0
 30 86  1  0
 31 32  1  0
 31 87  1  0
 31 88  1  0
 33 32  1  1
 32 89  1  0
 32 90  1  0
 33 34  1  0
 34 35  1  1
 34 36  1  0
 35 91  1  0
 36 46  1  0
 36 37  1  0
 36 92  1  1
 37 38  1  0
 37 93  1  0
 37 94  1  0
 38 47  1  0
 38 39  1  0
 38107  1  6
 39 40  1  0
 39 95  1  0
 39 96  1  0
 41 40  1  1
 40 97  1  0
 40 98  1  0
 41 42  1  0
 41 46  1  0
 41 47  1  0
 42 43  1  0
 42 99  1  0
 42100  1  0
 43 44  1  0
 43101  1  1
 44 45  1  0
 45102  1  0
 45103  1  0
 45104  1  0
 46105  1  1
 47106  1  1
M  CHG  2   3   1  38   1
M  END
>  <i_m_ct_stereo_status>  (247) 
1

>  <s_m_source_file>  (247) 
/var/tmp/pbs.5076255.sched01/tmptpdlle0r/921kky2sk3.sdf

>  <i_m_source_file_index>  (247) 
19

>  <i_lp_mmshare_version>  (247) 
48012

>  <i_f3d_flags>  (247) 
2

>  <s_epik_input>  (247) 
W0NIM11PW0NAQEhdMVtDSDJdW0NIMl1bQ0BAXShbQ0gyXU9bQ0gzXSkoW0NIMl1OMltDSDJdW0NIM10pW0NASF0oT1tDSDNdKVtDSDJdW0NAXTMoW0NASF00TihbQ0gyXTUpW0NIMl1bQ0gyXTMpW0NASF0yW0NASF01W0NAXTYoW09IXSlDKFtDQEBIXTdbQ0gyXVtDQEBdODlbQ0gzXSkoW0NIMl1bQ0gyXU4yW0NIM10pW0NAXTI5W0NAQF0oW09IXSkoW0NAQEhdNltDSF03W0NIXTJbQ0BAXTE0OClbQ0gyXVtDQEBIXTJPW0NIM10=

>  <s_epik_cmdline>  (247) 
J2VwaWtfcHl0aG9uJywgJy1waHQnLCAnMi4wJywgJy1waCcsICc3LjAnLCAnLXRuJywgJzgnLCAnLW1hJywgJzIwMCcsICctaW1hZScsICc8aW5maWxlLm1hZT4nLCAnLW9tYWUnLCAnPG91dGZpbGUubWFlPic=

>  <r_epik_Ionization_Penalty>  (247) 
2.34196

>  <r_epik_Ionization_Penalty_Charging>  (247) 
0.304985

>  <r_epik_Ionization_Penalty_Neutral>  (247) 
2.03697

>  <r_epik_State_Penalty>  (247) 
2.71759

>  <r_epik_Charging_Adjusted_Penalty>  (247) 
3.02257

>  <i_epik_Tot_Q>  (247) 
2

>  <i_epik_Tot_abs_Q>  (247) 
2

>  <s_lp_Force_Field>  (247) 
OPLS3e

>  <r_lp_Energy>  (247) 
1043.97

>  <b_lp_Chiralities_Consistent>  (247) 
0

>  <s_lp_Variant>  (247) 
67:0-4

>  <s_i_glide_gridfile>  (247) 
pfpi4k_grid

>  <i_i_glide_lignum>  (247) 
19

>  <i_i_glide_rotatable_bonds>  (247) 
8

>  <r_i_docking_score>  (247) 
-2.27756

>  <r_i_glide_ligand_efficiency>  (247) 
-0.0484586

>  <r_i_glide_ligand_efficiency_sa>  (247) 
-0.174879

>  <r_i_glide_ligand_efficiency_ln>  (247) 
-0.469585

>  <r_i_glide_gscore>  (247) 
-2.27756

>  <r_i_glide_lipo>  (247) 
-0.427428

>  <r_i_glide_hbond>  (247) 
0

>  <r_i_glide_metal>  (247) 
-0

>  <r_i_glide_rewards>  (247) 
0

>  <r_i_glide_evdw>  (247) 
-18.55

>  <r_i_glide_ecoul>  (247) 
-6.48027

>  <r_i_glide_erotb>  (247) 
0.0494146

>  <r_i_glide_esite>  (247) 
0

>  <r_i_glide_emodel>  (247) 
-21.4692

>  <r_i_glide_energy>  (247) 
-25.0303

>  <r_i_glide_einternal>  (247) 
7.06609

>  <r_i_glide_intrahb_reward>  (247) 
-0

>  <i_i_glide_confnum>  (247) 
1

>  <i_i_glide_posenum>  (247) 
20

>  <r_i_glide_eff_state_penalty>  (247) 
0

>  <ligand_id>  (247) 
67

>  <original_smiles>  (247) 
CCN1CC2(COC)CCC(OC)C34C5C(OC)CC6(O)C7C5C5CC3(C)C63N(C)CCC53C7(O)C3CN5CCC(CC2OC)(C31)C54

>  <smiles>  (247) 
[H]OC12C([H])([H])C([H])(OC([H])([H])[H])C3([H])C4([H])C1([H])C1(O[H])C5([H])C([H])([H])[N+]6([H])C([H])([H])C([H])([H])C78C([H])([H])C([H])(OC([H])([H])[H])C(C([H])([H])OC([H])([H])[H])(C([H])([H])C([H])([H])C([H])(OC([H])([H])[H])C3(C3(C([H])([H])[H])C([H])([H])C4([H])C14C([H])([H])C([H])([H])N(C([H])([H])[H])C243)C76[H])C([H])([H])[N+]([H])(C([H])([H])C([H])([H])[H])C58[H]

$$$$
69:0:0
     RDKit          3D

 56 61  0  0  1  0  0  0  0  0999 V2000
    3.8112   -0.8672   -2.6278 C   0  0  0  0  0  0  0  0  0  0  0  0
    3.5162   -2.3598   -2.5859 C   0  0  0  0  0  0  0  0  0  0  0  0
    2.3790   -2.6716   -3.5510 C   0  0  0  0  0  0  0  0  0  0  0  0
    4.7143   -2.9648   -3.1281 O   0  0  0  0  0  0  0  0  0  0  0  0
    4.9177   -3.6880   -1.9046 C   0  0  1  0  0  0  0  0  0  0  0  0
    6.2284   -3.3219   -1.2046 C   0  0  1  0  0  0  0  0  0  0  0  0
    6.5107   -1.9454   -1.3396 O   0  0  0  0  0  0  0  0  0  0  0  0
    6.1545   -3.6645    0.3110 C   0  0  2  0  0  0  0  0  0  0  0  0
    7.4595   -3.2015    0.9878 C   0  0  0  0  0  0  0  0  0  0  0  0
    6.2478   -5.2369    0.4278 C   0  0  0  0  0  0  0  0  0  0  0  0
    5.7797   -5.9212    1.7172 C   0  0  1  0  0  0  0  0  0  0  0  0
    4.3167   -6.0312    2.0275 C   0  0  1  0  0  0  0  0  0  0  0  0
    3.4045   -5.3261    1.0606 C   0  0  1  0  0  0  0  0  0  0  0  0
    2.0510   -5.7135    1.2013 O   0  0  0  0  0  0  0  0  0  0  0  0
    3.5870   -3.8390    1.2454 C   0  0  2  0  0  0  0  0  0  0  0  0
    3.0743   -3.4110    2.4867 O   0  0  0  0  0  0  0  0  0  0  0  0
    3.5886   -2.8198    0.1653 C   0  0  1  0  0  0  0  0  0  0  0  0
    3.0222   -1.4576    0.5016 C   0  0  0  0  0  0  0  0  0  0  0  0
    3.8674   -0.9603    1.5340 O   0  0  0  0  0  0  0  0  0  0  0  0
    5.1013   -1.6099    1.5488 C   0  0  1  0  0  0  0  0  0  0  0  0
    5.6006   -1.6675    2.8581 O   0  0  0  0  0  0  0  0  0  0  0  0
    4.8648   -3.0272    0.9701 C   0  0  2  0  0  0  0  0  0  0  0  0
    3.5934   -3.2306   -1.3141 C   0  0  1  0  0  0  0  0  0  0  0  0
    5.0805   -7.2924    1.7390 C   0  0  0  0  0  0  0  0  0  0  0  0
    4.7766   -8.1178    0.4995 C   0  0  0  0  0  0  0  0  0  0  0  0
    5.3750   -8.2405    2.8832 C   0  0  0  0  0  0  0  0  0  0  0  0
    2.8971   -0.2937   -2.4706 H   0  0  0  0  0  0  0  0  0  0  0  0
    4.2165   -0.5624   -3.5913 H   0  0  0  0  0  0  0  0  0  0  0  0
    4.5294   -0.5608   -1.8716 H   0  0  0  0  0  0  0  0  0  0  0  0
    1.4336   -2.2833   -3.1658 H   0  0  0  0  0  0  0  0  0  0  0  0
    2.2381   -3.7417   -3.6970 H   0  0  0  0  0  0  0  0  0  0  0  0
    2.5635   -2.2192   -4.5230 H   0  0  0  0  0  0  0  0  0  0  0  0
    4.8421   -4.7511   -2.0971 H   0  0  0  0  0  0  0  0  0  0  0  0
    7.0949   -3.7949   -1.6679 H   0  0  0  0  0  0  0  0  0  0  0  0
    5.6921   -1.4947   -1.1959 H   0  0  0  0  0  0  0  0  0  0  0  0
    7.4122   -3.5209    2.0463 H   0  0  0  0  0  0  0  0  0  0  0  0
    7.6292   -2.1286    0.9433 H   0  0  0  0  0  0  0  0  0  0  0  0
    8.3427   -3.6551    0.5362 H   0  0  0  0  0  0  0  0  0  0  0  0
    5.7327   -5.7081   -0.3974 H   0  0  0  0  0  0  0  0  0  0  0  0
    7.2765   -5.5663    0.2762 H   0  0  0  0  0  0  0  0  0  0  0  0
    6.4323   -5.7330    2.5670 H   0  0  0  0  0  0  0  0  0  0  0  0
    4.0523   -5.8770    3.0701 H   0  0  0  0  0  0  0  0  0  0  0  0
    3.6661   -5.5507    0.0387 H   0  0  0  0  0  0  0  0  0  0  0  0
    2.0291   -6.6553    1.1222 H   0  0  0  0  0  0  0  0  0  0  0  0
    3.0014   -2.4628    2.4724 H   0  0  0  0  0  0  0  0  0  0  0  0
    3.0244   -0.7586   -0.3207 H   0  0  0  0  0  0  0  0  0  0  0  0
    2.0145   -1.5514    0.9021 H   0  0  0  0  0  0  0  0  0  0  0  0
    5.7805   -0.9851    0.9534 H   0  0  0  0  0  0  0  0  0  0  0  0
    5.0084   -2.2060    3.3660 H   0  0  0  0  0  0  0  0  0  0  0  0
    2.8612   -4.0208   -1.4703 H   0  0  0  0  0  0  0  0  0  0  0  0
    3.9517   -8.8076    0.6814 H   0  0  0  0  0  0  0  0  0  0  0  0
    5.6393   -8.7325    0.2590 H   0  0  0  0  0  0  0  0  0  0  0  0
    4.5186   -7.4982   -0.3576 H   0  0  0  0  0  0  0  0  0  0  0  0
    4.5288   -8.9085    3.0435 H   0  0  0  0  0  0  0  0  0  0  0  0
    5.5497   -7.6797    3.7977 H   0  0  0  0  0  0  0  0  0  0  0  0
    6.2596   -8.8394    2.6651 H   0  0  0  0  0  0  0  0  0  0  0  0
  1  2  1  0
  1 27  1  0
  1 28  1  0
  1 29  1  0
  2 23  1  0
  2  3  1  0
  2  4  1  0
  3 30  1  0
  3 31  1  0
  3 32  1  0
  4  5  1  0
  5 23  1  0
  5  6  1  0
  5 33  1  6
  6  7  1  0
  6  8  1  0
  6 34  1  6
  7 35  1  0
 22  8  1  6
  8  9  1  1
  8 10  1  0
  9 36  1  0
  9 37  1  0
  9 38  1  0
 10 11  1  0
 10 39  1  0
 10 40  1  0
 11 24  1  0
 11 12  1  0
 11 41  1  1
 12 13  1  0
 12 24  1  0
 12 42  1  1
 13 14  1  0
 13 15  1  0
 13 43  1  6
 14 44  1  0
 15 22  1  0
 15 16  1  1
 15 17  1  0
 16 45  1  0
 17 22  1  0
 17 18  1  6
 17 23  1  0
 18 19  1  0
 18 46  1  0
 18 47  1  0
 19 20  1  0
 20 21  1  0
 20 22  1  0
 20 48  1  6
 21 49  1  0
 23 50  1  1
 24 25  1  0
 24 26  1  0
 25 51  1  0
 25 52  1  0
 25 53  1  0
 26 54  1  0
 26 55  1  0
 26 56  1  0
M  END
>  <i_m_ct_stereo_status>  (248) 
1

>  <s_m_source_file>  (248) 
/var/tmp/pbs.5076255.sched01/tmptpdlle0r/921kky2sk3.sdf

>  <i_m_source_file_index>  (248) 
21

>  <i_lp_mmshare_version>  (248) 
48012

>  <i_f3d_flags>  (248) 
0

>  <s_epik_input>  (248) 
W0NIM11DKE8xKShbQ0gzXSlbQ0BIXTJbQ0BASF0xW0NAQEhdKFtPSF0pW0NAQF0oW0NIM10pKFtDQF0zKFtDQEBdMjQ1KVtDQEhdKFtPSF0pT1tDSDJdNSlbQ0gyXVtDQEhdNltDQEhdKEM2KFtDSDNdKVtDSDNdKVtDQEBIXShbT0hdKVtDQEBdMzRbT0hd

>  <s_epik_cmdline>  (248) 
J2VwaWtfcHl0aG9uJywgJy1waHQnLCAnMi4wJywgJy1waCcsICc3LjAnLCAnLXRuJywgJzgnLCAnLW1hJywgJzIwMCcsICctaW1hZScsICc8aW5maWxlLm1hZT4nLCAnLW9tYWUnLCAnPG91dGZpbGUubWFlPic=

>  <r_lp_tautomer_probability>  (248) 
1

>  <r_epik_Ionization_Penalty>  (248) 
3.02323e-07

>  <r_epik_Ionization_Penalty_Charging>  (248) 
0

>  <r_epik_Ionization_Penalty_Neutral>  (248) 
3.02323e-07

>  <r_epik_State_Penalty>  (248) 
-0

>  <r_epik_Charging_Adjusted_Penalty>  (248) 
0

>  <i_epik_Tot_Q>  (248) 
0

>  <i_epik_Tot_abs_Q>  (248) 
0

>  <s_epik_Chemistry_Notes>  (248) 
This compound contains an acetal/aminal-like group ( X-CH(R)-Y where X, Y are N, S, or O) that may be acid/base labile, releasing an aldehyde.

>  <s_lp_Force_Field>  (248) 
OPLS3e

>  <r_lp_Energy>  (248) 
54.5001

>  <b_lp_Chiralities_Consistent>  (248) 
1

>  <s_lp_Variant>  (248) 
69:0-1

>  <s_i_glide_gridfile>  (248) 
pfpi4k_grid

>  <i_i_glide_lignum>  (248) 
21

>  <i_i_glide_rotatable_bonds>  (248) 
4

>  <r_i_docking_score>  (248) 
-3.84458

>  <r_i_glide_ligand_efficiency>  (248) 
-0.147869

>  <r_i_glide_ligand_efficiency_sa>  (248) 
-0.43806

>  <r_i_glide_ligand_efficiency_ln>  (248) 
-0.902888

>  <r_i_glide_gscore>  (248) 
-3.84458

>  <r_i_glide_lipo>  (248) 
-0.873549

>  <r_i_glide_hbond>  (248) 
0

>  <r_i_glide_metal>  (248) 
-0

>  <r_i_glide_rewards>  (248) 
-1.01592

>  <r_i_glide_evdw>  (248) 
-19.5487

>  <r_i_glide_ecoul>  (248) 
-6.51788

>  <r_i_glide_erotb>  (248) 
0

>  <r_i_glide_esite>  (248) 
0

>  <r_i_glide_emodel>  (248) 
-31.2773

>  <r_i_glide_energy>  (248) 
-26.0666

>  <r_i_glide_einternal>  (248) 
0.565289

>  <r_i_glide_intrahb_reward>  (248) 
-0

>  <i_i_glide_confnum>  (248) 
1

>  <i_i_glide_posenum>  (248) 
30

>  <r_i_glide_eff_state_penalty>  (248) 
0

>  <ligand_id>  (248) 
69

>  <original_smiles>  (248) 
CC1(C)OC2C(O)C3(C)CC4C(C(O)C5(O)C6(COC(O)C356)C21)C4(C)C

>  <smiles>  (248) 
[H]OC1([H])OC([H])([H])C23C4([H])C([H])(OC4(C([H])([H])[H])C([H])([H])[H])C([H])(O[H])C4(C([H])([H])[H])C([H])([H])C5([H])C([H])(C([H])(O[H])C2(O[H])C143)C5(C([H])([H])[H])C([H])([H])[H]

$$$$
69:0:1
     RDKit          3D

 56 61  0  0  1  0  0  0  0  0999 V2000
    3.6324   -0.9131   -2.6111 C   0  0  0  0  0  0  0  0  0  0  0  0
    3.3810   -2.4091   -2.5704 C   0  0  0  0  0  0  0  0  0  0  0  0
    2.2703   -2.7682   -3.5327 C   0  0  0  0  0  0  0  0  0  0  0  0
    4.5939   -2.9934   -3.1071 O   0  0  0  0  0  0  0  0  0  0  0  0
    4.7972   -3.7160   -1.8757 C   0  0  1  0  0  0  0  0  0  0  0  0
    6.1023   -3.3221   -1.1859 C   0  0  1  0  0  0  0  0  0  0  0  0
    6.3621   -1.9419   -1.3333 O   0  0  0  0  0  0  0  0  0  0  0  0
    6.0472   -3.6676    0.3326 C   0  0  2  0  0  0  0  0  0  0  0  0
    7.3459   -3.1760    1.0088 C   0  0  0  0  0  0  0  0  0  0  0  0
    6.1540   -5.2310    0.4376 C   0  0  0  0  0  0  0  0  0  0  0  0
    5.7081   -5.9237    1.7331 C   0  0  1  0  0  0  0  0  0  0  0  0
    4.2461   -6.0619    2.0479 C   0  0  1  0  0  0  0  0  0  0  0  0
    3.3181   -5.3777    1.0788 C   0  0  1  0  0  0  0  0  0  0  0  0
    1.9733   -5.7755    1.2713 O   0  0  0  0  0  0  0  0  0  0  0  0
    3.4817   -3.8822    1.2760 C   0  0  2  0  0  0  0  0  0  0  0  0
    2.9411   -3.4738    2.5096 O   0  0  0  0  0  0  0  0  0  0  0  0
    3.4626   -2.8656    0.1909 C   0  0  1  0  0  0  0  0  0  0  0  0
    2.8769   -1.5105    0.5388 C   0  0  0  0  0  0  0  0  0  0  0  0
    3.7105   -0.9988    1.5676 O   0  0  0  0  0  0  0  0  0  0  0  0
    4.9552   -1.6265    1.5713 C   0  0  1  0  0  0  0  0  0  0  0  0
    5.4651   -1.6763    2.8709 O   0  0  0  0  0  0  0  0  0  0  0  0
    4.7436   -3.0481    0.9919 C   0  0  2  0  0  0  0  0  0  0  0  0
    3.4640   -3.2761   -1.2936 C   0  0  1  0  0  0  0  0  0  0  0  0
    5.0339   -7.3069    1.7625 C   0  0  0  0  0  0  0  0  0  0  0  0
    4.7339   -8.1352    0.5227 C   0  0  0  0  0  0  0  0  0  0  0  0
    5.3462   -8.2431    2.9067 C   0  0  0  0  0  0  0  0  0  0  0  0
    2.7037   -0.3610   -2.4492 H   0  0  0  0  0  0  0  0  0  0  0  0
    4.0236   -0.6033   -3.5798 H   0  0  0  0  0  0  0  0  0  0  0  0
    4.3483   -0.5885   -1.8620 H   0  0  0  0  0  0  0  0  0  0  0  0
    1.3447   -2.4015   -3.1143 H   0  0  0  0  0  0  0  0  0  0  0  0
    2.1472   -3.8404   -3.6701 H   0  0  0  0  0  0  0  0  0  0  0  0
    2.4194   -2.3058   -4.5048 H   0  0  0  0  0  0  0  0  0  0  0  0
    4.7291   -4.7785   -2.0675 H   0  0  0  0  0  0  0  0  0  0  0  0
    6.9572   -3.8086   -1.6616 H   0  0  0  0  0  0  0  0  0  0  0  0
    5.5556   -1.4907   -1.1545 H   0  0  0  0  0  0  0  0  0  0  0  0
    7.3250   -3.4982    2.0440 H   0  0  0  0  0  0  0  0  0  0  0  0
    7.4929   -2.0991    0.9643 H   0  0  0  0  0  0  0  0  0  0  0  0
    8.2321   -3.6143    0.5375 H   0  0  0  0  0  0  0  0  0  0  0  0
    5.6415   -5.7117   -0.3836 H   0  0  0  0  0  0  0  0  0  0  0  0
    7.1916   -5.5454    0.2823 H   0  0  0  0  0  0  0  0  0  0  0  0
    6.3574   -5.7155    2.5800 H   0  0  0  0  0  0  0  0  0  0  0  0
    3.9890   -5.9007    3.0913 H   0  0  0  0  0  0  0  0  0  0  0  0
    3.5606   -5.5986    0.0548 H   0  0  0  0  0  0  0  0  0  0  0  0
    1.8160   -5.7964    2.2044 H   0  0  0  0  0  0  0  0  0  0  0  0
    2.8818   -2.5239    2.4974 H   0  0  0  0  0  0  0  0  0  0  0  0
    2.8723   -0.8122   -0.2815 H   0  0  0  0  0  0  0  0  0  0  0  0
    1.8669   -1.6237    0.9345 H   0  0  0  0  0  0  0  0  0  0  0  0
    5.6154   -0.9932    0.9638 H   0  0  0  0  0  0  0  0  0  0  0  0
    4.8776   -2.2087    3.3866 H   0  0  0  0  0  0  0  0  0  0  0  0
    2.7402   -4.0773   -1.4380 H   0  0  0  0  0  0  0  0  0  0  0  0
    3.9222   -8.8369    0.7165 H   0  0  0  0  0  0  0  0  0  0  0  0
    5.6087   -8.7311    0.2711 H   0  0  0  0  0  0  0  0  0  0  0  0
    4.4546   -7.5240   -0.3277 H   0  0  0  0  0  0  0  0  0  0  0  0
    4.5101   -8.9232    3.0723 H   0  0  0  0  0  0  0  0  0  0  0  0
    5.5163   -7.6766    3.8202 H   0  0  0  0  0  0  0  0  0  0  0  0
    6.2386   -8.8296    2.6857 H   0  0  0  0  0  0  0  0  0  0  0  0
  1  2  1  0
  1 27  1  0
  1 28  1  0
  1 29  1  0
  2 23  1  0
  2  3  1  0
  2  4  1  0
  3 30  1  0
  3 31  1  0
  3 32  1  0
  4  5  1  0
  5 23  1  0
  5  6  1  0
  5 33  1  6
  6  7  1  0
  6  8  1  0
  6 34  1  6
  7 35  1  0
 22  8  1  6
  8  9  1  1
  8 10  1  0
  9 36  1  0
  9 37  1  0
  9 38  1  0
 10 11  1  0
 10 39  1  0
 10 40  1  0
 11 24  1  0
 11 12  1  0
 11 41  1  1
 12 13  1  0
 12 24  1  0
 12 42  1  1
 13 14  1  0
 13 15  1  0
 13 43  1  6
 14 44  1  0
 15 22  1  0
 15 16  1  1
 15 17  1  0
 16 45  1  0
 17 22  1  0
 17 18  1  1
 17 23  1  0
 18 19  1  0
 18 46  1  0
 18 47  1  0
 19 20  1  0
 20 21  1  0
 20 22  1  0
 20 48  1  6
 21 49  1  0
 23 50  1  1
 24 25  1  0
 24 26  1  0
 25 51  1  0
 25 52  1  0
 25 53  1  0
 26 54  1  0
 26 55  1  0
 26 56  1  0
M  END
>  <i_m_ct_stereo_status>  (249) 
1

>  <s_m_source_file>  (249) 
/var/tmp/pbs.5076255.sched01/tmptpdlle0r/921kky2sk3.sdf

>  <i_m_source_file_index>  (249) 
21

>  <i_lp_mmshare_version>  (249) 
48012

>  <i_f3d_flags>  (249) 
0

>  <s_epik_input>  (249) 
W0NIM11DKE8xKShbQ0gzXSlbQ0BIXTJbQ0BASF0xW0NAQEhdKFtPSF0pW0NAQF0oW0NIM10pKFtDQF0zKFtDQEBdMjQ1KVtDQEhdKFtPSF0pT1tDSDJdNSlbQ0gyXVtDQEhdNltDQEhdKEM2KFtDSDNdKVtDSDNdKVtDQEBIXShbT0hdKVtDQEBdMzRbT0hd

>  <s_epik_cmdline>  (249) 
J2VwaWtfcHl0aG9uJywgJy1waHQnLCAnMi4wJywgJy1waCcsICc3LjAnLCAnLXRuJywgJzgnLCAnLW1hJywgJzIwMCcsICctaW1hZScsICc8aW5maWxlLm1hZT4nLCAnLW9tYWUnLCAnPG91dGZpbGUubWFlPic=

>  <r_lp_tautomer_probability>  (249) 
1

>  <r_epik_Ionization_Penalty>  (249) 
3.02323e-07

>  <r_epik_Ionization_Penalty_Charging>  (249) 
0

>  <r_epik_Ionization_Penalty_Neutral>  (249) 
3.02323e-07

>  <r_epik_State_Penalty>  (249) 
-0

>  <r_epik_Charging_Adjusted_Penalty>  (249) 
0

>  <i_epik_Tot_Q>  (249) 
0

>  <i_epik_Tot_abs_Q>  (249) 
0

>  <s_epik_Chemistry_Notes>  (249) 
This compound contains an acetal/aminal-like group ( X-CH(R)-Y where X, Y are N, S, or O) that may be acid/base labile, releasing an aldehyde.

>  <s_lp_Force_Field>  (249) 
OPLS3e

>  <r_lp_Energy>  (249) 
54.5001

>  <b_lp_Chiralities_Consistent>  (249) 
1

>  <s_lp_Variant>  (249) 
69:0-1

>  <s_i_glide_gridfile>  (249) 
pfpi4k_grid

>  <i_i_glide_lignum>  (249) 
21

>  <i_i_glide_rotatable_bonds>  (249) 
4

>  <r_i_docking_score>  (249) 
-3.83543

>  <r_i_glide_ligand_efficiency>  (249) 
-0.147517

>  <r_i_glide_ligand_efficiency_sa>  (249) 
-0.437018

>  <r_i_glide_ligand_efficiency_ln>  (249) 
-0.900739

>  <r_i_glide_gscore>  (249) 
-3.83543

>  <r_i_glide_lipo>  (249) 
-0.863981

>  <r_i_glide_hbond>  (249) 
0

>  <r_i_glide_metal>  (249) 
-0

>  <r_i_glide_rewards>  (249) 
-0.99737

>  <r_i_glide_evdw>  (249) 
-18.9469

>  <r_i_glide_ecoul>  (249) 
-6.84493

>  <r_i_glide_erotb>  (249) 
0

>  <r_i_glide_esite>  (249) 
0

>  <r_i_glide_emodel>  (249) 
-31.0073

>  <r_i_glide_energy>  (249) 
-25.7918

>  <r_i_glide_einternal>  (249) 
0.539759

>  <r_i_glide_intrahb_reward>  (249) 
-0

>  <i_i_glide_confnum>  (249) 
1

>  <i_i_glide_posenum>  (249) 
11

>  <r_i_glide_eff_state_penalty>  (249) 
0

>  <ligand_id>  (249) 
69

>  <original_smiles>  (249) 
CC1(C)OC2C(O)C3(C)CC4C(C(O)C5(O)C6(COC(O)C356)C21)C4(C)C

>  <smiles>  (249) 
[H]OC1([H])OC([H])([H])C23C4([H])C([H])(OC4(C([H])([H])[H])C([H])([H])[H])C([H])(O[H])C4(C([H])([H])[H])C([H])([H])C5([H])C([H])(C([H])(O[H])C2(O[H])C143)C5(C([H])([H])[H])C([H])([H])[H]

$$$$
69:0:2
     RDKit          3D

 56 61  0  0  1  0  0  0  0  0999 V2000
    3.7585   -0.9130   -2.6273 C   0  0  0  0  0  0  0  0  0  0  0  0
    3.4621   -2.3977   -2.5697 C   0  0  0  0  0  0  0  0  0  0  0  0
    2.3348   -2.7230   -3.5290 C   0  0  0  0  0  0  0  0  0  0  0  0
    4.6671   -3.0078   -3.0902 O   0  0  0  0  0  0  0  0  0  0  0  0
    4.8405   -3.7461   -1.8619 C   0  0  1  0  0  0  0  0  0  0  0  0
    6.1473   -3.3748   -1.1724 C   0  0  1  0  0  0  0  0  0  0  0  0
    6.3827   -2.0161   -1.4052 O   0  0  0  0  0  0  0  0  0  0  0  0
    6.0931   -3.7076    0.3402 C   0  0  2  0  0  0  0  0  0  0  0  0
    7.4042   -3.2456    1.0023 C   0  0  0  0  0  0  0  0  0  0  0  0
    6.1638   -5.2708    0.4558 C   0  0  0  0  0  0  0  0  0  0  0  0
    5.7010   -5.9461    1.7519 C   0  0  1  0  0  0  0  0  0  0  0  0
    4.2382   -6.0369    2.0727 C   0  0  1  0  0  0  0  0  0  0  0  0
    3.3228   -5.3305    1.1061 C   0  0  1  0  0  0  0  0  0  0  0  0
    1.9695   -5.7048    1.2829 O   0  0  0  0  0  0  0  0  0  0  0  0
    3.5191   -3.8418    1.2778 C   0  0  2  0  0  0  0  0  0  0  0  0
    3.0107   -3.3969    2.5167 O   0  0  0  0  0  0  0  0  0  0  0  0
    3.5296   -2.8371    0.1877 C   0  0  1  0  0  0  0  0  0  0  0  0
    2.9936   -1.4624    0.5155 C   0  0  0  0  0  0  0  0  0  0  0  0
    3.8415   -0.9677    1.5408 O   0  0  0  0  0  0  0  0  0  0  0  0
    5.0672   -1.6283    1.5462 C   0  0  1  0  0  0  0  0  0  0  0  0
    5.5721   -1.6872    2.8501 O   0  0  0  0  0  0  0  0  0  0  0  0
    4.8052   -3.0499    0.9886 C   0  0  2  0  0  0  0  0  0  0  0  0
    3.5195   -3.2595   -1.2927 C   0  0  1  0  0  0  0  0  0  0  0  0
    4.9877   -7.3083    1.7867 C   0  0  0  0  0  0  0  0  0  0  0  0
    4.6692   -8.1343    0.5487 C   0  0  0  0  0  0  0  0  0  0  0  0
    5.2751   -8.2500    2.9380 C   0  0  0  0  0  0  0  0  0  0  0  0
    2.8481   -0.3374   -2.4660 H   0  0  0  0  0  0  0  0  0  0  0  0
    4.1589   -0.6146   -3.5941 H   0  0  0  0  0  0  0  0  0  0  0  0
    4.4770   -0.6033   -1.8739 H   0  0  0  0  0  0  0  0  0  0  0  0
    1.4213   -2.3093   -3.1280 H   0  0  0  0  0  0  0  0  0  0  0  0
    2.1666   -3.7877   -3.6534 H   0  0  0  0  0  0  0  0  0  0  0  0
    2.4999   -2.2867   -4.5076 H   0  0  0  0  0  0  0  0  0  0  0  0
    4.7490   -4.8049   -2.0616 H   0  0  0  0  0  0  0  0  0  0  0  0
    7.0016   -3.8617   -1.6461 H   0  0  0  0  0  0  0  0  0  0  0  0
    6.1013   -1.9155   -2.3039 H   0  0  0  0  0  0  0  0  0  0  0  0
    7.3671   -3.5515    2.0419 H   0  0  0  0  0  0  0  0  0  0  0  0
    7.5839   -2.1761    0.9308 H   0  0  0  0  0  0  0  0  0  0  0  0
    8.2780   -3.7210    0.5481 H   0  0  0  0  0  0  0  0  0  0  0  0
    5.6427   -5.7492   -0.3585 H   0  0  0  0  0  0  0  0  0  0  0  0
    7.1879   -5.6184    0.3011 H   0  0  0  0  0  0  0  0  0  0  0  0
    6.3576   -5.7598    2.5979 H   0  0  0  0  0  0  0  0  0  0  0  0
    3.9861   -5.8706    3.1157 H   0  0  0  0  0  0  0  0  0  0  0  0
    3.5732   -5.5729    0.0877 H   0  0  0  0  0  0  0  0  0  0  0  0
    1.9514   -6.6485    1.3146 H   0  0  0  0  0  0  0  0  0  0  0  0
    2.8621   -2.4663    2.4446 H   0  0  0  0  0  0  0  0  0  0  0  0
    3.0045   -0.7725   -0.3123 H   0  0  0  0  0  0  0  0  0  0  0  0
    1.9865   -1.5391    0.9239 H   0  0  0  0  0  0  0  0  0  0  0  0
    5.7436   -1.0198    0.9300 H   0  0  0  0  0  0  0  0  0  0  0  0
    4.9933   -2.2377    3.3502 H   0  0  0  0  0  0  0  0  0  0  0  0
    2.7810   -4.0431   -1.4379 H   0  0  0  0  0  0  0  0  0  0  0  0
    3.8504   -8.8291    0.7428 H   0  0  0  0  0  0  0  0  0  0  0  0
    5.5342   -8.7381    0.2839 H   0  0  0  0  0  0  0  0  0  0  0  0
    4.3963   -7.5190   -0.3025 H   0  0  0  0  0  0  0  0  0  0  0  0
    4.4220   -8.9073    3.1147 H   0  0  0  0  0  0  0  0  0  0  0  0
    5.4621   -7.6817    3.8462 H   0  0  0  0  0  0  0  0  0  0  0  0
    6.1528   -8.8615    2.7238 H   0  0  0  0  0  0  0  0  0  0  0  0
  1  2  1  0
  1 27  1  0
  1 28  1  0
  1 29  1  0
  2 23  1  0
  2  3  1  0
  2  4  1  0
  3 30  1  0
  3 31  1  0
  3 32  1  0
  4  5  1  0
  5 23  1  0
  5  6  1  0
  5 33  1  6
  6  7  1  0
  6  8  1  0
  6 34  1  6
  7 35  1  0
 22  8  1  6
  8  9  1  1
  8 10  1  0
  9 36  1  0
  9 37  1  0
  9 38  1  0
 10 11  1  0
 10 39  1  0
 10 40  1  0
 11 24  1  0
 11 12  1  0
 11 41  1  1
 12 13  1  0
 12 24  1  0
 12 42  1  1
 13 14  1  0
 13 15  1  0
 13 43  1  6
 14 44  1  0
 15 22  1  0
 15 16  1  1
 15 17  1  0
 16 45  1  0
 17 22  1  0
 17 18  1  1
 17 23  1  0
 18 19  1  0
 18 46  1  0
 18 47  1  0
 19 20  1  0
 20 21  1  0
 20 22  1  0
 20 48  1  6
 21 49  1  0
 23 50  1  1
 24 25  1  0
 24 26  1  0
 25 51  1  0
 25 52  1  0
 25 53  1  0
 26 54  1  0
 26 55  1  0
 26 56  1  0
M  END
>  <i_m_ct_stereo_status>  (250) 
1

>  <s_m_source_file>  (250) 
/var/tmp/pbs.5076255.sched01/tmptpdlle0r/921kky2sk3.sdf

>  <i_m_source_file_index>  (250) 
21

>  <i_lp_mmshare_version>  (250) 
48012

>  <i_f3d_flags>  (250) 
0

>  <s_epik_input>  (250) 
W0NIM11DKE8xKShbQ0gzXSlbQ0BIXTJbQ0BASF0xW0NAQEhdKFtPSF0pW0NAQF0oW0NIM10pKFtDQF0zKFtDQEBdMjQ1KVtDQEhdKFtPSF0pT1tDSDJdNSlbQ0gyXVtDQEhdNltDQEhdKEM2KFtDSDNdKVtDSDNdKVtDQEBIXShbT0hdKVtDQEBdMzRbT0hd

>  <s_epik_cmdline>  (250) 
J2VwaWtfcHl0aG9uJywgJy1waHQnLCAnMi4wJywgJy1waCcsICc3LjAnLCAnLXRuJywgJzgnLCAnLW1hJywgJzIwMCcsICctaW1hZScsICc8aW5maWxlLm1hZT4nLCAnLW9tYWUnLCAnPG91dGZpbGUubWFlPic=

>  <r_lp_tautomer_probability>  (250) 
1

>  <r_epik_Ionization_Penalty>  (250) 
3.02323e-07

>  <r_epik_Ionization_Penalty_Charging>  (250) 
0

>  <r_epik_Ionization_Penalty_Neutral>  (250) 
3.02323e-07

>  <r_epik_State_Penalty>  (250) 
-0

>  <r_epik_Charging_Adjusted_Penalty>  (250) 
0

>  <i_epik_Tot_Q>  (250) 
0

>  <i_epik_Tot_abs_Q>  (250) 
0

>  <s_epik_Chemistry_Notes>  (250) 
This compound contains an acetal/aminal-like group ( X-CH(R)-Y where X, Y are N, S, or O) that may be acid/base labile, releasing an aldehyde.

>  <s_lp_Force_Field>  (250) 
OPLS3e

>  <r_lp_Energy>  (250) 
54.5001

>  <b_lp_Chiralities_Consistent>  (250) 
1

>  <s_lp_Variant>  (250) 
69:0-1

>  <s_i_glide_gridfile>  (250) 
pfpi4k_grid

>  <i_i_glide_lignum>  (250) 
21

>  <i_i_glide_rotatable_bonds>  (250) 
4

>  <r_i_docking_score>  (250) 
-3.69145

>  <r_i_glide_ligand_efficiency>  (250) 
-0.141979

>  <r_i_glide_ligand_efficiency_sa>  (250) 
-0.420611

>  <r_i_glide_ligand_efficiency_ln>  (250) 
-0.866924

>  <r_i_glide_gscore>  (250) 
-3.69145

>  <r_i_glide_lipo>  (250) 
-0.859991

>  <r_i_glide_hbond>  (250) 
0

>  <r_i_glide_metal>  (250) 
-0

>  <r_i_glide_rewards>  (250) 
-1.01054

>  <r_i_glide_evdw>  (250) 
-20.3112

>  <r_i_glide_ecoul>  (250) 
-5.36906

>  <r_i_glide_erotb>  (250) 
0

>  <r_i_glide_esite>  (250) 
0

>  <r_i_glide_emodel>  (250) 
-29.5386

>  <r_i_glide_energy>  (250) 
-25.6802

>  <r_i_glide_einternal>  (250) 
1.63783

>  <r_i_glide_intrahb_reward>  (250) 
-0

>  <i_i_glide_confnum>  (250) 
1

>  <i_i_glide_posenum>  (250) 
16

>  <r_i_glide_eff_state_penalty>  (250) 
0

>  <ligand_id>  (250) 
69

>  <original_smiles>  (250) 
CC1(C)OC2C(O)C3(C)CC4C(C(O)C5(O)C6(COC(O)C356)C21)C4(C)C

>  <smiles>  (250) 
[H]OC1([H])OC([H])([H])C23C4([H])C([H])(OC4(C([H])([H])[H])C([H])([H])[H])C([H])(O[H])C4(C([H])([H])[H])C([H])([H])C5([H])C([H])(C([H])(O[H])C2(O[H])C143)C5(C([H])([H])[H])C([H])([H])[H]

$$$$
70:0:0
     RDKit          3D

 21 23  0  0  1  0  0  0  0  0999 V2000
   -9.9354   -3.9191   -6.9076 C   0  0  0  0  0  0  0  0  0  0  0  0
   -8.8146   -4.2724   -6.1585 C   0  0  0  0  0  0  0  0  0  0  0  0
   -8.1837   -5.4991   -6.4540 C   0  0  0  0  0  0  0  0  0  0  0  0
   -8.6683   -6.3000   -7.5295 C   0  0  0  0  0  0  0  0  0  0  0  0
   -9.7985   -5.8367   -8.2527 C   0  0  0  0  0  0  0  0  0  0  0  0
  -10.4063   -4.6672   -7.9205 N   0  0  0  0  0  0  0  0  0  0  0  0
   -7.9141   -7.4523   -7.6861 N   0  0  0  0  0  0  0  0  0  0  0  0
   -7.0258   -7.3266   -6.6955 C   0  0  0  0  0  0  0  0  0  0  0  0
   -7.1107   -6.2263   -5.9251 N   0  0  0  0  0  0  0  0  0  0  0  0
   -6.2381   -5.9238   -4.7892 C   0  0  0  0  0  0  0  0  0  0  0  0
   -6.8174   -5.0228   -3.7257 C   0  0  0  0  0  0  0  0  0  0  0  0
   -5.7867   -4.4881   -4.7146 C   0  0  0  0  0  0  0  0  0  0  0  0
  -10.4507   -2.9949   -6.6900 H   0  0  0  0  0  0  0  0  0  0  0  0
   -8.4835   -3.5992   -5.3853 H   0  0  0  0  0  0  0  0  0  0  0  0
  -10.2096   -6.3888   -9.0840 H   0  0  0  0  0  0  0  0  0  0  0  0
   -6.2745   -8.0912   -6.5307 H   0  0  0  0  0  0  0  0  0  0  0  0
   -5.5710   -6.7409   -4.5217 H   0  0  0  0  0  0  0  0  0  0  0  0
   -7.8520   -4.7061   -3.7963 H   0  0  0  0  0  0  0  0  0  0  0  0
   -6.5014   -5.2053   -2.7008 H   0  0  0  0  0  0  0  0  0  0  0  0
   -4.7858   -4.2898   -4.3344 H   0  0  0  0  0  0  0  0  0  0  0  0
   -6.1088   -3.8071   -5.4930 H   0  0  0  0  0  0  0  0  0  0  0  0
  1  6  2  0
  1  2  1  0
  1 13  1  0
  2  3  2  0
  2 14  1  0
  3  9  1  0
  3  4  1  0
  4  5  2  0
  4  7  1  0
  5  6  1  0
  5 15  1  0
  7  8  2  0
  8  9  1  0
  8 16  1  0
  9 10  1  0
 10 12  1  0
 10 11  1  0
 10 17  1  0
 11 12  1  0
 11 18  1  0
 11 19  1  0
 12 20  1  0
 12 21  1  0
M  END
>  <i_m_ct_stereo_status>  (251) 
1

>  <s_m_source_file>  (251) 
/var/tmp/pbs.5076255.sched01/tmptpdlle0r/921kky2sk3.sdf

>  <i_m_source_file_index>  (251) 
22

>  <i_lp_mmshare_version>  (251) 
48012

>  <i_f3d_flags>  (251) 
0

>  <s_epik_input>  (251) 
W2NIXTFbY0hdbltjSF1jKGMxMiluW2NIXW4yW0NIXTNbQ0gyXVtDSDJdMw==

>  <s_epik_cmdline>  (251) 
J2VwaWtfcHl0aG9uJywgJy1waHQnLCAnMi4wJywgJy1waCcsICc3LjAnLCAnLXRuJywgJzgnLCAnLW1hJywgJzIwMCcsICctaW1hZScsICc8aW5maWxlLm1hZT4nLCAnLW9tYWUnLCAnPG91dGZpbGUubWFlPic=

>  <r_lp_tautomer_probability>  (251) 
1

>  <r_epik_Ionization_Penalty>  (251) 
0.207499

>  <r_epik_Ionization_Penalty_Charging>  (251) 
0.207499

>  <r_epik_Ionization_Penalty_Neutral>  (251) 
7.8935e-16

>  <r_epik_State_Penalty>  (251) 
0.195125

>  <r_epik_Charging_Adjusted_Penalty>  (251) 
0.402624

>  <i_epik_Tot_Q>  (251) 
0

>  <i_epik_Tot_abs_Q>  (251) 
0

>  <s_lp_Force_Field>  (251) 
OPLS3e

>  <r_lp_Energy>  (251) 
12.093

>  <b_lp_Chiralities_Consistent>  (251) 
1

>  <s_lp_Variant>  (251) 
70:0-1

>  <s_i_glide_gridfile>  (251) 
pfpi4k_grid

>  <i_i_glide_lignum>  (251) 
22

>  <i_i_glide_rotatable_bonds>  (251) 
1

>  <r_i_docking_score>  (251) 
-5.36883

>  <r_i_glide_ligand_efficiency>  (251) 
-0.447403

>  <r_i_glide_ligand_efficiency_sa>  (251) 
-1.0243

>  <r_i_glide_ligand_efficiency_ln>  (251) 
-1.5406

>  <r_i_glide_gscore>  (251) 
-5.36883

>  <r_i_glide_lipo>  (251) 
-1.87796

>  <r_i_glide_hbond>  (251) 
-0.0094864

>  <r_i_glide_metal>  (251) 
-0

>  <r_i_glide_rewards>  (251) 
-2.91373

>  <r_i_glide_evdw>  (251) 
-20.8526

>  <r_i_glide_ecoul>  (251) 
-0.792195

>  <r_i_glide_erotb>  (251) 
0.593802

>  <r_i_glide_esite>  (251) 
0

>  <r_i_glide_emodel>  (251) 
-27.8868

>  <r_i_glide_energy>  (251) 
-21.6448

>  <r_i_glide_einternal>  (251) 
2.30206

>  <r_i_glide_intrahb_reward>  (251) 
-0

>  <i_i_glide_confnum>  (251) 
5

>  <i_i_glide_posenum>  (251) 
26

>  <r_i_glide_eff_state_penalty>  (251) 
0

>  <ligand_id>  (251) 
70

>  <original_smiles>  (251) 
c1cc2c(cn1)ncn2C1CC1

>  <smiles>  (251) 
[H]c1nc([H])c2nc([H])n(C3([H])C([H])([H])C3([H])[H])c2c1[H]

$$$$
70:0:1
     RDKit          3D

 21 23  0  0  1  0  0  0  0  0999 V2000
  -10.2194   -3.8594   -6.9059 C   0  0  0  0  0  0  0  0  0  0  0  0
   -9.0108   -4.1027   -6.2539 C   0  0  0  0  0  0  0  0  0  0  0  0
   -8.3083   -5.2573   -6.6334 C   0  0  0  0  0  0  0  0  0  0  0  0
   -8.8030   -6.1178   -7.6547 C   0  0  0  0  0  0  0  0  0  0  0  0
  -10.0309   -5.7757   -8.2649 C   0  0  0  0  0  0  0  0  0  0  0  0
  -10.6861   -4.6550   -7.8927 N   0  0  0  0  0  0  0  0  0  0  0  0
   -7.9425   -7.1798   -7.8828 N   0  0  0  0  0  0  0  0  0  0  0  0
   -6.9925   -6.9484   -6.9836 C   0  0  0  0  0  0  0  0  0  0  0  0
   -7.1243   -5.8406   -6.2223 N   0  0  0  0  0  0  0  0  0  0  0  0
   -6.1877   -5.3260   -5.2495 C   0  0  0  0  0  0  0  0  0  0  0  0
   -6.1142   -6.1765   -4.0182 C   0  0  0  0  0  0  0  0  0  0  0  0
   -6.7959   -4.8270   -3.9631 C   0  0  0  0  0  0  0  0  0  0  0  0
  -10.8259   -3.0072   -6.6365 H   0  0  0  0  0  0  0  0  0  0  0  0
   -8.6550   -3.4307   -5.4922 H   0  0  0  0  0  0  0  0  0  0  0  0
  -10.4884   -6.3706   -9.0394 H   0  0  0  0  0  0  0  0  0  0  0  0
   -6.1253   -7.5909   -6.9306 H   0  0  0  0  0  0  0  0  0  0  0  0
   -5.3026   -4.8591   -5.6755 H   0  0  0  0  0  0  0  0  0  0  0  0
   -6.7466   -7.0549   -3.9612 H   0  0  0  0  0  0  0  0  0  0  0  0
   -5.1505   -6.2555   -3.5400 H   0  0  0  0  0  0  0  0  0  0  0  0
   -6.2831   -4.0086   -3.4687 H   0  0  0  0  0  0  0  0  0  0  0  0
   -7.8754   -4.8438   -3.8465 H   0  0  0  0  0  0  0  0  0  0  0  0
  1  6  2  0
  1  2  1  0
  1 13  1  0
  2  3  2  0
  2 14  1  0
  3  9  1  0
  3  4  1  0
  4  5  2  0
  4  7  1  0
  5  6  1  0
  5 15  1  0
  7  8  2  0
  8  9  1  0
  8 16  1  0
  9 10  1  0
 10 12  1  0
 10 11  1  0
 10 17  1  0
 11 12  1  0
 11 18  1  0
 11 19  1  0
 12 20  1  0
 12 21  1  0
M  END
>  <i_m_ct_stereo_status>  (252) 
1

>  <s_m_source_file>  (252) 
/var/tmp/pbs.5076255.sched01/tmptpdlle0r/921kky2sk3.sdf

>  <i_m_source_file_index>  (252) 
22

>  <i_lp_mmshare_version>  (252) 
48012

>  <i_f3d_flags>  (252) 
0

>  <s_epik_input>  (252) 
W2NIXTFbY0hdbltjSF1jKGMxMiluW2NIXW4yW0NIXTNbQ0gyXVtDSDJdMw==

>  <s_epik_cmdline>  (252) 
J2VwaWtfcHl0aG9uJywgJy1waHQnLCAnMi4wJywgJy1waCcsICc3LjAnLCAnLXRuJywgJzgnLCAnLW1hJywgJzIwMCcsICctaW1hZScsICc8aW5maWxlLm1hZT4nLCAnLW9tYWUnLCAnPG91dGZpbGUubWFlPic=

>  <r_lp_tautomer_probability>  (252) 
1

>  <r_epik_Ionization_Penalty>  (252) 
0.207499

>  <r_epik_Ionization_Penalty_Charging>  (252) 
0.207499

>  <r_epik_Ionization_Penalty_Neutral>  (252) 
7.8935e-16

>  <r_epik_State_Penalty>  (252) 
0.195125

>  <r_epik_Charging_Adjusted_Penalty>  (252) 
0.402624

>  <i_epik_Tot_Q>  (252) 
0

>  <i_epik_Tot_abs_Q>  (252) 
0

>  <s_lp_Force_Field>  (252) 
OPLS3e

>  <r_lp_Energy>  (252) 
12.093

>  <b_lp_Chiralities_Consistent>  (252) 
1

>  <s_lp_Variant>  (252) 
70:0-1

>  <s_i_glide_gridfile>  (252) 
pfpi4k_grid

>  <i_i_glide_lignum>  (252) 
22

>  <i_i_glide_rotatable_bonds>  (252) 
1

>  <r_i_docking_score>  (252) 
-4.80409

>  <r_i_glide_ligand_efficiency>  (252) 
-0.400341

>  <r_i_glide_ligand_efficiency_sa>  (252) 
-0.916553

>  <r_i_glide_ligand_efficiency_ln>  (252) 
-1.37854

>  <r_i_glide_gscore>  (252) 
-4.80409

>  <r_i_glide_lipo>  (252) 
-1.6699

>  <r_i_glide_hbond>  (252) 
-0.0293367

>  <r_i_glide_metal>  (252) 
-0

>  <r_i_glide_rewards>  (252) 
-2.7739

>  <r_i_glide_evdw>  (252) 
-16.7804

>  <r_i_glide_ecoul>  (252) 
-0.571632

>  <r_i_glide_erotb>  (252) 
0.593802

>  <r_i_glide_esite>  (252) 
0

>  <r_i_glide_emodel>  (252) 
-23.7267

>  <r_i_glide_energy>  (252) 
-17.352

>  <r_i_glide_einternal>  (252) 
0.51749

>  <r_i_glide_intrahb_reward>  (252) 
-0

>  <i_i_glide_confnum>  (252) 
5

>  <i_i_glide_posenum>  (252) 
39

>  <r_i_glide_eff_state_penalty>  (252) 
0

>  <ligand_id>  (252) 
70

>  <original_smiles>  (252) 
c1cc2c(cn1)ncn2C1CC1

>  <smiles>  (252) 
[H]c1nc([H])c2nc([H])n(C3([H])C([H])([H])C3([H])[H])c2c1[H]

$$$$
70:0:2
     RDKit          3D

 21 23  0  0  1  0  0  0  0  0999 V2000
    2.9357   -6.4510    4.8136 C   0  0  0  0  0  0  0  0  0  0  0  0
    2.4089   -7.6896    4.4296 C   0  0  0  0  0  0  0  0  0  0  0  0
    1.3462   -7.6915    3.5056 C   0  0  0  0  0  0  0  0  0  0  0  0
    0.8493   -6.4560    2.9958 C   0  0  0  0  0  0  0  0  0  0  0  0
    1.4569   -5.2549    3.4575 C   0  0  0  0  0  0  0  0  0  0  0  0
    2.4745   -5.2698    4.3522 N   0  0  0  0  0  0  0  0  0  0  0  0
   -0.1891   -6.6569    2.0993 N   0  0  0  0  0  0  0  0  0  0  0  0
   -0.2989   -7.9888    2.1071 C   0  0  0  0  0  0  0  0  0  0  0  0
    0.5596   -8.6786    2.8964 N   0  0  0  0  0  0  0  0  0  0  0  0
    0.5956  -10.1408    3.0335 C   0  0  0  0  0  0  0  0  0  0  0  0
    0.9529  -10.6652    4.4058 C   0  0  0  0  0  0  0  0  0  0  0  0
    1.9560  -10.7601    3.2605 C   0  0  0  0  0  0  0  0  0  0  0  0
    3.7465   -6.4289    5.5228 H   0  0  0  0  0  0  0  0  0  0  0  0
    2.8278   -8.5921    4.8465 H   0  0  0  0  0  0  0  0  0  0  0  0
    1.1232   -4.2880    3.1171 H   0  0  0  0  0  0  0  0  0  0  0  0
   -1.0389   -8.4969    1.5015 H   0  0  0  0  0  0  0  0  0  0  0  0
   -0.1434  -10.6522    2.4229 H   0  0  0  0  0  0  0  0  0  0  0  0
    1.1143   -9.9432    5.2025 H   0  0  0  0  0  0  0  0  0  0  0  0
    0.4857  -11.5899    4.7392 H   0  0  0  0  0  0  0  0  0  0  0  0
    2.1498  -11.7543    2.8656 H   0  0  0  0  0  0  0  0  0  0  0  0
    2.8237  -10.1062    3.2469 H   0  0  0  0  0  0  0  0  0  0  0  0
  1  6  2  0
  1  2  1  0
  1 13  1  0
  2  3  2  0
  2 14  1  0
  3  9  1  0
  3  4  1  0
  4  5  2  0
  4  7  1  0
  5  6  1  0
  5 15  1  0
  7  8  2  0
  8  9  1  0
  8 16  1  0
  9 10  1  0
 10 12  1  0
 10 11  1  0
 10 17  1  0
 11 12  1  0
 11 18  1  0
 11 19  1  0
 12 20  1  0
 12 21  1  0
M  END
>  <i_m_ct_stereo_status>  (253) 
1

>  <s_m_source_file>  (253) 
/var/tmp/pbs.5076255.sched01/tmptpdlle0r/921kky2sk3.sdf

>  <i_m_source_file_index>  (253) 
22

>  <i_lp_mmshare_version>  (253) 
48012

>  <i_f3d_flags>  (253) 
0

>  <s_epik_input>  (253) 
W2NIXTFbY0hdbltjSF1jKGMxMiluW2NIXW4yW0NIXTNbQ0gyXVtDSDJdMw==

>  <s_epik_cmdline>  (253) 
J2VwaWtfcHl0aG9uJywgJy1waHQnLCAnMi4wJywgJy1waCcsICc3LjAnLCAnLXRuJywgJzgnLCAnLW1hJywgJzIwMCcsICctaW1hZScsICc8aW5maWxlLm1hZT4nLCAnLW9tYWUnLCAnPG91dGZpbGUubWFlPic=

>  <r_lp_tautomer_probability>  (253) 
1

>  <r_epik_Ionization_Penalty>  (253) 
0.207499

>  <r_epik_Ionization_Penalty_Charging>  (253) 
0.207499

>  <r_epik_Ionization_Penalty_Neutral>  (253) 
7.8935e-16

>  <r_epik_State_Penalty>  (253) 
0.195125

>  <r_epik_Charging_Adjusted_Penalty>  (253) 
0.402624

>  <i_epik_Tot_Q>  (253) 
0

>  <i_epik_Tot_abs_Q>  (253) 
0

>  <s_lp_Force_Field>  (253) 
OPLS3e

>  <r_lp_Energy>  (253) 
12.093

>  <b_lp_Chiralities_Consistent>  (253) 
1

>  <s_lp_Variant>  (253) 
70:0-1

>  <s_i_glide_gridfile>  (253) 
pfpi4k_grid

>  <i_i_glide_lignum>  (253) 
22

>  <i_i_glide_rotatable_bonds>  (253) 
1

>  <r_i_docking_score>  (253) 
-3.49676

>  <r_i_glide_ligand_efficiency>  (253) 
-0.291397

>  <r_i_glide_ligand_efficiency_sa>  (253) 
-0.667132

>  <r_i_glide_ligand_efficiency_ln>  (253) 
-1.0034

>  <r_i_glide_gscore>  (253) 
-3.49676

>  <r_i_glide_lipo>  (253) 
-0.142679

>  <r_i_glide_hbond>  (253) 
-0.164371

>  <r_i_glide_metal>  (253) 
-0

>  <r_i_glide_rewards>  (253) 
-2.25

>  <r_i_glide_evdw>  (253) 
-13.9568

>  <r_i_glide_ecoul>  (253) 
-4.95895

>  <r_i_glide_erotb>  (253) 
0.593802

>  <r_i_glide_esite>  (253) 
-0.09183

>  <r_i_glide_emodel>  (253) 
-22.8103

>  <r_i_glide_energy>  (253) 
-18.9157

>  <r_i_glide_einternal>  (253) 
1.91885

>  <r_i_glide_intrahb_reward>  (253) 
-0

>  <i_i_glide_confnum>  (253) 
3

>  <i_i_glide_posenum>  (253) 
10

>  <r_i_glide_eff_state_penalty>  (253) 
0

>  <ligand_id>  (253) 
70

>  <original_smiles>  (253) 
c1cc2c(cn1)ncn2C1CC1

>  <smiles>  (253) 
[H]c1nc([H])c2nc([H])n(C3([H])C([H])([H])C3([H])[H])c2c1[H]

$$$$
70:1:0
     RDKit          3D

 22 24  0  0  1  0  0  0  0  0999 V2000
   -8.6407   -4.9408   -6.0795 C   0  0  0  0  0  0  0  0  0  0  0  0
   -8.0768   -6.1274   -6.5893 C   0  0  0  0  0  0  0  0  0  0  0  0
   -6.8445   -6.5596   -6.0696 C   0  0  0  0  0  0  0  0  0  0  0  0
   -6.1758   -5.7960   -5.0693 C   0  0  0  0  0  0  0  0  0  0  0  0
   -6.7899   -4.6109   -4.6106 C   0  0  0  0  0  0  0  0  0  0  0  0
   -7.9878   -4.2443   -5.1205 N   0  0  0  0  0  0  0  0  0  0  0  0
   -4.9794   -6.3780   -4.7213 N   0  0  0  0  0  0  0  0  0  0  0  0
   -4.9552   -7.4619   -5.4903 C   0  0  0  0  0  0  0  0  0  0  0  0
   -6.0139   -7.6534   -6.3005 N   0  0  0  0  0  0  0  0  0  0  0  0
   -6.1990   -8.7226   -7.2626 C   0  0  0  0  0  0  0  0  0  0  0  0
   -7.2511   -9.7306   -6.8644 C   0  0  0  0  0  0  0  0  0  0  0  0
   -5.7830  -10.0952   -6.7806 C   0  0  0  0  0  0  0  0  0  0  0  0
   -9.5974   -4.5448   -6.3922 H   0  0  0  0  0  0  0  0  0  0  0  0
   -8.5850   -6.7114   -7.3430 H   0  0  0  0  0  0  0  0  0  0  0  0
   -6.3651   -3.9633   -3.8578 H   0  0  0  0  0  0  0  0  0  0  0  0
   -4.1133   -8.1414   -5.4612 H   0  0  0  0  0  0  0  0  0  0  0  0
   -6.0700   -8.4130   -8.2990 H   0  0  0  0  0  0  0  0  0  0  0  0
   -7.7807   -9.5829   -5.9239 H   0  0  0  0  0  0  0  0  0  0  0  0
   -7.8381  -10.1817   -7.6615 H   0  0  0  0  0  0  0  0  0  0  0  0
   -5.3821  -10.7787   -7.5257 H   0  0  0  0  0  0  0  0  0  0  0  0
   -5.3503  -10.1938   -5.7853 H   0  0  0  0  0  0  0  0  0  0  0  0
   -8.4201   -3.3936   -4.7601 H   0  0  0  0  0  0  0  0  0  0  0  0
  1  6  2  0
  1  2  1  0
  1 13  1  0
  2  3  2  0
  2 14  1  0
  3  9  1  0
  3  4  1  0
  4  5  2  0
  4  7  1  0
  5  6  1  0
  5 15  1  0
  6 22  1  0
  7  8  2  0
  8  9  1  0
  8 16  1  0
  9 10  1  0
 10 12  1  0
 10 11  1  0
 10 17  1  0
 11 12  1  0
 11 18  1  0
 11 19  1  0
 12 20  1  0
 12 21  1  0
M  CHG  1   6   1
M  END
>  <i_m_ct_stereo_status>  (254) 
1

>  <s_m_source_file>  (254) 
/var/tmp/pbs.5076255.sched01/tmptpdlle0r/921kky2sk3.sdf

>  <i_m_source_file_index>  (254) 
23

>  <i_lp_mmshare_version>  (254) 
48012

>  <i_f3d_flags>  (254) 
0

>  <s_epik_input>  (254) 
W2NIXTFbY0hdbltjSF1jKGMxMiluW2NIXW4yW0NIXTNbQ0gyXVtDSDJdMw==

>  <s_epik_cmdline>  (254) 
J2VwaWtfcHl0aG9uJywgJy1waHQnLCAnMi4wJywgJy1waCcsICc3LjAnLCAnLXRuJywgJzgnLCAnLW1hJywgJzIwMCcsICctaW1hZScsICc8aW5maWxlLm1hZT4nLCAnLW9tYWUnLCAnPG91dGZpbGUubWFlPic=

>  <r_lp_tautomer_probability>  (254) 
0.99991

>  <r_epik_Ionization_Penalty>  (254) 
0.72794

>  <r_epik_Ionization_Penalty_Charging>  (254) 
2.20198e-06

>  <r_epik_Ionization_Penalty_Neutral>  (254) 
0.727937

>  <r_epik_State_Penalty>  (254) 
0.752953

>  <r_epik_Charging_Adjusted_Penalty>  (254) 
0.752956

>  <i_epik_Tot_Q>  (254) 
1

>  <i_epik_Tot_abs_Q>  (254) 
1

>  <s_lp_Force_Field>  (254) 
OPLS3e

>  <r_lp_Energy>  (254) 
16.6944

>  <b_lp_Chiralities_Consistent>  (254) 
1

>  <s_lp_Variant>  (254) 
70:0-2

>  <s_i_glide_gridfile>  (254) 
pfpi4k_grid

>  <i_i_glide_lignum>  (254) 
23

>  <i_i_glide_rotatable_bonds>  (254) 
1

>  <r_i_docking_score>  (254) 
-7.03766

>  <r_i_glide_ligand_efficiency>  (254) 
-0.586472

>  <r_i_glide_ligand_efficiency_sa>  (254) 
-1.34269

>  <r_i_glide_ligand_efficiency_ln>  (254) 
-2.01947

>  <r_i_glide_gscore>  (254) 
-7.03766

>  <r_i_glide_lipo>  (254) 
-1.95925

>  <r_i_glide_hbond>  (254) 
-0.32

>  <r_i_glide_metal>  (254) 
-0

>  <r_i_glide_rewards>  (254) 
-3.79425

>  <r_i_glide_evdw>  (254) 
-21.4489

>  <r_i_glide_ecoul>  (254) 
-3.19663

>  <r_i_glide_erotb>  (254) 
0.58778

>  <r_i_glide_esite>  (254) 
0

>  <r_i_glide_emodel>  (254) 
-35.5964

>  <r_i_glide_energy>  (254) 
-24.6456

>  <r_i_glide_einternal>  (254) 
0.393782

>  <r_i_glide_intrahb_reward>  (254) 
-0

>  <i_i_glide_confnum>  (254) 
2

>  <i_i_glide_posenum>  (254) 
28

>  <r_i_glide_eff_state_penalty>  (254) 
0

>  <ligand_id>  (254) 
70

>  <original_smiles>  (254) 
c1cc2c(cn1)ncn2C1CC1

>  <smiles>  (254) 
[H]c1c([H])[n+]([H])c([H])c2nc([H])n(C3([H])C([H])([H])C3([H])[H])c12

$$$$
70:1:1
     RDKit          3D

 22 24  0  0  1  0  0  0  0  0999 V2000
   -4.5327   -8.8001   -5.0554 C   0  0  0  0  0  0  0  0  0  0  0  0
   -5.4097   -7.7021   -5.0293 C   0  0  0  0  0  0  0  0  0  0  0  0
   -6.3592   -7.5793   -6.0576 C   0  0  0  0  0  0  0  0  0  0  0  0
   -6.4126   -8.5368   -7.1125 C   0  0  0  0  0  0  0  0  0  0  0  0
   -5.4853   -9.6078   -7.0800 C   0  0  0  0  0  0  0  0  0  0  0  0
   -4.5955   -9.6952   -6.0612 N   0  0  0  0  0  0  0  0  0  0  0  0
   -7.4192   -8.2356   -8.0114 N   0  0  0  0  0  0  0  0  0  0  0  0
   -7.9438   -7.1340   -7.4775 C   0  0  0  0  0  0  0  0  0  0  0  0
   -7.3787   -6.6745   -6.3394 N   0  0  0  0  0  0  0  0  0  0  0  0
   -7.8114   -5.5481   -5.5353 C   0  0  0  0  0  0  0  0  0  0  0  0
   -7.9814   -4.2598   -6.3006 C   0  0  0  0  0  0  0  0  0  0  0  0
   -6.7886   -4.4502   -5.3805 C   0  0  0  0  0  0  0  0  0  0  0  0
   -3.7904   -8.9930   -4.2965 H   0  0  0  0  0  0  0  0  0  0  0  0
   -5.3979   -6.9955   -4.2156 H   0  0  0  0  0  0  0  0  0  0  0  0
   -5.4353  -10.3780   -7.8342 H   0  0  0  0  0  0  0  0  0  0  0  0
   -8.7947   -6.6436   -7.9343 H   0  0  0  0  0  0  0  0  0  0  0  0
   -8.4882   -5.8186   -4.7275 H   0  0  0  0  0  0  0  0  0  0  0  0
   -7.7855   -4.2510   -7.3710 H   0  0  0  0  0  0  0  0  0  0  0  0
   -8.7671   -3.5817   -5.9731 H   0  0  0  0  0  0  0  0  0  0  0  0
   -6.7825   -3.8950   -4.4447 H   0  0  0  0  0  0  0  0  0  0  0  0
   -5.8146   -4.5669   -5.8519 H   0  0  0  0  0  0  0  0  0  0  0  0
   -3.9295  -10.4690   -6.0505 H   0  0  0  0  0  0  0  0  0  0  0  0
  1  6  2  0
  1  2  1  0
  1 13  1  0
  2  3  2  0
  2 14  1  0
  3  9  1  0
  3  4  1  0
  4  5  2  0
  4  7  1  0
  5  6  1  0
  5 15  1  0
  6 22  1  0
  7  8  2  0
  8  9  1  0
  8 16  1  0
  9 10  1  0
 10 12  1  0
 10 11  1  0
 10 17  1  0
 11 12  1  0
 11 18  1  0
 11 19  1  0
 12 20  1  0
 12 21  1  0
M  CHG  1   6   1
M  END
>  <i_m_ct_stereo_status>  (255) 
1

>  <s_m_source_file>  (255) 
/var/tmp/pbs.5076255.sched01/tmptpdlle0r/921kky2sk3.sdf

>  <i_m_source_file_index>  (255) 
23

>  <i_lp_mmshare_version>  (255) 
48012

>  <i_f3d_flags>  (255) 
0

>  <s_epik_input>  (255) 
W2NIXTFbY0hdbltjSF1jKGMxMiluW2NIXW4yW0NIXTNbQ0gyXVtDSDJdMw==

>  <s_epik_cmdline>  (255) 
J2VwaWtfcHl0aG9uJywgJy1waHQnLCAnMi4wJywgJy1waCcsICc3LjAnLCAnLXRuJywgJzgnLCAnLW1hJywgJzIwMCcsICctaW1hZScsICc8aW5maWxlLm1hZT4nLCAnLW9tYWUnLCAnPG91dGZpbGUubWFlPic=

>  <r_lp_tautomer_probability>  (255) 
0.99991

>  <r_epik_Ionization_Penalty>  (255) 
0.72794

>  <r_epik_Ionization_Penalty_Charging>  (255) 
2.20198e-06

>  <r_epik_Ionization_Penalty_Neutral>  (255) 
0.727937

>  <r_epik_State_Penalty>  (255) 
0.752953

>  <r_epik_Charging_Adjusted_Penalty>  (255) 
0.752956

>  <i_epik_Tot_Q>  (255) 
1

>  <i_epik_Tot_abs_Q>  (255) 
1

>  <s_lp_Force_Field>  (255) 
OPLS3e

>  <r_lp_Energy>  (255) 
16.6944

>  <b_lp_Chiralities_Consistent>  (255) 
1

>  <s_lp_Variant>  (255) 
70:0-2

>  <s_i_glide_gridfile>  (255) 
pfpi4k_grid

>  <i_i_glide_lignum>  (255) 
23

>  <i_i_glide_rotatable_bonds>  (255) 
1

>  <r_i_docking_score>  (255) 
-5.43885

>  <r_i_glide_ligand_efficiency>  (255) 
-0.453238

>  <r_i_glide_ligand_efficiency_sa>  (255) 
-1.03766

>  <r_i_glide_ligand_efficiency_ln>  (255) 
-1.56069

>  <r_i_glide_gscore>  (255) 
-5.43885

>  <r_i_glide_lipo>  (255) 
-1.93393

>  <r_i_glide_hbond>  (255) 
0

>  <r_i_glide_metal>  (255) 
-0

>  <r_i_glide_rewards>  (255) 
-2.79223

>  <r_i_glide_evdw>  (255) 
-19.9964

>  <r_i_glide_ecoul>  (255) 
-2.00432

>  <r_i_glide_erotb>  (255) 
0.58778

>  <r_i_glide_esite>  (255) 
0

>  <r_i_glide_emodel>  (255) 
-30.6194

>  <r_i_glide_energy>  (255) 
-22.0007

>  <r_i_glide_einternal>  (255) 
0.00618231

>  <r_i_glide_intrahb_reward>  (255) 
-0

>  <i_i_glide_confnum>  (255) 
4

>  <i_i_glide_posenum>  (255) 
7

>  <r_i_glide_eff_state_penalty>  (255) 
0

>  <ligand_id>  (255) 
70

>  <original_smiles>  (255) 
c1cc2c(cn1)ncn2C1CC1

>  <smiles>  (255) 
[H]c1c([H])[n+]([H])c([H])c2nc([H])n(C3([H])C([H])([H])C3([H])[H])c12

$$$$
70:1:2
     RDKit          3D

 22 24  0  0  1  0  0  0  0  0999 V2000
   -4.6002   -8.1914   -5.0098 C   0  0  0  0  0  0  0  0  0  0  0  0
   -5.4597   -7.0901   -5.1970 C   0  0  0  0  0  0  0  0  0  0  0  0
   -6.5030   -7.2132   -6.1325 C   0  0  0  0  0  0  0  0  0  0  0  0
   -6.6780   -8.4221   -6.8687 C   0  0  0  0  0  0  0  0  0  0  0  0
   -5.7786   -9.4878   -6.6214 C   0  0  0  0  0  0  0  0  0  0  0  0
   -4.7902   -9.3304   -5.7105 N   0  0  0  0  0  0  0  0  0  0  0  0
   -7.7474   -8.3328   -7.7368 N   0  0  0  0  0  0  0  0  0  0  0  0
   -8.1845   -7.1000   -7.5012 C   0  0  0  0  0  0  0  0  0  0  0  0
   -7.5172   -6.3687   -6.5773 N   0  0  0  0  0  0  0  0  0  0  0  0
   -7.7736   -5.0034   -6.1316 C   0  0  0  0  0  0  0  0  0  0  0  0
   -9.2300   -4.6516   -5.9385 C   0  0  0  0  0  0  0  0  0  0  0  0
   -8.4715   -4.1092   -7.1336 C   0  0  0  0  0  0  0  0  0  0  0  0
   -3.7863   -8.2035   -4.3097 H   0  0  0  0  0  0  0  0  0  0  0  0
   -5.3299   -6.1789   -4.6344 H   0  0  0  0  0  0  0  0  0  0  0  0
   -5.8294  -10.4425   -7.1211 H   0  0  0  0  0  0  0  0  0  0  0  0
   -9.0503   -6.7225   -8.0274 H   0  0  0  0  0  0  0  0  0  0  0  0
   -7.0071   -4.6003   -5.4695 H   0  0  0  0  0  0  0  0  0  0  0  0
   -9.9821   -5.4178   -6.1233 H   0  0  0  0  0  0  0  0  0  0  0  0
   -9.4670   -3.9592   -5.1346 H   0  0  0  0  0  0  0  0  0  0  0  0
   -8.2027   -3.0576   -7.1203 H   0  0  0  0  0  0  0  0  0  0  0  0
   -8.7177   -4.5008   -8.1198 H   0  0  0  0  0  0  0  0  0  0  0  0
   -4.1557  -10.1118   -5.5323 H   0  0  0  0  0  0  0  0  0  0  0  0
  1  6  2  0
  1  2  1  0
  1 13  1  0
  2  3  2  0
  2 14  1  0
  3  9  1  0
  3  4  1  0
  4  5  2  0
  4  7  1  0
  5  6  1  0
  5 15  1  0
  6 22  1  0
  7  8  2  0
  8  9  1  0
  8 16  1  0
  9 10  1  0
 10 12  1  0
 10 11  1  0
 10 17  1  0
 11 12  1  0
 11 18  1  0
 11 19  1  0
 12 20  1  0
 12 21  1  0
M  CHG  1   6   1
M  END
>  <i_m_ct_stereo_status>  (256) 
1

>  <s_m_source_file>  (256) 
/var/tmp/pbs.5076255.sched01/tmptpdlle0r/921kky2sk3.sdf

>  <i_m_source_file_index>  (256) 
23

>  <i_lp_mmshare_version>  (256) 
48012

>  <i_f3d_flags>  (256) 
0

>  <s_epik_input>  (256) 
W2NIXTFbY0hdbltjSF1jKGMxMiluW2NIXW4yW0NIXTNbQ0gyXVtDSDJdMw==

>  <s_epik_cmdline>  (256) 
J2VwaWtfcHl0aG9uJywgJy1waHQnLCAnMi4wJywgJy1waCcsICc3LjAnLCAnLXRuJywgJzgnLCAnLW1hJywgJzIwMCcsICctaW1hZScsICc8aW5maWxlLm1hZT4nLCAnLW9tYWUnLCAnPG91dGZpbGUubWFlPic=

>  <r_lp_tautomer_probability>  (256) 
0.99991

>  <r_epik_Ionization_Penalty>  (256) 
0.72794

>  <r_epik_Ionization_Penalty_Charging>  (256) 
2.20198e-06

>  <r_epik_Ionization_Penalty_Neutral>  (256) 
0.727937

>  <r_epik_State_Penalty>  (256) 
0.752953

>  <r_epik_Charging_Adjusted_Penalty>  (256) 
0.752956

>  <i_epik_Tot_Q>  (256) 
1

>  <i_epik_Tot_abs_Q>  (256) 
1

>  <s_lp_Force_Field>  (256) 
OPLS3e

>  <r_lp_Energy>  (256) 
16.6944

>  <b_lp_Chiralities_Consistent>  (256) 
1

>  <s_lp_Variant>  (256) 
70:0-2

>  <s_i_glide_gridfile>  (256) 
pfpi4k_grid

>  <i_i_glide_lignum>  (256) 
23

>  <i_i_glide_rotatable_bonds>  (256) 
1

>  <r_i_docking_score>  (256) 
-5.31096

>  <r_i_glide_ligand_efficiency>  (256) 
-0.44258

>  <r_i_glide_ligand_efficiency_sa>  (256) 
-1.01325

>  <r_i_glide_ligand_efficiency_ln>  (256) 
-1.52399

>  <r_i_glide_gscore>  (256) 
-5.31096

>  <r_i_glide_lipo>  (256) 
-1.92383

>  <r_i_glide_hbond>  (256) 
0

>  <r_i_glide_metal>  (256) 
-0

>  <r_i_glide_rewards>  (256) 
-2.77479

>  <r_i_glide_evdw>  (256) 
-20.212

>  <r_i_glide_ecoul>  (256) 
-1.26346

>  <r_i_glide_erotb>  (256) 
0.58778

>  <r_i_glide_esite>  (256) 
0

>  <r_i_glide_emodel>  (256) 
-29.4034

>  <r_i_glide_energy>  (256) 
-21.4754

>  <r_i_glide_einternal>  (256) 
0.997395

>  <r_i_glide_intrahb_reward>  (256) 
-0

>  <i_i_glide_confnum>  (256) 
5

>  <i_i_glide_posenum>  (256) 
4

>  <r_i_glide_eff_state_penalty>  (256) 
0

>  <ligand_id>  (256) 
70

>  <original_smiles>  (256) 
c1cc2c(cn1)ncn2C1CC1

>  <smiles>  (256) 
[H]c1c([H])[n+]([H])c([H])c2nc([H])n(C3([H])C([H])([H])C3([H])[H])c12

$$$$
71:0:0
     RDKit          3D

 69 73  0  0  1  0  0  0  0  0999 V2000
    5.2008   -3.0751    3.1268 C   0  0  0  0  0  0  0  0  0  0  0  0
    4.1497   -3.4281    3.9101 C   0  0  0  0  0  0  0  0  0  0  0  0
    3.2331   -2.2681    4.2834 C   0  0  0  0  0  0  0  0  0  0  0  0
    3.9517   -4.9248    4.3883 C   0  0  1  0  0  0  0  0  0  0  0  0
    5.2419   -5.2546    5.2259 C   0  0  0  0  0  0  0  0  0  0  0  0
    5.0438   -6.2499    6.3906 C   0  0  0  0  0  0  0  0  0  0  0  0
    3.9884   -7.3266    6.0539 C   0  0  2  0  0  0  0  0  0  0  0  0
    4.3709   -7.8931    4.7023 C   0  0  1  0  0  0  0  0  0  0  0  0
    4.4926   -9.3132    4.8507 O   0  0  0  0  0  0  0  0  0  0  0  0
    3.6211   -7.2959    3.4238 C   0  0  1  0  0  0  0  0  0  0  0  0
    4.2486   -8.2564    2.3150 C   0  0  0  0  0  0  0  0  0  0  0  0
    5.6866   -8.3170    2.2744 O   0  0  0  0  0  0  0  0  0  0  0  0
    6.4502   -7.4540    1.5861 C   0  0  0  0  0  0  0  0  0  0  0  0
    7.8901   -7.8621    1.4825 C   0  0  0  0  0  0  0  0  0  0  0  0
    6.0907   -6.3840    1.0299 O   0  0  0  0  0  0  0  0  0  0  0  0
    2.1117   -6.3608    3.4522 C   0  0  1  0  0  0  0  0  0  0  0  0
    1.6600   -5.2010    4.3062 C   0  0  0  0  0  0  0  0  0  0  0  0
    2.6560   -5.2348    5.3854 C   0  0  2  0  0  0  0  0  0  0  0  0
    2.3132   -4.1523    6.4595 C   0  0  0  0  0  0  0  0  0  0  0  0
    2.5455   -6.7800    6.0309 C   0  0  2  0  0  0  0  0  0  0  0  0
    2.3234   -6.6207    7.4468 O   0  0  0  0  0  0  0  0  0  0  0  0
    1.4098   -7.9034    5.5945 C   0  0  0  0  0  0  0  0  0  0  0  0
    0.3697   -7.9498    6.2526 O   0  0  0  0  0  0  0  0  0  0  0  0
    1.4556   -8.9383    4.3132 C   0  0  0  0  0  0  0  0  0  0  0  0
    0.9916   -8.7135    2.7348 C   0  0  1  0  0  0  0  0  0  0  0  0
   -0.5628   -8.7590    2.7194 C   0  0  0  0  0  0  0  0  0  0  0  0
   -1.0934   -7.5071    3.1453 O   0  0  0  0  0  0  0  0  0  0  0  0
   -2.1451   -7.6424    4.0706 C   0  0  0  0  0  0  0  0  0  0  0  0
    1.6220   -7.5997    1.6277 C   0  0  1  0  0  0  0  0  0  0  0  0
    0.5457   -7.2043    0.7921 O   0  0  0  0  0  0  0  0  0  0  0  0
    2.4662   -6.2449    2.1075 C   0  0  1  0  0  0  0  0  0  0  0  0
    2.0001   -5.1094    1.3789 O   0  0  0  0  0  0  0  0  0  0  0  0
    3.8088   -5.8756    3.0690 C   0  0  1  0  0  0  0  0  0  0  0  0
    5.2909   -2.0365    2.8448 H   0  0  0  0  0  0  0  0  0  0  0  0
    5.9655   -3.7346    2.7577 H   0  0  0  0  0  0  0  0  0  0  0  0
    2.1662   -2.5009    4.1852 H   0  0  0  0  0  0  0  0  0  0  0  0
    3.4065   -1.3806    3.6601 H   0  0  0  0  0  0  0  0  0  0  0  0
    3.4743   -1.9894    5.3225 H   0  0  0  0  0  0  0  0  0  0  0  0
    6.0167   -5.6435    4.5508 H   0  0  0  0  0  0  0  0  0  0  0  0
    5.7053   -4.3635    5.6342 H   0  0  0  0  0  0  0  0  0  0  0  0
    5.9867   -6.7343    6.6419 H   0  0  0  0  0  0  0  0  0  0  0  0
    4.7663   -5.7061    7.2907 H   0  0  0  0  0  0  0  0  0  0  0  0
    4.0596   -8.1098    6.8212 H   0  0  0  0  0  0  0  0  0  0  0  0
    5.4293   -7.7004    4.5562 H   0  0  0  0  0  0  0  0  0  0  0  0
    3.6626   -9.6905    5.0389 H   0  0  0  0  0  0  0  0  0  0  0  0
    3.8696   -9.2717    2.4897 H   0  0  0  0  0  0  0  0  0  0  0  0
    3.9722   -8.0256    1.2767 H   0  0  0  0  0  0  0  0  0  0  0  0
    7.9410   -8.6736    0.7564 H   0  0  0  0  0  0  0  0  0  0  0  0
    8.3354   -8.1483    2.4495 H   0  0  0  0  0  0  0  0  0  0  0  0
    8.4610   -7.0369    1.0587 H   0  0  0  0  0  0  0  0  0  0  0  0
    1.0818   -6.6854    3.4706 H   0  0  0  0  0  0  0  0  0  0  0  0
    1.6239   -4.2954    3.6967 H   0  0  0  0  0  0  0  0  0  0  0  0
    0.6349   -5.3067    4.7285 H   0  0  0  0  0  0  0  0  0  0  0  0
    1.4413   -4.4741    7.0408 H   0  0  0  0  0  0  0  0  0  0  0  0
    1.9923   -3.1846    6.0488 H   0  0  0  0  0  0  0  0  0  0  0  0
    3.1806   -3.9978    7.1255 H   0  0  0  0  0  0  0  0  0  0  0  0
    2.9179   -5.9886    7.7515 H   0  0  0  0  0  0  0  0  0  0  0  0
    2.3814   -9.4724    4.2825 H   0  0  0  0  0  0  0  0  0  0  0  0
    0.8057   -9.7368    4.6725 H   0  0  0  0  0  0  0  0  0  0  0  0
    1.2691   -9.6635    2.2815 H   0  0  0  0  0  0  0  0  0  0  0  0
   -0.9441   -8.9881    1.7248 H   0  0  0  0  0  0  0  0  0  0  0  0
   -0.9041   -9.5929    3.3413 H   0  0  0  0  0  0  0  0  0  0  0  0
   -2.4942   -6.6552    4.3772 H   0  0  0  0  0  0  0  0  0  0  0  0
   -1.7963   -8.1682    4.9582 H   0  0  0  0  0  0  0  0  0  0  0  0
   -2.9817   -8.2002    3.6528 H   0  0  0  0  0  0  0  0  0  0  0  0
    2.1589   -8.1806    0.8773 H   0  0  0  0  0  0  0  0  0  0  0  0
    0.2182   -7.9825    0.3618 H   0  0  0  0  0  0  0  0  0  0  0  0
    2.6358   -4.4184    1.5156 H   0  0  0  0  0  0  0  0  0  0  0  0
    4.6689   -5.6716    2.4131 H   0  0  0  0  0  0  0  0  0  0  0  0
  1  2  2  0
  1 34  1  0
  1 35  1  0
  2  3  1  0
  4  2  1  6
  3 36  1  0
  3 37  1  0
  3 38  1  0
  4 18  1  0
  4 33  1  0
  4  5  1  0
  5  6  1  0
  5 39  1  0
  5 40  1  0
  6  7  1  0
  6 41  1  0
  6 42  1  0
  7 20  1  0
  7  8  1  0
  7 43  1  1
  8  9  1  0
  8 10  1  0
  8 44  1  6
  9 45  1  0
 10 33  1  0
 10 11  1  6
 10 16  1  0
 11 12  1  0
 11 46  1  0
 11 47  1  0
 12 13  1  0
 13 14  1  0
 13 15  2  0
 14 48  1  0
 14 49  1  0
 14 50  1  0
 16 31  1  0
 16 17  1  0
 16 51  1  6
 17 18  1  0
 17 52  1  0
 17 53  1  0
 18 19  1  1
 18 20  1  0
 19 54  1  0
 19 55  1  0
 19 56  1  0
 20 21  1  1
 20 22  1  0
 21 57  1  0
 22 23  2  0
 22 24  1  0
 24 25  1  0
 24 58  1  0
 24 59  1  0
 25 26  1  0
 25 29  1  0
 25 60  1  6
 26 27  1  0
 26 61  1  0
 26 62  1  0
 27 28  1  0
 28 63  1  0
 28 64  1  0
 28 65  1  0
 29 30  1  0
 29 31  1  0
 29 66  1  6
 30 67  1  0
 31 32  1  6
 31 33  1  0
 32 68  1  0
 33 69  1  6
M  END
>  <i_m_ct_stereo_status>  (257) 
1

>  <s_m_source_file>  (257) 
/var/tmp/pbs.5076255.sched01/tmptpdlle0r/921kky2sk3.sdf

>  <i_m_source_file_index>  (257) 
24

>  <i_lp_mmshare_version>  (257) 
48012

>  <i_f3d_flags>  (257) 
0

>  <s_epik_input>  (257) 
W0NIMl09QyhbQ0gzXSlbQ0BdMTJbQ0BdMyhbQ0gzXSlbQ0BdNChbT0hdKVtDQEhdKFtDSDJdW0NIMl0xKVtDQEBIXShbT0hdKVtDQEBdNShbQ0gyXU9DKD1PKVtDSDNdKVtDQEBIXShbQ0gyXTMpW0NAQF0oW09IXSkoW0NAQEhdMjUpW0NASF0oW09IXSlbQ0BASF0oW0NIMl1DND1PKVtDSDJdT1tDSDNd

>  <s_epik_cmdline>  (257) 
J2VwaWtfcHl0aG9uJywgJy1waHQnLCAnMi4wJywgJy1waCcsICc3LjAnLCAnLXRuJywgJzgnLCAnLW1hJywgJzIwMCcsICctaW1hZScsICc8aW5maWxlLm1hZT4nLCAnLW9tYWUnLCAnPG91dGZpbGUubWFlPic=

>  <r_lp_tautomer_probability>  (257) 
1

>  <r_epik_Ionization_Penalty>  (257) 
5.42538e-07

>  <r_epik_Ionization_Penalty_Charging>  (257) 
0

>  <r_epik_Ionization_Penalty_Neutral>  (257) 
5.42538e-07

>  <r_epik_State_Penalty>  (257) 
-0

>  <r_epik_Charging_Adjusted_Penalty>  (257) 
0

>  <i_epik_Tot_Q>  (257) 
0

>  <i_epik_Tot_abs_Q>  (257) 
0

>  <s_epik_Chemistry_Notes>  (257) 
This compound has an ester and may undergo hydrolysis at high or low pH.

>  <s_lp_Force_Field>  (257) 
OPLS3e

>  <r_lp_Energy>  (257) 
339.958

>  <b_lp_Chiralities_Consistent>  (257) 
1

>  <s_lp_Variant>  (257) 
71:0-1

>  <s_i_glide_gridfile>  (257) 
pfpi4k_grid

>  <i_i_glide_lignum>  (257) 
24

>  <i_i_glide_rotatable_bonds>  (257) 
10

>  <r_i_docking_score>  (257) 
-2.11949

>  <r_i_glide_ligand_efficiency>  (257) 
-0.0642269

>  <r_i_glide_ligand_efficiency_sa>  (257) 
-0.20601

>  <r_i_glide_ligand_efficiency_ln>  (257) 
-0.471363

>  <r_i_glide_gscore>  (257) 
-2.11949

>  <r_i_glide_lipo>  (257) 
-0.0500278

>  <r_i_glide_hbond>  (257) 
0

>  <r_i_glide_metal>  (257) 
-0

>  <r_i_glide_rewards>  (257) 
-0.367083

>  <r_i_glide_evdw>  (257) 
-18.6781

>  <r_i_glide_ecoul>  (257) 
-7.53905

>  <r_i_glide_erotb>  (257) 
0.373675

>  <r_i_glide_esite>  (257) 
-0.011286

>  <r_i_glide_emodel>  (257) 
-22.4757

>  <r_i_glide_energy>  (257) 
-26.2172

>  <r_i_glide_einternal>  (257) 
9.98905

>  <r_i_glide_intrahb_reward>  (257) 
-0

>  <i_i_glide_confnum>  (257) 
2

>  <i_i_glide_posenum>  (257) 
1

>  <r_i_glide_eff_state_penalty>  (257) 
0

>  <ligand_id>  (257) 
71

>  <original_smiles>  (257) 
C=C(C)C12CCC3C(O)C4(COC(C)=O)C5CC1(C)C3(O)C(=O)CC(COC)C(O)C5(O)C42

>  <smiles>  (257) 
[H]OC1([H])C([H])(C([H])([H])OC([H])([H])[H])C([H])([H])C(=O)C2(O[H])C3([H])C([H])([H])C([H])([H])C4(C(=C([H])[H])C([H])([H])[H])C5([H])C1(O[H])C([H])(C([H])([H])C24C([H])([H])[H])C5(C([H])([H])OC(=O)C([H])([H])[H])C3([H])O[H]

$$$$
71:0:1
     RDKit          3D

 69 73  0  0  1  0  0  0  0  0999 V2000
    4.0111   -5.5696    7.6290 C   0  0  0  0  0  0  0  0  0  0  0  0
    2.7883   -6.1266    7.6854 C   0  0  0  0  0  0  0  0  0  0  0  0
    1.9810   -5.8378    8.9618 C   0  0  0  0  0  0  0  0  0  0  0  0
    2.2102   -7.0735    6.5619 C   0  0  1  0  0  0  0  0  0  0  0  0
    1.6043   -8.3134    7.3193 C   0  0  0  0  0  0  0  0  0  0  0  0
    0.3237   -8.9055    6.6903 C   0  0  0  0  0  0  0  0  0  0  0  0
    0.3433   -8.8283    5.1486 C   0  0  2  0  0  0  0  0  0  0  0  0
    1.6808   -9.3830    4.7262 C   0  0  1  0  0  0  0  0  0  0  0  0
    1.4388  -10.4535    3.8104 O   0  0  0  0  0  0  0  0  0  0  0  0
    2.8503   -8.3270    4.4317 C   0  0  1  0  0  0  0  0  0  0  0  0
    3.9745   -9.3559    3.9236 C   0  0  0  0  0  0  0  0  0  0  0  0
    4.1268  -10.6211    4.5881 O   0  0  0  0  0  0  0  0  0  0  0  0
    4.5324  -10.7403    5.8628 C   0  0  0  0  0  0  0  0  0  0  0  0
    4.4871  -12.1965    6.3259 C   0  0  0  0  0  0  0  0  0  0  0  0
    4.8893   -9.8568    6.6182 O   0  0  0  0  0  0  0  0  0  0  0  0
    2.6446   -6.6055    4.1073 C   0  0  1  0  0  0  0  0  0  0  0  0
    1.8235   -5.5540    4.8520 C   0  0  0  0  0  0  0  0  0  0  0  0
    0.9858   -6.4172    5.6692 C   0  0  2  0  0  0  0  0  0  0  0  0
    0.0352   -5.4774    6.4664 C   0  0  0  0  0  0  0  0  0  0  0  0
    0.1510   -7.4022    4.6069 C   0  0  2  0  0  0  0  0  0  0  0  0
   -1.2293   -7.1811    4.8549 O   0  0  0  0  0  0  0  0  0  0  0  0
    0.2813   -7.3076    2.9534 C   0  0  0  0  0  0  0  0  0  0  0  0
   -0.5872   -6.6552    2.3443 O   0  0  0  0  0  0  0  0  0  0  0  0
    1.4304   -7.9516    1.9906 C   0  0  0  0  0  0  0  0  0  0  0  0
    2.8988   -7.3461    1.5332 C   0  0  1  0  0  0  0  0  0  0  0  0
    2.6232   -6.2425    0.4817 C   0  0  0  0  0  0  0  0  0  0  0  0
    2.4313   -4.9675    1.0800 O   0  0  0  0  0  0  0  0  0  0  0  0
    2.5976   -3.9001    0.1596 C   0  0  0  0  0  0  0  0  0  0  0  0
    4.2130   -6.9761    2.5331 C   0  0  1  0  0  0  0  0  0  0  0  0
    4.9409   -5.9014    1.9349 O   0  0  0  0  0  0  0  0  0  0  0  0
    4.0197   -6.6520    4.1605 C   0  0  1  0  0  0  0  0  0  0  0  0
    4.7207   -5.4653    4.4719 O   0  0  0  0  0  0  0  0  0  0  0  0
    3.4342   -7.5086    5.5089 C   0  0  1  0  0  0  0  0  0  0  0  0
    4.3417   -4.9204    8.4252 H   0  0  0  0  0  0  0  0  0  0  0  0
    4.7266   -5.7320    6.8367 H   0  0  0  0  0  0  0  0  0  0  0  0
    0.9131   -5.6623    8.8176 H   0  0  0  0  0  0  0  0  0  0  0  0
    2.3833   -4.9609    9.4781 H   0  0  0  0  0  0  0  0  0  0  0  0
    2.0826   -6.6689    9.6596 H   0  0  0  0  0  0  0  0  0  0  0  0
    2.3791   -9.0725    7.4198 H   0  0  0  0  0  0  0  0  0  0  0  0
    1.3191   -8.1273    8.3442 H   0  0  0  0  0  0  0  0  0  0  0  0
    0.2162   -9.9449    7.0125 H   0  0  0  0  0  0  0  0  0  0  0  0
   -0.5527   -8.4033    7.0962 H   0  0  0  0  0  0  0  0  0  0  0  0
   -0.4608   -9.4707    4.7861 H   0  0  0  0  0  0  0  0  0  0  0  0
    2.0178  -10.0211    5.5419 H   0  0  0  0  0  0  0  0  0  0  0  0
    1.0491  -10.1285    3.0150 H   0  0  0  0  0  0  0  0  0  0  0  0
    3.7509   -9.6011    2.8839 H   0  0  0  0  0  0  0  0  0  0  0  0
    4.9750   -8.9244    3.9201 H   0  0  0  0  0  0  0  0  0  0  0  0
    5.1839  -12.8232    5.7618 H   0  0  0  0  0  0  0  0  0  0  0  0
    3.4816  -12.6141    6.2291 H   0  0  0  0  0  0  0  0  0  0  0  0
    4.7561  -12.2402    7.3755 H   0  0  0  0  0  0  0  0  0  0  0  0
    2.3836   -6.0704    3.2108 H   0  0  0  0  0  0  0  0  0  0  0  0
    2.4288   -4.8547    5.4363 H   0  0  0  0  0  0  0  0  0  0  0  0
    1.2014   -4.9136    4.2069 H   0  0  0  0  0  0  0  0  0  0  0  0
   -0.6884   -4.9728    5.8180 H   0  0  0  0  0  0  0  0  0  0  0  0
    0.5927   -4.6747    6.9448 H   0  0  0  0  0  0  0  0  0  0  0  0
   -0.5223   -6.0296    7.2250 H   0  0  0  0  0  0  0  0  0  0  0  0
   -1.6988   -7.9380    4.5375 H   0  0  0  0  0  0  0  0  0  0  0  0
    1.5914   -8.9882    2.1997 H   0  0  0  0  0  0  0  0  0  0  0  0
    0.8896   -8.0631    1.0515 H   0  0  0  0  0  0  0  0  0  0  0  0
    3.3047   -8.1619    0.9368 H   0  0  0  0  0  0  0  0  0  0  0  0
    3.4500   -6.2253   -0.2354 H   0  0  0  0  0  0  0  0  0  0  0  0
    1.7147   -6.4429   -0.0802 H   0  0  0  0  0  0  0  0  0  0  0  0
    2.4942   -2.9540    0.6874 H   0  0  0  0  0  0  0  0  0  0  0  0
    1.8461   -3.9376   -0.6284 H   0  0  0  0  0  0  0  0  0  0  0  0
    3.5865   -3.9126   -0.3036 H   0  0  0  0  0  0  0  0  0  0  0  0
    4.9762   -7.7301    2.3779 H   0  0  0  0  0  0  0  0  0  0  0  0
    5.1385   -6.1076    1.0358 H   0  0  0  0  0  0  0  0  0  0  0  0
    4.5326   -5.2758    5.3712 H   0  0  0  0  0  0  0  0  0  0  0  0
    4.2807   -7.9090    6.0080 H   0  0  0  0  0  0  0  0  0  0  0  0
  1  2  2  0
  1 34  1  0
  1 35  1  0
  2  3  1  0
  4  2  1  1
  3 36  1  0
  3 37  1  0
  3 38  1  0
  4 18  1  0
  4 33  1  0
  4  5  1  0
  5  6  1  0
  5 39  1  0
  5 40  1  0
  6  7  1  0
  6 41  1  0
  6 42  1  0
  7 20  1  0
  7  8  1  0
  7 43  1  6
  8  9  1  0
  8 10  1  0
  8 44  1  1
  9 45  1  0
 10 33  1  0
 10 11  1  6
 10 16  1  0
 11 12  1  0
 11 46  1  0
 11 47  1  0
 12 13  1  0
 13 14  1  0
 13 15  2  0
 14 48  1  0
 14 49  1  0
 14 50  1  0
 16 31  1  0
 16 17  1  0
 16 51  1  6
 17 18  1  0
 17 52  1  0
 17 53  1  0
 18 19  1  1
 18 20  1  0
 19 54  1  0
 19 55  1  0
 19 56  1  0
 20 21  1  6
 20 22  1  0
 21 57  1  0
 22 23  2  0
 22 24  1  0
 24 25  1  0
 24 58  1  0
 24 59  1  0
 25 26  1  0
 25 29  1  0
 25 60  1  6
 26 27  1  0
 26 61  1  0
 26 62  1  0
 27 28  1  0
 28 63  1  0
 28 64  1  0
 28 65  1  0
 29 30  1  0
 29 31  1  0
 29 66  1  1
 30 67  1  0
 31 32  1  1
 31 33  1  0
 32 68  1  0
 33 69  1  1
M  END
>  <i_m_ct_stereo_status>  (258) 
1

>  <s_m_source_file>  (258) 
/var/tmp/pbs.5076255.sched01/tmptpdlle0r/921kky2sk3.sdf

>  <i_m_source_file_index>  (258) 
24

>  <i_lp_mmshare_version>  (258) 
48012

>  <i_f3d_flags>  (258) 
0

>  <s_epik_input>  (258) 
W0NIMl09QyhbQ0gzXSlbQ0BdMTJbQ0BdMyhbQ0gzXSlbQ0BdNChbT0hdKVtDQEhdKFtDSDJdW0NIMl0xKVtDQEBIXShbT0hdKVtDQEBdNShbQ0gyXU9DKD1PKVtDSDNdKVtDQEBIXShbQ0gyXTMpW0NAQF0oW09IXSkoW0NAQEhdMjUpW0NASF0oW09IXSlbQ0BASF0oW0NIMl1DND1PKVtDSDJdT1tDSDNd

>  <s_epik_cmdline>  (258) 
J2VwaWtfcHl0aG9uJywgJy1waHQnLCAnMi4wJywgJy1waCcsICc3LjAnLCAnLXRuJywgJzgnLCAnLW1hJywgJzIwMCcsICctaW1hZScsICc8aW5maWxlLm1hZT4nLCAnLW9tYWUnLCAnPG91dGZpbGUubWFlPic=

>  <r_lp_tautomer_probability>  (258) 
1

>  <r_epik_Ionization_Penalty>  (258) 
5.42538e-07

>  <r_epik_Ionization_Penalty_Charging>  (258) 
0

>  <r_epik_Ionization_Penalty_Neutral>  (258) 
5.42538e-07

>  <r_epik_State_Penalty>  (258) 
-0

>  <r_epik_Charging_Adjusted_Penalty>  (258) 
0

>  <i_epik_Tot_Q>  (258) 
0

>  <i_epik_Tot_abs_Q>  (258) 
0

>  <s_epik_Chemistry_Notes>  (258) 
This compound has an ester and may undergo hydrolysis at high or low pH.

>  <s_lp_Force_Field>  (258) 
OPLS3e

>  <r_lp_Energy>  (258) 
339.958

>  <b_lp_Chiralities_Consistent>  (258) 
1

>  <s_lp_Variant>  (258) 
71:0-1

>  <s_i_glide_gridfile>  (258) 
pfpi4k_grid

>  <i_i_glide_lignum>  (258) 
24

>  <i_i_glide_rotatable_bonds>  (258) 
10

>  <r_i_docking_score>  (258) 
-1.89696

>  <r_i_glide_ligand_efficiency>  (258) 
-0.0574835

>  <r_i_glide_ligand_efficiency_sa>  (258) 
-0.18438

>  <r_i_glide_ligand_efficiency_ln>  (258) 
-0.421873

>  <r_i_glide_gscore>  (258) 
-1.89696

>  <r_i_glide_lipo>  (258) 
-0.0360327

>  <r_i_glide_hbond>  (258) 
-0.16

>  <r_i_glide_metal>  (258) 
-0

>  <r_i_glide_rewards>  (258) 
-0.241714

>  <r_i_glide_evdw>  (258) 
-18.0621

>  <r_i_glide_ecoul>  (258) 
-5.73632

>  <r_i_glide_erotb>  (258) 
0.373675

>  <r_i_glide_esite>  (258) 
-0.0693289

>  <r_i_glide_emodel>  (258) 
-23.0042

>  <r_i_glide_energy>  (258) 
-23.7985

>  <r_i_glide_einternal>  (258) 
5.89065

>  <r_i_glide_intrahb_reward>  (258) 
-0

>  <i_i_glide_confnum>  (258) 
1

>  <i_i_glide_posenum>  (258) 
8

>  <r_i_glide_eff_state_penalty>  (258) 
0

>  <ligand_id>  (258) 
71

>  <original_smiles>  (258) 
C=C(C)C12CCC3C(O)C4(COC(C)=O)C5CC1(C)C3(O)C(=O)CC(COC)C(O)C5(O)C42

>  <smiles>  (258) 
[H]OC1([H])C([H])(C([H])([H])OC([H])([H])[H])C([H])([H])C(=O)C2(O[H])C3([H])C([H])([H])C([H])([H])C4(C(=C([H])[H])C([H])([H])[H])C5([H])C1(O[H])C([H])(C([H])([H])C24C([H])([H])[H])C5(C([H])([H])OC(=O)C([H])([H])[H])C3([H])O[H]

$$$$
71:0:2
     RDKit          3D

 69 73  0  0  1  0  0  0  0  0999 V2000
    0.1308   -8.9335    5.1840 C   0  0  0  0  0  0  0  0  0  0  0  0
    1.1517   -9.6209    4.6301 C   0  0  0  0  0  0  0  0  0  0  0  0
    0.9505  -11.1432    4.4885 C   0  0  0  0  0  0  0  0  0  0  0  0
    2.5133   -8.9435    4.2136 C   0  0  1  0  0  0  0  0  0  0  0  0
    3.6349   -9.8463    4.8284 C   0  0  0  0  0  0  0  0  0  0  0  0
    4.9113   -9.9761    3.9644 C   0  0  0  0  0  0  0  0  0  0  0  0
    5.2388   -8.6612    3.2277 C   0  0  2  0  0  0  0  0  0  0  0  0
    5.1670   -7.5647    4.2709 C   0  0  1  0  0  0  0  0  0  0  0  0
    6.4124   -6.8704    4.2530 O   0  0  0  0  0  0  0  0  0  0  0  0
    3.8026   -6.7354    4.3442 C   0  0  1  0  0  0  0  0  0  0  0  0
    4.2495   -5.6509    5.4339 C   0  0  0  0  0  0  0  0  0  0  0  0
    4.8639   -6.1800    6.6179 O   0  0  0  0  0  0  0  0  0  0  0  0
    4.1463   -6.4182    7.7320 C   0  0  0  0  0  0  0  0  0  0  0  0
    5.0205   -6.9180    8.8746 C   0  0  0  0  0  0  0  0  0  0  0  0
    2.9438   -6.2455    7.8714 O   0  0  0  0  0  0  0  0  0  0  0  0
    2.5430   -6.6598    3.1152 C   0  0  1  0  0  0  0  0  0  0  0  0
    1.8647   -7.7745    2.3262 C   0  0  0  0  0  0  0  0  0  0  0  0
    2.7853   -8.8667    2.5931 C   0  0  2  0  0  0  0  0  0  0  0  0
    2.2479  -10.0770    1.7888 C   0  0  0  0  0  0  0  0  0  0  0  0
    4.2883   -8.3782    2.0517 C   0  0  2  0  0  0  0  0  0  0  0  0
    4.7308   -9.3384    1.0903 O   0  0  0  0  0  0  0  0  0  0  0  0
    4.5718   -6.9220    1.3038 C   0  0  0  0  0  0  0  0  0  0  0  0
    4.6096   -6.9047    0.0852 O   0  0  0  0  0  0  0  0  0  0  0  0
    4.7992   -5.4637    2.0126 C   0  0  0  0  0  0  0  0  0  0  0  0
    3.7036   -4.3151    2.4751 C   0  0  1  0  0  0  0  0  0  0  0  0
    3.2066   -3.6273    1.1708 C   0  0  0  0  0  0  0  0  0  0  0  0
    2.3790   -4.5114    0.4298 O   0  0  0  0  0  0  0  0  0  0  0  0
    2.0880   -4.0273   -0.8694 C   0  0  0  0  0  0  0  0  0  0  0  0
    2.5066   -4.4675    3.6515 C   0  0  1  0  0  0  0  0  0  0  0  0
    1.4132   -3.6597    3.2584 O   0  0  0  0  0  0  0  0  0  0  0  0
    1.9121   -5.9604    4.1274 C   0  0  1  0  0  0  0  0  0  0  0  0
    0.5015   -5.9096    4.1059 O   0  0  0  0  0  0  0  0  0  0  0  0
    2.5655   -7.3849    4.8090 C   0  0  1  0  0  0  0  0  0  0  0  0
   -0.7854   -9.4505    5.4347 H   0  0  0  0  0  0  0  0  0  0  0  0
    0.1339   -7.8869    5.4174 H   0  0  0  0  0  0  0  0  0  0  0  0
    1.3459  -11.6110    3.5854 H   0  0  0  0  0  0  0  0  0  0  0  0
   -0.1120  -11.3928    4.5407 H   0  0  0  0  0  0  0  0  0  0  0  0
    1.4102  -11.6524    5.3386 H   0  0  0  0  0  0  0  0  0  0  0  0
    3.8652   -9.4741    5.8256 H   0  0  0  0  0  0  0  0  0  0  0  0
    3.3461  -10.8762    5.0113 H   0  0  0  0  0  0  0  0  0  0  0  0
    5.7471  -10.2609    4.6077 H   0  0  0  0  0  0  0  0  0  0  0  0
    4.7950  -10.7967    3.2578 H   0  0  0  0  0  0  0  0  0  0  0  0
    6.2589   -8.7494    2.8479 H   0  0  0  0  0  0  0  0  0  0  0  0
    5.3192   -8.0388    5.2395 H   0  0  0  0  0  0  0  0  0  0  0  0
    6.5554   -6.5041    3.3956 H   0  0  0  0  0  0  0  0  0  0  0  0
    4.9475   -4.9605    4.9652 H   0  0  0  0  0  0  0  0  0  0  0  0
    3.4415   -5.0365    5.8157 H   0  0  0  0  0  0  0  0  0  0  0  0
    5.7015   -6.1288    9.1981 H   0  0  0  0  0  0  0  0  0  0  0  0
    5.6021   -7.7847    8.5596 H   0  0  0  0  0  0  0  0  0  0  0  0
    4.3947   -7.2063    9.7171 H   0  0  0  0  0  0  0  0  0  0  0  0
    2.4511   -6.0633    2.2291 H   0  0  0  0  0  0  0  0  0  0  0  0
    0.8389   -7.9794    2.6334 H   0  0  0  0  0  0  0  0  0  0  0  0
    1.8089   -7.5871    1.2453 H   0  0  0  0  0  0  0  0  0  0  0  0
    2.3521   -9.9176    0.7113 H   0  0  0  0  0  0  0  0  0  0  0  0
    1.1796  -10.2253    1.9610 H   0  0  0  0  0  0  0  0  0  0  0  0
    2.7702  -10.9951    2.0650 H   0  0  0  0  0  0  0  0  0  0  0  0
    4.4352  -10.1980    1.3504 H   0  0  0  0  0  0  0  0  0  0  0  0
    5.5361   -5.5008    2.7833 H   0  0  0  0  0  0  0  0  0  0  0  0
    5.3797   -4.9601    1.2400 H   0  0  0  0  0  0  0  0  0  0  0  0
    4.3389   -3.5512    2.9229 H   0  0  0  0  0  0  0  0  0  0  0  0
    2.6863   -2.6906    1.3784 H   0  0  0  0  0  0  0  0  0  0  0  0
    4.0701   -3.3407    0.5659 H   0  0  0  0  0  0  0  0  0  0  0  0
    1.4141   -4.7213   -1.3708 H   0  0  0  0  0  0  0  0  0  0  0  0
    2.9939   -3.9296   -1.4697 H   0  0  0  0  0  0  0  0  0  0  0  0
    1.5959   -3.0529   -0.8327 H   0  0  0  0  0  0  0  0  0  0  0  0
    2.8044   -3.8752    4.5104 H   0  0  0  0  0  0  0  0  0  0  0  0
    1.7026   -2.7721    3.1151 H   0  0  0  0  0  0  0  0  0  0  0  0
    0.2106   -6.7739    4.3248 H   0  0  0  0  0  0  0  0  0  0  0  0
    2.4434   -7.3835    5.8877 H   0  0  0  0  0  0  0  0  0  0  0  0
  1  2  2  0
  1 34  1  0
  1 35  1  0
  2  3  1  0
  4  2  1  6
  3 36  1  0
  3 37  1  0
  3 38  1  0
  4 18  1  0
  4 33  1  0
  4  5  1  0
  5  6  1  0
  5 39  1  0
  5 40  1  0
  6  7  1  0
  6 41  1  0
  6 42  1  0
  7 20  1  0
  7  8  1  0
  7 43  1  6
  8  9  1  0
  8 10  1  0
  8 44  1  1
  9 45  1  0
 10 33  1  0
 10 11  1  1
 10 16  1  0
 11 12  1  0
 11 46  1  0
 11 47  1  0
 12 13  1  0
 13 14  1  0
 13 15  2  0
 14 48  1  0
 14 49  1  0
 14 50  1  0
 16 31  1  0
 16 17  1  0
 16 51  1  6
 17 18  1  0
 17 52  1  0
 17 53  1  0
 18 19  1  6
 18 20  1  0
 19 54  1  0
 19 55  1  0
 19 56  1  0
 20 21  1  6
 20 22  1  0
 21 57  1  0
 22 23  2  0
 22 24  1  0
 24 25  1  0
 24 58  1  0
 24 59  1  0
 25 26  1  0
 25 29  1  0
 25 60  1  1
 26 27  1  0
 26 61  1  0
 26 62  1  0
 27 28  1  0
 28 63  1  0
 28 64  1  0
 28 65  1  0
 29 30  1  0
 29 31  1  0
 29 66  1  1
 30 67  1  0
 31 32  1  6
 31 33  1  0
 32 68  1  0
 33 69  1  1
M  END
>  <i_m_ct_stereo_status>  (259) 
1

>  <s_m_source_file>  (259) 
/var/tmp/pbs.5076255.sched01/tmptpdlle0r/921kky2sk3.sdf

>  <i_m_source_file_index>  (259) 
24

>  <i_lp_mmshare_version>  (259) 
48012

>  <i_f3d_flags>  (259) 
0

>  <s_epik_input>  (259) 
W0NIMl09QyhbQ0gzXSlbQ0BdMTJbQ0BdMyhbQ0gzXSlbQ0BdNChbT0hdKVtDQEhdKFtDSDJdW0NIMl0xKVtDQEBIXShbT0hdKVtDQEBdNShbQ0gyXU9DKD1PKVtDSDNdKVtDQEBIXShbQ0gyXTMpW0NAQF0oW09IXSkoW0NAQEhdMjUpW0NASF0oW09IXSlbQ0BASF0oW0NIMl1DND1PKVtDSDJdT1tDSDNd

>  <s_epik_cmdline>  (259) 
J2VwaWtfcHl0aG9uJywgJy1waHQnLCAnMi4wJywgJy1waCcsICc3LjAnLCAnLXRuJywgJzgnLCAnLW1hJywgJzIwMCcsICctaW1hZScsICc8aW5maWxlLm1hZT4nLCAnLW9tYWUnLCAnPG91dGZpbGUubWFlPic=

>  <r_lp_tautomer_probability>  (259) 
1

>  <r_epik_Ionization_Penalty>  (259) 
5.42538e-07

>  <r_epik_Ionization_Penalty_Charging>  (259) 
0

>  <r_epik_Ionization_Penalty_Neutral>  (259) 
5.42538e-07

>  <r_epik_State_Penalty>  (259) 
-0

>  <r_epik_Charging_Adjusted_Penalty>  (259) 
0

>  <i_epik_Tot_Q>  (259) 
0

>  <i_epik_Tot_abs_Q>  (259) 
0

>  <s_epik_Chemistry_Notes>  (259) 
This compound has an ester and may undergo hydrolysis at high or low pH.

>  <s_lp_Force_Field>  (259) 
OPLS3e

>  <r_lp_Energy>  (259) 
339.958

>  <b_lp_Chiralities_Consistent>  (259) 
1

>  <s_lp_Variant>  (259) 
71:0-1

>  <s_i_glide_gridfile>  (259) 
pfpi4k_grid

>  <i_i_glide_lignum>  (259) 
24

>  <i_i_glide_rotatable_bonds>  (259) 
10

>  <r_i_docking_score>  (259) 
-1.35024

>  <r_i_glide_ligand_efficiency>  (259) 
-0.0409164

>  <r_i_glide_ligand_efficiency_sa>  (259) 
-0.131241

>  <r_i_glide_ligand_efficiency_ln>  (259) 
-0.300286

>  <r_i_glide_gscore>  (259) 
-1.35024

>  <r_i_glide_lipo>  (259) 
-0.0293216

>  <r_i_glide_hbond>  (259) 
0

>  <r_i_glide_metal>  (259) 
-0

>  <r_i_glide_rewards>  (259) 
-0.359687

>  <r_i_glide_evdw>  (259) 
-18.6723

>  <r_i_glide_ecoul>  (259) 
-2.67526

>  <r_i_glide_erotb>  (259) 
0.373675

>  <r_i_glide_esite>  (259) 
0

>  <r_i_glide_emodel>  (259) 
-22.1347

>  <r_i_glide_energy>  (259) 
-21.3476

>  <r_i_glide_einternal>  (259) 
2.36472

>  <r_i_glide_intrahb_reward>  (259) 
-0

>  <i_i_glide_confnum>  (259) 
1

>  <i_i_glide_posenum>  (259) 
5

>  <r_i_glide_eff_state_penalty>  (259) 
0

>  <ligand_id>  (259) 
71

>  <original_smiles>  (259) 
C=C(C)C12CCC3C(O)C4(COC(C)=O)C5CC1(C)C3(O)C(=O)CC(COC)C(O)C5(O)C42

>  <smiles>  (259) 
[H]OC1([H])C([H])(C([H])([H])OC([H])([H])[H])C([H])([H])C(=O)C2(O[H])C3([H])C([H])([H])C([H])([H])C4(C(=C([H])[H])C([H])([H])[H])C5([H])C1(O[H])C([H])(C([H])([H])C24C([H])([H])[H])C5(C([H])([H])OC(=O)C([H])([H])[H])C3([H])O[H]

$$$$
72:0:0
     RDKit          3D

 65 70  0  0  1  0  0  0  0  0999 V2000
    6.2637    0.1420    3.8269 C   0  0  0  0  0  0  0  0  0  0  0  0
    6.5778   -0.8528    2.8781 O   0  0  0  0  0  0  0  0  0  0  0  0
    5.5485   -1.4150    2.0828 C   0  0  2  0  0  0  0  0  0  0  0  0
    4.6763   -2.2323    3.0776 C   0  0  0  0  0  0  0  0  0  0  0  0
    3.2709   -2.5482    2.6281 C   0  0  1  0  0  0  0  0  0  0  0  0
    2.9803   -3.7457    1.7704 C   0  0  1  0  0  0  0  0  0  0  0  0
    4.0957   -4.6557    1.2600 C   0  0  2  0  0  0  0  0  0  0  0  0
    5.2665   -4.8772    2.0835 O   0  0  0  0  0  0  0  0  0  0  0  0
    6.1436   -4.6262    0.9501 C   0  0  2  0  0  0  0  0  0  0  0  0
    6.9671   -5.8751    0.6501 C   0  0  0  0  0  0  0  0  0  0  0  0
    6.9974   -3.3960    1.0792 C   0  0  0  0  0  0  0  0  0  0  0  0
    6.2044   -2.1216    0.7962 C   0  0  2  0  0  0  0  0  0  0  0  0
    7.1937   -1.0205    0.3115 C   0  0  0  0  0  0  0  0  0  0  0  0
    5.2001   -2.7258   -0.3072 C   0  0  1  0  0  0  0  0  0  0  0  0
    3.8847   -1.9011   -0.3433 C   0  0  0  0  0  0  0  0  0  0  0  0
    4.0183   -0.9083   -1.4275 C   0  0  1  0  0  0  0  0  0  0  0  0
    5.1047   -1.3328   -2.3574 C   0  0  1  0  0  0  0  0  0  0  0  0
    5.7239   -2.5816   -1.8014 C   0  0  1  0  0  0  0  0  0  0  0  0
    7.1109   -2.7255   -1.9703 O   0  0  0  0  0  0  0  0  0  0  0  0
    3.6657   -1.2558   -2.8534 C   0  0  0  0  0  0  0  0  0  0  0  0
    2.8745   -2.5239   -3.1637 C   0  0  0  0  0  0  0  0  0  0  0  0
    3.2325   -0.1365   -3.7882 C   0  0  0  0  0  0  0  0  0  0  0  0
    4.9853   -4.2412    0.0820 C   0  0  2  0  0  0  0  0  0  0  0  0
    4.6747   -5.1575   -1.0750 C   0  0  0  0  0  0  0  0  0  0  0  0
    2.4429   -3.6926    3.1810 C   0  0  0  0  0  0  0  0  0  0  0  0
    2.9736   -4.6296    4.2439 C   0  0  0  0  0  0  0  0  0  0  0  0
    0.9556   -3.4478    3.3624 C   0  0  0  0  0  0  0  0  0  0  0  0
    7.1630    0.4420    4.3588 H   0  0  0  0  0  0  0  0  0  0  0  0
    5.5253   -0.1191    4.5697 H   0  0  0  0  0  0  0  0  0  0  0  0
    5.8709    0.9677    3.2819 H   0  0  0  0  0  0  0  0  0  0  0  0
    5.0161   -0.5230    1.7543 H   0  0  0  0  0  0  0  0  0  0  0  0
    5.2207   -3.0914    3.4451 H   0  0  0  0  0  0  0  0  0  0  0  0
    4.4730   -1.6805    3.9817 H   0  0  0  0  0  0  0  0  0  0  0  0
    2.6880   -1.6450    2.4459 H   0  0  0  0  0  0  0  0  0  0  0  0
    2.1887   -3.6226    1.0302 H   0  0  0  0  0  0  0  0  0  0  0  0
    3.6273   -5.6221    1.0659 H   0  0  0  0  0  0  0  0  0  0  0  0
    7.5580   -5.7476   -0.2553 H   0  0  0  0  0  0  0  0  0  0  0  0
    6.3343   -6.7541    0.5179 H   0  0  0  0  0  0  0  0  0  0  0  0
    7.6740   -6.0889    1.4476 H   0  0  0  0  0  0  0  0  0  0  0  0
    7.4379   -3.3683    2.0853 H   0  0  0  0  0  0  0  0  0  0  0  0
    7.8733   -3.4629    0.4557 H   0  0  0  0  0  0  0  0  0  0  0  0
    7.9121   -1.3202   -0.4283 H   0  0  0  0  0  0  0  0  0  0  0  0
    7.9216   -0.7368    1.0643 H   0  0  0  0  0  0  0  0  0  0  0  0
    6.6655   -0.1115    0.0203 H   0  0  0  0  0  0  0  0  0  0  0  0
    3.0055   -2.5102   -0.5162 H   0  0  0  0  0  0  0  0  0  0  0  0
    3.6500   -1.3322    0.5350 H   0  0  0  0  0  0  0  0  0  0  0  0
    4.2337    0.0995   -1.0703 H   0  0  0  0  0  0  0  0  0  0  0  0
    5.7699   -0.5315   -2.6351 H   0  0  0  0  0  0  0  0  0  0  0  0
    5.3505   -3.3137   -2.4944 H   0  0  0  0  0  0  0  0  0  0  0  0
    7.3629   -2.8652   -2.8878 H   0  0  0  0  0  0  0  0  0  0  0  0
    3.1816   -2.9785   -4.1025 H   0  0  0  0  0  0  0  0  0  0  0  0
    1.7979   -2.3753   -3.1173 H   0  0  0  0  0  0  0  0  0  0  0  0
    3.0507   -3.2612   -2.4180 H   0  0  0  0  0  0  0  0  0  0  0  0
    3.4778   -0.4353   -4.8201 H   0  0  0  0  0  0  0  0  0  0  0  0
    3.8326    0.7602   -3.5544 H   0  0  0  0  0  0  0  0  0  0  0  0
    2.1424    0.0901   -3.6919 H   0  0  0  0  0  0  0  0  0  0  0  0
    5.3906   -5.1957   -1.8753 H   0  0  0  0  0  0  0  0  0  0  0  0
    3.7816   -4.7462   -1.4821 H   0  0  0  0  0  0  0  0  0  0  0  0
    4.4903   -6.1987   -0.7981 H   0  0  0  0  0  0  0  0  0  0  0  0
    2.4953   -5.6053    4.1572 H   0  0  0  0  0  0  0  0  0  0  0  0
    2.7835   -4.2148    5.2324 H   0  0  0  0  0  0  0  0  0  0  0  0
    4.0455   -4.7809    4.1491 H   0  0  0  0  0  0  0  0  0  0  0  0
    0.4011   -4.3834    3.2827 H   0  0  0  0  0  0  0  0  0  0  0  0
    0.6032   -2.7514    2.6015 H   0  0  0  0  0  0  0  0  0  0  0  0
    0.7400   -2.9940    4.3275 H   0  0  0  0  0  0  0  0  0  0  0  0
  1  2  1  0
  1 28  1  0
  1 29  1  0
  1 30  1  0
  2  3  1  0
  3 12  1  0
  3  4  1  0
  3 31  1  6
  4  5  1  0
  4 32  1  0
  4 33  1  0
  5 25  1  0
  5  6  1  0
  5 34  1  6
  6  7  1  0
  6 25  1  0
  6 35  1  6
  7 23  1  0
  7  8  1  0
  7 36  1  6
  8  9  1  0
  9 23  1  0
  9 10  1  6
  9 11  1  0
 10 37  1  0
 10 38  1  0
 10 39  1  0
 11 12  1  0
 11 40  1  0
 11 41  1  0
 12 13  1  6
 12 14  1  0
 13 42  1  0
 13 43  1  0
 13 44  1  0
 14 18  1  0
 14 15  1  6
 14 23  1  0
 15 16  1  0
 15 45  1  0
 15 46  1  0
 16 20  1  0
 16 17  1  0
 16 47  1  1
 17 18  1  0
 17 20  1  0
 17 48  1  6
 18 19  1  0
 18 49  1  6
 19 50  1  0
 20 21  1  0
 20 22  1  0
 21 51  1  0
 21 52  1  0
 21 53  1  0
 22 54  1  0
 22 55  1  0
 22 56  1  0
 23 24  1  6
 24 57  1  0
 24 58  1  0
 24 59  1  0
 25 26  1  0
 25 27  1  0
 26 60  1  0
 26 61  1  0
 26 62  1  0
 27 63  1  0
 27 64  1  0
 27 65  1  0
M  END
>  <i_m_ct_stereo_status>  (260) 
1

>  <s_m_source_file>  (260) 
/var/tmp/pbs.5076255.sched01/tmptpdlle0r/921kky2sk3.sdf

>  <i_m_source_file_index>  (260) 
25

>  <i_lp_mmshare_version>  (260) 
48012

>  <i_f3d_flags>  (260) 
0

>  <s_epik_input>  (260) 
W09IXVtDQEBIXTFbQ0BASF0oQzIoW0NIM10pW0NIM10pW0NAQEhdMltDSDJdW0NAXTEzW0NAQF00KFtDSDNdKVtDQEhdKE9bQ0gzXSlbQ0gyXVtDQEhdNVtDQEhdKEM1KFtDSDNdKVtDSDNdKVtDQEhdNltDQF0zKFtDSDNdKVtDQEBdKE82KShbQ0gzXSlbQ0gyXTQ=

>  <s_epik_cmdline>  (260) 
J2VwaWtfcHl0aG9uJywgJy1waHQnLCAnMi4wJywgJy1waCcsICc3LjAnLCAnLXRuJywgJzgnLCAnLW1hJywgJzIwMCcsICctaW1hZScsICc8aW5maWxlLm1hZT4nLCAnLW9tYWUnLCAnPG91dGZpbGUubWFlPic=

>  <r_lp_tautomer_probability>  (260) 
1

>  <r_epik_Ionization_Penalty>  (260) 
5.37243e-07

>  <r_epik_Ionization_Penalty_Charging>  (260) 
0

>  <r_epik_Ionization_Penalty_Neutral>  (260) 
5.37243e-07

>  <r_epik_State_Penalty>  (260) 
-0

>  <r_epik_Charging_Adjusted_Penalty>  (260) 
0

>  <i_epik_Tot_Q>  (260) 
0

>  <i_epik_Tot_abs_Q>  (260) 
0

>  <s_lp_Force_Field>  (260) 
OPLS3e

>  <r_lp_Energy>  (260) 
61.7472

>  <b_lp_Chiralities_Consistent>  (260) 
1

>  <s_lp_Variant>  (260) 
72:0-1

>  <s_i_glide_gridfile>  (260) 
pfpi4k_grid

>  <i_i_glide_lignum>  (260) 
25

>  <i_i_glide_rotatable_bonds>  (260) 
2

>  <r_i_docking_score>  (260) 
-2.75418

>  <r_i_glide_ligand_efficiency>  (260) 
-0.102007

>  <r_i_glide_ligand_efficiency_sa>  (260) 
-0.30602

>  <r_i_glide_ligand_efficiency_ln>  (260) 
-0.641127

>  <r_i_glide_gscore>  (260) 
-2.75418

>  <r_i_glide_lipo>  (260) 
-0.921329

>  <r_i_glide_hbond>  (260) 
-0.405551

>  <r_i_glide_metal>  (260) 
-0

>  <r_i_glide_rewards>  (260) 
-0.855295

>  <r_i_glide_evdw>  (260) 
0.594084

>  <r_i_glide_ecoul>  (260) 
-4.01139

>  <r_i_glide_erotb>  (260) 
0

>  <r_i_glide_esite>  (260) 
0

>  <r_i_glide_emodel>  (260) 
-0.236277

>  <r_i_glide_energy>  (260) 
-3.4173

>  <r_i_glide_einternal>  (260) 
5.22877

>  <r_i_glide_intrahb_reward>  (260) 
-0

>  <i_i_glide_confnum>  (260) 
2

>  <i_i_glide_posenum>  (260) 
10

>  <r_i_glide_eff_state_penalty>  (260) 
0

>  <ligand_id>  (260) 
72

>  <original_smiles>  (260) 
COC1CC2C(C3OC4(C)CC1(C)C1(CC5C(C1O)C5(C)C)C34C)C2(C)C

>  <smiles>  (260) 
[H]OC1([H])C2([H])C([H])(C([H])([H])C13C1(C([H])([H])[H])C([H])([H])C4(C([H])([H])[H])OC([H])(C5([H])C([H])(C([H])([H])C1([H])OC([H])([H])[H])C5(C([H])([H])[H])C([H])([H])[H])C43C([H])([H])[H])C2(C([H])([H])[H])C([H])([H])[H]

$$$$
72:0:1
     RDKit          3D

 65 70  0  0  1  0  0  0  0  0999 V2000
    0.2312    8.3080    6.7876 C   0  0  0  0  0  0  0  0  0  0  0  0
   -0.1484    7.3908    5.7790 O   0  0  0  0  0  0  0  0  0  0  0  0
    0.0337    5.9631    5.8977 C   0  0  2  0  0  0  0  0  0  0  0  0
   -0.4552    5.6192    7.3373 C   0  0  0  0  0  0  0  0  0  0  0  0
   -0.8076    4.1939    7.6829 C   0  0  1  0  0  0  0  0  0  0  0  0
    0.2665    3.2071    8.0547 C   0  0  1  0  0  0  0  0  0  0  0  0
    1.7705    3.5413    7.9857 C   0  0  2  0  0  0  0  0  0  0  0  0
    2.2099    4.8904    8.2894 O   0  0  0  0  0  0  0  0  0  0  0  0
    3.0449    4.9226    7.1044 C   0  0  2  0  0  0  0  0  0  0  0  0
    4.5033    5.1033    7.5460 C   0  0  0  0  0  0  0  0  0  0  0  0
    2.6463    6.0041    6.1222 C   0  0  0  0  0  0  0  0  0  0  0  0
    1.4462    5.4919    5.2971 C   0  0  2  0  0  0  0  0  0  0  0  0
    1.4151    6.1938    3.8792 C   0  0  0  0  0  0  0  0  0  0  0  0
    1.7595    3.8860    5.2817 C   0  0  1  0  0  0  0  0  0  0  0  0
    0.4424    3.0480    5.1000 C   0  0  0  0  0  0  0  0  0  0  0  0
    0.3435    2.7025    3.6575 C   0  0  1  0  0  0  0  0  0  0  0  0
    1.6854    2.9236    2.9953 C   0  0  1  0  0  0  0  0  0  0  0  0
    2.6227    3.4178    4.0556 C   0  0  1  0  0  0  0  0  0  0  0  0
    3.5554    4.3560    3.5927 O   0  0  0  0  0  0  0  0  0  0  0  0
    1.0786    1.5228    3.0867 C   0  0  0  0  0  0  0  0  0  0  0  0
    1.6451    0.4532    4.0221 C   0  0  0  0  0  0  0  0  0  0  0  0
    0.5091    0.8939    1.8360 C   0  0  0  0  0  0  0  0  0  0  0  0
    2.5360    3.5645    6.6445 C   0  0  2  0  0  0  0  0  0  0  0  0
    3.6162    2.4389    6.6173 C   0  0  0  0  0  0  0  0  0  0  0  0
   -0.7284    3.6490    9.1030 C   0  0  0  0  0  0  0  0  0  0  0  0
   -0.2740    4.4876   10.2873 C   0  0  0  0  0  0  0  0  0  0  0  0
   -1.7969    2.6514    9.5303 C   0  0  0  0  0  0  0  0  0  0  0  0
    0.0129    9.3098    6.4419 H   0  0  0  0  0  0  0  0  0  0  0  0
    1.2833    8.2612    7.0123 H   0  0  0  0  0  0  0  0  0  0  0  0
   -0.3235    8.1320    7.6965 H   0  0  0  0  0  0  0  0  0  0  0  0
   -0.7412    5.5729    5.2206 H   0  0  0  0  0  0  0  0  0  0  0  0
    0.2579    6.0032    8.0508 H   0  0  0  0  0  0  0  0  0  0  0  0
   -1.3754    6.1698    7.5388 H   0  0  0  0  0  0  0  0  0  0  0  0
   -1.6786    3.8189    7.1353 H   0  0  0  0  0  0  0  0  0  0  0  0
    0.0831    2.1731    7.7567 H   0  0  0  0  0  0  0  0  0  0  0  0
    2.2660    2.8668    8.6908 H   0  0  0  0  0  0  0  0  0  0  0  0
    5.1693    5.0280    6.6799 H   0  0  0  0  0  0  0  0  0  0  0  0
    4.8283    4.3635    8.2922 H   0  0  0  0  0  0  0  0  0  0  0  0
    4.6448    6.0943    7.9771 H   0  0  0  0  0  0  0  0  0  0  0  0
    2.5369    6.9310    6.6843 H   0  0  0  0  0  0  0  0  0  0  0  0
    3.4735    6.1542    5.4328 H   0  0  0  0  0  0  0  0  0  0  0  0
    2.3272    6.1884    3.2917 H   0  0  0  0  0  0  0  0  0  0  0  0
    1.2439    7.2623    3.9700 H   0  0  0  0  0  0  0  0  0  0  0  0
    0.6260    5.8134    3.2340 H   0  0  0  0  0  0  0  0  0  0  0  0
    0.4825    2.1229    5.6733 H   0  0  0  0  0  0  0  0  0  0  0  0
   -0.4912    3.5404    5.3416 H   0  0  0  0  0  0  0  0  0  0  0  0
   -0.5371    3.0966    3.1406 H   0  0  0  0  0  0  0  0  0  0  0  0
    1.6928    3.4297    2.0378 H   0  0  0  0  0  0  0  0  0  0  0  0
    3.2354    2.5485    4.2304 H   0  0  0  0  0  0  0  0  0  0  0  0
    3.8131    4.1107    2.7420 H   0  0  0  0  0  0  0  0  0  0  0  0
    2.5559    0.0304    3.6094 H   0  0  0  0  0  0  0  0  0  0  0  0
    0.9175   -0.3247    4.2576 H   0  0  0  0  0  0  0  0  0  0  0  0
    1.9260    0.8902    4.9612 H   0  0  0  0  0  0  0  0  0  0  0  0
    1.3103    0.3829    1.2973 H   0  0  0  0  0  0  0  0  0  0  0  0
    0.0845    1.6777    1.1958 H   0  0  0  0  0  0  0  0  0  0  0  0
   -0.2829    0.1835    2.0988 H   0  0  0  0  0  0  0  0  0  0  0  0
    4.4498    2.7075    5.9622 H   0  0  0  0  0  0  0  0  0  0  0  0
    3.2154    1.4634    6.3575 H   0  0  0  0  0  0  0  0  0  0  0  0
    4.0661    2.3059    7.6086 H   0  0  0  0  0  0  0  0  0  0  0  0
    0.1738    3.8493   11.0529 H   0  0  0  0  0  0  0  0  0  0  0  0
   -1.1230    5.0293   10.7078 H   0  0  0  0  0  0  0  0  0  0  0  0
    0.4805    5.2155    9.9975 H   0  0  0  0  0  0  0  0  0  0  0  0
   -1.4208    1.9744   10.3001 H   0  0  0  0  0  0  0  0  0  0  0  0
   -2.1111    2.0459    8.6781 H   0  0  0  0  0  0  0  0  0  0  0  0
   -2.6767    3.1716    9.9080 H   0  0  0  0  0  0  0  0  0  0  0  0
  1  2  1  0
  1 28  1  0
  1 29  1  0
  1 30  1  0
  2  3  1  0
  3 12  1  0
  3  4  1  0
  3 31  1  6
  4  5  1  0
  4 32  1  0
  4 33  1  0
  5 25  1  0
  5  6  1  0
  5 34  1  6
  6  7  1  0
  6 25  1  0
  6 35  1  6
  7 23  1  0
  7  8  1  0
  7 36  1  1
  8  9  1  0
  9 23  1  0
  9 10  1  1
  9 11  1  0
 10 37  1  0
 10 38  1  0
 10 39  1  0
 11 12  1  0
 11 40  1  0
 11 41  1  0
 12 13  1  6
 12 14  1  0
 13 42  1  0
 13 43  1  0
 13 44  1  0
 14 18  1  0
 14 15  1  1
 14 23  1  0
 15 16  1  0
 15 45  1  0
 15 46  1  0
 16 20  1  0
 16 17  1  0
 16 47  1  6
 17 18  1  0
 17 20  1  0
 17 48  1  6
 18 19  1  0
 18 49  1  1
 19 50  1  0
 20 21  1  0
 20 22  1  0
 21 51  1  0
 21 52  1  0
 21 53  1  0
 22 54  1  0
 22 55  1  0
 22 56  1  0
 23 24  1  6
 24 57  1  0
 24 58  1  0
 24 59  1  0
 25 26  1  0
 25 27  1  0
 26 60  1  0
 26 61  1  0
 26 62  1  0
 27 63  1  0
 27 64  1  0
 27 65  1  0
M  END
>  <i_m_ct_stereo_status>  (261) 
1

>  <s_m_source_file>  (261) 
/var/tmp/pbs.5076255.sched01/tmptpdlle0r/921kky2sk3.sdf

>  <i_m_source_file_index>  (261) 
25

>  <i_lp_mmshare_version>  (261) 
48012

>  <i_f3d_flags>  (261) 
0

>  <s_epik_input>  (261) 
W09IXVtDQEBIXTFbQ0BASF0oQzIoW0NIM10pW0NIM10pW0NAQEhdMltDSDJdW0NAXTEzW0NAQF00KFtDSDNdKVtDQEhdKE9bQ0gzXSlbQ0gyXVtDQEhdNVtDQEhdKEM1KFtDSDNdKVtDSDNdKVtDQEhdNltDQF0zKFtDSDNdKVtDQEBdKE82KShbQ0gzXSlbQ0gyXTQ=

>  <s_epik_cmdline>  (261) 
J2VwaWtfcHl0aG9uJywgJy1waHQnLCAnMi4wJywgJy1waCcsICc3LjAnLCAnLXRuJywgJzgnLCAnLW1hJywgJzIwMCcsICctaW1hZScsICc8aW5maWxlLm1hZT4nLCAnLW9tYWUnLCAnPG91dGZpbGUubWFlPic=

>  <r_lp_tautomer_probability>  (261) 
1

>  <r_epik_Ionization_Penalty>  (261) 
5.37243e-07

>  <r_epik_Ionization_Penalty_Charging>  (261) 
0

>  <r_epik_Ionization_Penalty_Neutral>  (261) 
5.37243e-07

>  <r_epik_State_Penalty>  (261) 
-0

>  <r_epik_Charging_Adjusted_Penalty>  (261) 
0

>  <i_epik_Tot_Q>  (261) 
0

>  <i_epik_Tot_abs_Q>  (261) 
0

>  <s_lp_Force_Field>  (261) 
OPLS3e

>  <r_lp_Energy>  (261) 
61.7472

>  <b_lp_Chiralities_Consistent>  (261) 
1

>  <s_lp_Variant>  (261) 
72:0-1

>  <s_i_glide_gridfile>  (261) 
pfpi4k_grid

>  <i_i_glide_lignum>  (261) 
25

>  <i_i_glide_rotatable_bonds>  (261) 
2

>  <r_i_docking_score>  (261) 
-1.95614

>  <r_i_glide_ligand_efficiency>  (261) 
-0.0724496

>  <r_i_glide_ligand_efficiency_sa>  (261) 
-0.217349

>  <r_i_glide_ligand_efficiency_ln>  (261) 
-0.455357

>  <r_i_glide_gscore>  (261) 
-1.95614

>  <r_i_glide_lipo>  (261) 
0

>  <r_i_glide_hbond>  (261) 
-0.212908

>  <r_i_glide_metal>  (261) 
-0

>  <r_i_glide_rewards>  (261) 
-0.855295

>  <r_i_glide_evdw>  (261) 
-11.3529

>  <r_i_glide_ecoul>  (261) 
-3.53532

>  <r_i_glide_erotb>  (261) 
0

>  <r_i_glide_esite>  (261) 
0

>  <r_i_glide_emodel>  (261) 
-7.07464

>  <r_i_glide_energy>  (261) 
-14.8882

>  <r_i_glide_einternal>  (261) 
11.1748

>  <r_i_glide_intrahb_reward>  (261) 
-0

>  <i_i_glide_confnum>  (261) 
1

>  <i_i_glide_posenum>  (261) 
31

>  <r_i_glide_eff_state_penalty>  (261) 
0

>  <ligand_id>  (261) 
72

>  <original_smiles>  (261) 
COC1CC2C(C3OC4(C)CC1(C)C1(CC5C(C1O)C5(C)C)C34C)C2(C)C

>  <smiles>  (261) 
[H]OC1([H])C2([H])C([H])(C([H])([H])C13C1(C([H])([H])[H])C([H])([H])C4(C([H])([H])[H])OC([H])(C5([H])C([H])(C([H])([H])C1([H])OC([H])([H])[H])C5(C([H])([H])[H])C([H])([H])[H])C43C([H])([H])[H])C2(C([H])([H])[H])C([H])([H])[H]

$$$$
72:0:2
     RDKit          3D

 65 70  0  0  1  0  0  0  0  0999 V2000
    0.2076    8.4082    7.2129 C   0  0  0  0  0  0  0  0  0  0  0  0
   -0.2084    7.5679    6.1497 O   0  0  0  0  0  0  0  0  0  0  0  0
   -0.1311    6.1349    6.2208 C   0  0  2  0  0  0  0  0  0  0  0  0
   -0.7067    5.7887    7.6304 C   0  0  0  0  0  0  0  0  0  0  0  0
   -1.1816    4.3953    7.9201 C   0  0  1  0  0  0  0  0  0  0  0  0
   -0.2127    3.3132    8.3016 C   0  0  1  0  0  0  0  0  0  0  0  0
    1.3109    3.5358    8.3087 C   0  0  2  0  0  0  0  0  0  0  0  0
    1.8403    4.8291    8.6826 O   0  0  0  0  0  0  0  0  0  0  0  0
    2.7324    4.8417    7.5450 C   0  0  2  0  0  0  0  0  0  0  0  0
    4.1823    4.8860    8.0495 C   0  0  0  0  0  0  0  0  0  0  0  0
    2.4631    5.9613    6.5702 C   0  0  0  0  0  0  0  0  0  0  0  0
    1.2822    5.5767    5.6810 C   0  0  2  0  0  0  0  0  0  0  0  0
    1.3850    6.3049    4.2783 C   0  0  0  0  0  0  0  0  0  0  0  0
    1.4694    3.9571    5.6187 C   0  0  1  0  0  0  0  0  0  0  0  0
    0.1078    3.2482    5.3644 C   0  0  0  0  0  0  0  0  0  0  0  0
    0.0454    2.9348    3.9029 C   0  0  1  0  0  0  0  0  0  0  0  0
    1.4196    3.0534    3.3035 C   0  0  1  0  0  0  0  0  0  0  0  0
    2.3712    3.4593    4.4025 C   0  0  1  0  0  0  0  0  0  0  0  0
    3.4126    4.2976    3.9912 O   0  0  0  0  0  0  0  0  0  0  0  0
    0.7032    1.7174    3.3277 C   0  0  0  0  0  0  0  0  0  0  0  0
    1.1501    0.5880    4.2673 C   0  0  0  0  0  0  0  0  0  0  0  0
    0.1491    1.1688    2.0393 C   0  0  0  0  0  0  0  0  0  0  0  0
    2.1535    3.5327    7.0074 C   0  0  2  0  0  0  0  0  0  0  0  0
    3.1203    2.3269    6.9901 C   0  0  0  0  0  0  0  0  0  0  0  0
   -1.2176    3.8005    9.3150 C   0  0  0  0  0  0  0  0  0  0  0  0
   -0.7587    4.5724   10.5493 C   0  0  0  0  0  0  0  0  0  0  0  0
   -2.3826    2.8810    9.6672 C   0  0  0  0  0  0  0  0  0  0  0  0
    0.1262    9.4326    6.9124 H   0  0  0  0  0  0  0  0  0  0  0  0
    1.2429    8.2404    7.5164 H   0  0  0  0  0  0  0  0  0  0  0  0
   -0.4133    8.2387    8.0913 H   0  0  0  0  0  0  0  0  0  0  0  0
   -0.8899    5.7948    5.5083 H   0  0  0  0  0  0  0  0  0  0  0  0
    0.0012    6.1222    8.3861 H   0  0  0  0  0  0  0  0  0  0  0  0
   -1.5854    6.4131    7.8024 H   0  0  0  0  0  0  0  0  0  0  0  0
   -2.0586    4.1061    7.3152 H   0  0  0  0  0  0  0  0  0  0  0  0
   -0.4589    2.3064    7.9464 H   0  0  0  0  0  0  0  0  0  0  0  0
    1.7188    2.7971    9.0221 H   0  0  0  0  0  0  0  0  0  0  0  0
    4.8770    4.7842    7.2187 H   0  0  0  0  0  0  0  0  0  0  0  0
    4.4062    4.1018    8.7833 H   0  0  0  0  0  0  0  0  0  0  0  0
    4.3774    5.8478    8.5245 H   0  0  0  0  0  0  0  0  0  0  0  0
    2.3876    6.9027    7.1520 H   0  0  0  0  0  0  0  0  0  0  0  0
    3.3329    6.0883    5.9322 H   0  0  0  0  0  0  0  0  0  0  0  0
    2.3243    6.1949    3.7514 H   0  0  0  0  0  0  0  0  0  0  0  0
    1.2982    7.3850    4.3928 H   0  0  0  0  0  0  0  0  0  0  0  0
    0.5943    6.0193    3.5942 H   0  0  0  0  0  0  0  0  0  0  0  0
    0.0350    2.3014    5.9174 H   0  0  0  0  0  0  0  0  0  0  0  0
   -0.7897    3.8169    5.5772 H   0  0  0  0  0  0  0  0  0  0  0  0
   -0.7781    3.4070    3.3680 H   0  0  0  0  0  0  0  0  0  0  0  0
    1.5086    3.6047    2.3661 H   0  0  0  0  0  0  0  0  0  0  0  0
    2.8821    2.5356    4.6276 H   0  0  0  0  0  0  0  0  0  0  0  0
    3.8094    4.7222    4.7473 H   0  0  0  0  0  0  0  0  0  0  0  0
    2.0388    0.0989    3.8722 H   0  0  0  0  0  0  0  0  0  0  0  0
    0.3512   -0.1378    4.4410 H   0  0  0  0  0  0  0  0  0  0  0  0
    1.4250    0.9742    5.2284 H   0  0  0  0  0  0  0  0  0  0  0  0
    0.9287    0.6103    1.5190 H   0  0  0  0  0  0  0  0  0  0  0  0
   -0.1784    1.9984    1.4006 H   0  0  0  0  0  0  0  0  0  0  0  0
   -0.7087    0.5268    2.2377 H   0  0  0  0  0  0  0  0  0  0  0  0
    4.0115    2.5391    6.3821 H   0  0  0  0  0  0  0  0  0  0  0  0
    2.6576    1.4020    6.6784 H   0  0  0  0  0  0  0  0  0  0  0  0
    3.5174    2.1230    7.9994 H   0  0  0  0  0  0  0  0  0  0  0  0
   -0.3969    3.8819   11.3141 H   0  0  0  0  0  0  0  0  0  0  0  0
   -1.5780    5.1651   10.9483 H   0  0  0  0  0  0  0  0  0  0  0  0
    0.0641    5.2492   10.3188 H   0  0  0  0  0  0  0  0  0  0  0  0
   -2.1000    2.1551   10.4281 H   0  0  0  0  0  0  0  0  0  0  0  0
   -2.7052    2.3264    8.7798 H   0  0  0  0  0  0  0  0  0  0  0  0
   -3.2350    3.4590   10.0192 H   0  0  0  0  0  0  0  0  0  0  0  0
  1  2  1  0
  1 28  1  0
  1 29  1  0
  1 30  1  0
  2  3  1  0
  3 12  1  0
  3  4  1  0
  3 31  1  6
  4  5  1  0
  4 32  1  0
  4 33  1  0
  5 25  1  0
  5  6  1  0
  5 34  1  6
  6  7  1  0
  6 25  1  0
  6 35  1  6
  7 23  1  0
  7  8  1  0
  7 36  1  1
  8  9  1  0
  9 23  1  0
  9 10  1  1
  9 11  1  0
 10 37  1  0
 10 38  1  0
 10 39  1  0
 11 12  1  0
 11 40  1  0
 11 41  1  0
 12 13  1  6
 12 14  1  0
 13 42  1  0
 13 43  1  0
 13 44  1  0
 14 18  1  0
 14 15  1  6
 14 23  1  0
 15 16  1  0
 15 45  1  0
 15 46  1  0
 16 20  1  0
 16 17  1  0
 16 47  1  6
 17 18  1  0
 17 20  1  0
 17 48  1  6
 18 19  1  0
 18 49  1  1
 19 50  1  0
 20 21  1  0
 20 22  1  0
 21 51  1  0
 21 52  1  0
 21 53  1  0
 22 54  1  0
 22 55  1  0
 22 56  1  0
 23 24  1  6
 24 57  1  0
 24 58  1  0
 24 59  1  0
 25 26  1  0
 25 27  1  0
 26 60  1  0
 26 61  1  0
 26 62  1  0
 27 63  1  0
 27 64  1  0
 27 65  1  0
M  END
>  <i_m_ct_stereo_status>  (262) 
1

>  <s_m_source_file>  (262) 
/var/tmp/pbs.5076255.sched01/tmptpdlle0r/921kky2sk3.sdf

>  <i_m_source_file_index>  (262) 
25

>  <i_lp_mmshare_version>  (262) 
48012

>  <i_f3d_flags>  (262) 
0

>  <s_epik_input>  (262) 
W09IXVtDQEBIXTFbQ0BASF0oQzIoW0NIM10pW0NIM10pW0NAQEhdMltDSDJdW0NAXTEzW0NAQF00KFtDSDNdKVtDQEhdKE9bQ0gzXSlbQ0gyXVtDQEhdNVtDQEhdKEM1KFtDSDNdKVtDSDNdKVtDQEhdNltDQF0zKFtDSDNdKVtDQEBdKE82KShbQ0gzXSlbQ0gyXTQ=

>  <s_epik_cmdline>  (262) 
J2VwaWtfcHl0aG9uJywgJy1waHQnLCAnMi4wJywgJy1waCcsICc3LjAnLCAnLXRuJywgJzgnLCAnLW1hJywgJzIwMCcsICctaW1hZScsICc8aW5maWxlLm1hZT4nLCAnLW9tYWUnLCAnPG91dGZpbGUubWFlPic=

>  <r_lp_tautomer_probability>  (262) 
1

>  <r_epik_Ionization_Penalty>  (262) 
5.37243e-07

>  <r_epik_Ionization_Penalty_Charging>  (262) 
0

>  <r_epik_Ionization_Penalty_Neutral>  (262) 
5.37243e-07

>  <r_epik_State_Penalty>  (262) 
-0

>  <r_epik_Charging_Adjusted_Penalty>  (262) 
0

>  <i_epik_Tot_Q>  (262) 
0

>  <i_epik_Tot_abs_Q>  (262) 
0

>  <s_lp_Force_Field>  (262) 
OPLS3e

>  <r_lp_Energy>  (262) 
61.7472

>  <b_lp_Chiralities_Consistent>  (262) 
1

>  <s_lp_Variant>  (262) 
72:0-1

>  <s_i_glide_gridfile>  (262) 
pfpi4k_grid

>  <i_i_glide_lignum>  (262) 
25

>  <i_i_glide_rotatable_bonds>  (262) 
2

>  <r_i_docking_score>  (262) 
-1.72102

>  <r_i_glide_ligand_efficiency>  (262) 
-0.0637415

>  <r_i_glide_ligand_efficiency_sa>  (262) 
-0.191224

>  <r_i_glide_ligand_efficiency_ln>  (262) 
-0.400625

>  <r_i_glide_gscore>  (262) 
-1.72102

>  <r_i_glide_lipo>  (262) 
0

>  <r_i_glide_hbond>  (262) 
-0.0882587

>  <r_i_glide_metal>  (262) 
-0

>  <r_i_glide_rewards>  (262) 
-0.855295

>  <r_i_glide_evdw>  (262) 
-14.3509

>  <r_i_glide_ecoul>  (262) 
-0.39949

>  <r_i_glide_erotb>  (262) 
0

>  <r_i_glide_esite>  (262) 
0

>  <r_i_glide_emodel>  (262) 
-7.60018

>  <r_i_glide_energy>  (262) 
-14.7504

>  <r_i_glide_einternal>  (262) 
12.924

>  <r_i_glide_intrahb_reward>  (262) 
-0

>  <i_i_glide_confnum>  (262) 
2

>  <i_i_glide_posenum>  (262) 
11

>  <r_i_glide_eff_state_penalty>  (262) 
0

>  <ligand_id>  (262) 
72

>  <original_smiles>  (262) 
COC1CC2C(C3OC4(C)CC1(C)C1(CC5C(C1O)C5(C)C)C34C)C2(C)C

>  <smiles>  (262) 
[H]OC1([H])C2([H])C([H])(C([H])([H])C13C1(C([H])([H])[H])C([H])([H])C4(C([H])([H])[H])OC([H])(C5([H])C([H])(C([H])([H])C1([H])OC([H])([H])[H])C5(C([H])([H])[H])C([H])([H])[H])C43C([H])([H])[H])C2(C([H])([H])[H])C([H])([H])[H]

$$$$
73:0:0
     RDKit          3D

 37 39  0  0  1  0  0  0  0  0999 V2000
    3.3993    0.1283    2.0363 C   0  0  0  0  0  0  0  0  0  0  0  0
    3.2805   -0.9856    3.0867 C   0  0  0  0  0  0  0  0  0  0  0  0
    2.6045   -0.4511    4.3650 C   0  0  0  0  0  0  0  0  0  0  0  0
    2.4036   -2.0822    2.5300 C   0  0  0  0  0  0  0  0  0  0  0  0
    2.6427   -3.3919    2.6928 C   0  0  0  0  0  0  0  0  0  0  0  0
    1.8151   -4.2829    2.0791 O   0  0  0  0  0  0  0  0  0  0  0  0
    2.2456   -5.4928    1.6117 C   0  0  0  0  0  0  0  0  0  0  0  0
    1.1845   -6.2541    1.2983 N   0  0  0  0  0  0  0  0  0  0  0  0
    3.5417   -6.1012    2.1618 C   0  0  1  0  0  0  0  0  0  0  0  0
    4.1513   -7.0610    1.2270 C   0  0  0  0  0  0  0  0  0  0  0  0
    4.6273   -7.8171    0.4964 N   0  0  0  0  0  0  0  0  0  0  0  0
    4.5443   -5.0332    2.6482 C   0  0  1  0  0  0  0  0  0  0  0  0
    5.3616   -4.4398    1.5086 C   0  0  0  0  0  0  0  0  0  0  0  0
    6.7733   -4.5370    1.3356 C   0  0  0  0  0  0  0  0  0  0  0  0
    7.0752   -3.8572    0.1912 C   0  0  0  0  0  0  0  0  0  0  0  0
    5.9562   -3.3443   -0.3751 O   0  0  0  0  0  0  0  0  0  0  0  0
    4.9268   -3.7135    0.4264 C   0  0  0  0  0  0  0  0  0  0  0  0
    3.7980   -3.9854    3.4858 C   0  0  1  0  0  0  0  0  0  0  0  0
    4.6872   -2.8882    4.0852 C   0  0  0  0  0  0  0  0  0  0  0  0
    5.3693   -3.1048    5.0814 O   0  0  0  0  0  0  0  0  0  0  0  0
    4.7003   -1.5259    3.3909 C   0  0  0  0  0  0  0  0  0  0  0  0
    4.0200    0.9420    2.4084 H   0  0  0  0  0  0  0  0  0  0  0  0
    2.4265    0.5426    1.7685 H   0  0  0  0  0  0  0  0  0  0  0  0
    3.8550   -0.2493    1.1194 H   0  0  0  0  0  0  0  0  0  0  0  0
    3.1871    0.3471    4.8309 H   0  0  0  0  0  0  0  0  0  0  0  0
    2.4813   -1.2485    5.1030 H   0  0  0  0  0  0  0  0  0  0  0  0
    1.6053   -0.0651    4.1462 H   0  0  0  0  0  0  0  0  0  0  0  0
    1.5629   -1.7628    1.9284 H   0  0  0  0  0  0  0  0  0  0  0  0
    1.5375   -7.2001    1.1194 H   0  0  0  0  0  0  0  0  0  0  0  0
    5.2715   -5.5283    3.2973 H   0  0  0  0  0  0  0  0  0  0  0  0
    7.4907   -5.0395    1.9719 H   0  0  0  0  0  0  0  0  0  0  0  0
    7.9919   -3.6632   -0.3419 H   0  0  0  0  0  0  0  0  0  0  0  0
    3.9657   -3.3642    0.0777 H   0  0  0  0  0  0  0  0  0  0  0  0
    3.3420   -4.5002    4.3308 H   0  0  0  0  0  0  0  0  0  0  0  0
    5.2618   -1.6473    2.4644 H   0  0  0  0  0  0  0  0  0  0  0  0
    5.2587   -0.8086    3.9911 H   0  0  0  0  0  0  0  0  0  0  0  0
    3.2404   -6.6848    3.0328 H   0  0  0  0  0  0  0  0  0  0  0  0
  1  2  1  0
  1 22  1  0
  1 23  1  0
  1 24  1  0
  2 21  1  0
  2  3  1  0
  2  4  1  0
  3 25  1  0
  3 26  1  0
  3 27  1  0
  4  5  2  0
  4 28  1  0
  5 18  1  0
  5  6  1  0
  6  7  1  0
  7  8  1  0
  7  9  1  0
  8 29  1  0
  9 10  1  0
  9 12  1  0
  9 37  1  1
 10 11  3  0
 12 13  1  0
 12 18  1  0
 12 30  1  1
 13 17  2  0
 13 14  1  0
 14 15  2  0
 14 31  1  0
 15 16  1  0
 15 32  1  0
 16 17  1  0
 17 33  1  0
 18 19  1  0
 18 34  1  1
 19 20  2  0
 19 21  1  0
 21 35  1  0
 21 36  1  0
M  CHG  2   7   1   8  -1
M  END
>  <i_m_ct_stereo_status>  (263) 
1

>  <s_m_source_file>  (263) 
/var/tmp/pbs.5076255.sched01/tmptpdlle0r/921kky2sk3.sdf

>  <i_m_source_file_index>  (263) 
26

>  <i_lp_mmshare_version>  (263) 
48012

>  <i_f3d_flags>  (263) 
0

>  <s_epik_input>  (263) 
W0NIM11DKFtDSDNdKShbQ0hdPTEpW0NIMl1DKD1PKVtDQEBIXShDMTIpW0NAQEhdKFtDQEhdKEMjTilDKFxPMik9TlxbSF0pYzNbY0hdW2NIXW9bY0hdMw==

>  <s_epik_cmdline>  (263) 
J2VwaWtfcHl0aG9uJywgJy1waHQnLCAnMi4wJywgJy1waCcsICc3LjAnLCAnLXRuJywgJzgnLCAnLW1hJywgJzIwMCcsICctaW1hZScsICc8aW5maWxlLm1hZT4nLCAnLW9tYWUnLCAnPG91dGZpbGUubWFlPic=

>  <r_lp_tautomer_probability>  (263) 
0.99995

>  <r_epik_Ionization_Penalty>  (263) 
1.71717e-10

>  <r_epik_Ionization_Penalty_Charging>  (263) 
0

>  <r_epik_Ionization_Penalty_Neutral>  (263) 
1.71717e-10

>  <r_epik_State_Penalty>  (263) 
0.521704

>  <r_epik_Charging_Adjusted_Penalty>  (263) 
0.521704

>  <i_epik_Tot_Q>  (263) 
0

>  <i_epik_Tot_abs_Q>  (263) 
2

>  <s_lp_Force_Field>  (263) 
OPLS3e

>  <r_lp_Energy>  (263) 
8.71943

>  <b_lp_Chiralities_Consistent>  (263) 
1

>  <s_lp_Variant>  (263) 
73:0-1

>  <s_i_glide_gridfile>  (263) 
pfpi4k_grid

>  <i_i_glide_lignum>  (263) 
26

>  <i_i_glide_rotatable_bonds>  (263) 
2

>  <r_i_docking_score>  (263) 
-4.08401

>  <r_i_glide_ligand_efficiency>  (263) 
-0.194477

>  <r_i_glide_ligand_efficiency_sa>  (263) 
-0.536547

>  <r_i_glide_ligand_efficiency_ln>  (263) 
-1.00976

>  <r_i_glide_gscore>  (263) 
-4.08401

>  <r_i_glide_lipo>  (263) 
-0.409308

>  <r_i_glide_hbond>  (263) 
-0.125331

>  <r_i_glide_metal>  (263) 
-0

>  <r_i_glide_rewards>  (263) 
-1.638

>  <r_i_glide_evdw>  (263) 
-16.8048

>  <r_i_glide_ecoul>  (263) 
-8.63576

>  <r_i_glide_erotb>  (263) 
0.224229

>  <r_i_glide_esite>  (263) 
0

>  <r_i_glide_emodel>  (263) 
-32.0672

>  <r_i_glide_energy>  (263) 
-25.4406

>  <r_i_glide_einternal>  (263) 
0.588755

>  <r_i_glide_intrahb_reward>  (263) 
-0

>  <i_i_glide_confnum>  (263) 
1

>  <i_i_glide_posenum>  (263) 
16

>  <r_i_glide_eff_state_penalty>  (263) 
0

>  <ligand_id>  (263) 
73

>  <original_smiles>  (263) 
CC1(C)C=C2OC(=N)C(C#N)C(c3ccoc3)C2C(=O)C1

>  <smiles>  (263) 
[H][N-][C+]1OC2=C([H])C(C([H])([H])[H])(C([H])([H])[H])C([H])([H])C(=O)C2([H])C([H])(c2c([H])oc([H])c2[H])C1([H])C#N

$$$$
73:0:1
     RDKit          3D

 37 39  0  0  1  0  0  0  0  0999 V2000
    3.1907   -3.3278   -3.8428 C   0  0  0  0  0  0  0  0  0  0  0  0
    4.0752   -2.4065   -3.0024 C   0  0  0  0  0  0  0  0  0  0  0  0
    4.3418   -1.1413   -3.8193 C   0  0  0  0  0  0  0  0  0  0  0  0
    3.3146   -1.9451   -1.7933 C   0  0  0  0  0  0  0  0  0  0  0  0
    3.8277   -1.7712   -0.5626 C   0  0  0  0  0  0  0  0  0  0  0  0
    3.0231   -1.3785    0.4807 O   0  0  0  0  0  0  0  0  0  0  0  0
    3.2254   -1.8457    1.7604 C   0  0  0  0  0  0  0  0  0  0  0  0
    2.4971   -1.1696    2.6385 N   0  0  0  0  0  0  0  0  0  0  0  0
    4.6042   -2.3369    2.1790 C   0  0  1  0  0  0  0  0  0  0  0  0
    4.5558   -3.2248    3.3534 C   0  0  0  0  0  0  0  0  0  0  0  0
    4.5240   -3.9244    4.2767 N   0  0  0  0  0  0  0  0  0  0  0  0
    5.4262   -2.9186    1.0150 C   0  0  1  0  0  0  0  0  0  0  0  0
    5.0555   -4.3616    0.7346 C   0  0  0  0  0  0  0  0  0  0  0  0
    5.8663   -5.5124    0.9969 C   0  0  0  0  0  0  0  0  0  0  0  0
    5.1288   -6.5893    0.6164 C   0  0  0  0  0  0  0  0  0  0  0  0
    3.9263   -6.2117    0.1159 O   0  0  0  0  0  0  0  0  0  0  0  0
    3.8947   -4.8633    0.2083 C   0  0  0  0  0  0  0  0  0  0  0  0
    5.2911   -2.0028   -0.2039 C   0  0  1  0  0  0  0  0  0  0  0  0
    6.1012   -2.4581   -1.4312 C   0  0  0  0  0  0  0  0  0  0  0  0
    7.3079   -2.2561   -1.4812 O   0  0  0  0  0  0  0  0  0  0  0  0
    5.3597   -3.1563   -2.5806 C   0  0  0  0  0  0  0  0  0  0  0  0
    3.7264   -3.7067   -4.7125 H   0  0  0  0  0  0  0  0  0  0  0  0
    2.2650   -2.8413   -4.1563 H   0  0  0  0  0  0  0  0  0  0  0  0
    2.8831   -4.1720   -3.2420 H   0  0  0  0  0  0  0  0  0  0  0  0
    4.9104   -1.3600   -4.7255 H   0  0  0  0  0  0  0  0  0  0  0  0
    4.9279   -0.4465   -3.2060 H   0  0  0  0  0  0  0  0  0  0  0  0
    3.4220   -0.6219   -4.1125 H   0  0  0  0  0  0  0  0  0  0  0  0
    2.2596   -1.8146   -1.9732 H   0  0  0  0  0  0  0  0  0  0  0  0
    2.8131   -1.4147    3.5812 H   0  0  0  0  0  0  0  0  0  0  0  0
    6.4791   -2.9470    1.3131 H   0  0  0  0  0  0  0  0  0  0  0  0
    6.8698   -5.5576    1.4082 H   0  0  0  0  0  0  0  0  0  0  0  0
    5.3050   -7.6517    0.6040 H   0  0  0  0  0  0  0  0  0  0  0  0
    2.9767   -4.4440   -0.1677 H   0  0  0  0  0  0  0  0  0  0  0  0
    5.6815   -1.0211    0.0828 H   0  0  0  0  0  0  0  0  0  0  0  0
    5.1023   -4.1580   -2.2396 H   0  0  0  0  0  0  0  0  0  0  0  0
    6.0313   -3.2822   -3.4242 H   0  0  0  0  0  0  0  0  0  0  0  0
    5.1351   -1.4426    2.5149 H   0  0  0  0  0  0  0  0  0  0  0  0
  1  2  1  0
  1 22  1  0
  1 23  1  0
  1 24  1  0
  2 21  1  0
  2  3  1  0
  2  4  1  0
  3 25  1  0
  3 26  1  0
  3 27  1  0
  4  5  2  0
  4 28  1  0
  5 18  1  0
  5  6  1  0
  6  7  1  0
  7  8  1  0
  7  9  1  0
  8 29  1  0
  9 10  1  0
  9 12  1  0
  9 37  1  1
 10 11  3  0
 12 13  1  0
 12 18  1  0
 12 30  1  1
 13 17  2  0
 13 14  1  0
 14 15  2  0
 14 31  1  0
 15 16  1  0
 15 32  1  0
 16 17  1  0
 17 33  1  0
 18 19  1  0
 18 34  1  1
 19 20  2  0
 19 21  1  0
 21 35  1  0
 21 36  1  0
M  CHG  2   7   1   8  -1
M  END
>  <i_m_ct_stereo_status>  (264) 
1

>  <s_m_source_file>  (264) 
/var/tmp/pbs.5076255.sched01/tmptpdlle0r/921kky2sk3.sdf

>  <i_m_source_file_index>  (264) 
26

>  <i_lp_mmshare_version>  (264) 
48012

>  <i_f3d_flags>  (264) 
0

>  <s_epik_input>  (264) 
W0NIM11DKFtDSDNdKShbQ0hdPTEpW0NIMl1DKD1PKVtDQEBIXShDMTIpW0NAQEhdKFtDQEhdKEMjTilDKFxPMik9TlxbSF0pYzNbY0hdW2NIXW9bY0hdMw==

>  <s_epik_cmdline>  (264) 
J2VwaWtfcHl0aG9uJywgJy1waHQnLCAnMi4wJywgJy1waCcsICc3LjAnLCAnLXRuJywgJzgnLCAnLW1hJywgJzIwMCcsICctaW1hZScsICc8aW5maWxlLm1hZT4nLCAnLW9tYWUnLCAnPG91dGZpbGUubWFlPic=

>  <r_lp_tautomer_probability>  (264) 
0.99995

>  <r_epik_Ionization_Penalty>  (264) 
1.71717e-10

>  <r_epik_Ionization_Penalty_Charging>  (264) 
0

>  <r_epik_Ionization_Penalty_Neutral>  (264) 
1.71717e-10

>  <r_epik_State_Penalty>  (264) 
0.521704

>  <r_epik_Charging_Adjusted_Penalty>  (264) 
0.521704

>  <i_epik_Tot_Q>  (264) 
0

>  <i_epik_Tot_abs_Q>  (264) 
2

>  <s_lp_Force_Field>  (264) 
OPLS3e

>  <r_lp_Energy>  (264) 
8.71943

>  <b_lp_Chiralities_Consistent>  (264) 
1

>  <s_lp_Variant>  (264) 
73:0-1

>  <s_i_glide_gridfile>  (264) 
pfpi4k_grid

>  <i_i_glide_lignum>  (264) 
26

>  <i_i_glide_rotatable_bonds>  (264) 
2

>  <r_i_docking_score>  (264) 
-3.834

>  <r_i_glide_ligand_efficiency>  (264) 
-0.182571

>  <r_i_glide_ligand_efficiency_sa>  (264) 
-0.5037

>  <r_i_glide_ligand_efficiency_ln>  (264) 
-0.947948

>  <r_i_glide_gscore>  (264) 
-3.834

>  <r_i_glide_lipo>  (264) 
-0.946184

>  <r_i_glide_hbond>  (264) 
-0.16

>  <r_i_glide_metal>  (264) 
-0

>  <r_i_glide_rewards>  (264) 
-1.50116

>  <r_i_glide_evdw>  (264) 
-21.8324

>  <r_i_glide_ecoul>  (264) 
-2.18646

>  <r_i_glide_erotb>  (264) 
0.224229

>  <r_i_glide_esite>  (264) 
-0.0312958

>  <r_i_glide_emodel>  (264) 
-30.0371

>  <r_i_glide_energy>  (264) 
-24.0189

>  <r_i_glide_einternal>  (264) 
0.691594

>  <r_i_glide_intrahb_reward>  (264) 
-0

>  <i_i_glide_confnum>  (264) 
1

>  <i_i_glide_posenum>  (264) 
29

>  <r_i_glide_eff_state_penalty>  (264) 
0

>  <ligand_id>  (264) 
73

>  <original_smiles>  (264) 
CC1(C)C=C2OC(=N)C(C#N)C(c3ccoc3)C2C(=O)C1

>  <smiles>  (264) 
[H][N-][C+]1OC2=C([H])C(C([H])([H])[H])(C([H])([H])[H])C([H])([H])C(=O)C2([H])C([H])(c2c([H])oc([H])c2[H])C1([H])C#N

$$$$
73:0:2
     RDKit          3D

 37 39  0  0  1  0  0  0  0  0999 V2000
    2.4525   -3.0386   -3.7115 C   0  0  0  0  0  0  0  0  0  0  0  0
    3.6708   -2.2704   -3.1921 C   0  0  0  0  0  0  0  0  0  0  0  0
    4.1423   -1.2328   -4.2078 C   0  0  0  0  0  0  0  0  0  0  0  0
    3.2578   -1.4711   -1.9863 C   0  0  0  0  0  0  0  0  0  0  0  0
    3.9611   -1.3444   -0.8430 C   0  0  0  0  0  0  0  0  0  0  0  0
    3.4140   -0.6620    0.2202 O   0  0  0  0  0  0  0  0  0  0  0  0
    3.7090   -1.0170    1.5134 C   0  0  0  0  0  0  0  0  0  0  0  0
    3.3196   -0.0554    2.3569 N   0  0  0  0  0  0  0  0  0  0  0  0
    4.9809   -1.8085    1.8252 C   0  0  1  0  0  0  0  0  0  0  0  0
    4.8838   -2.5275    3.1137 C   0  0  0  0  0  0  0  0  0  0  0  0
    4.8069   -3.0866    4.1242 N   0  0  0  0  0  0  0  0  0  0  0  0
    5.4291   -2.7247    0.6748 C   0  0  1  0  0  0  0  0  0  0  0  0
    4.6696   -4.0383    0.6446 C   0  0  0  0  0  0  0  0  0  0  0  0
    5.2276   -5.3441    0.7702 C   0  0  0  0  0  0  0  0  0  0  0  0
    4.1821   -6.2153    0.6882 C   0  0  0  0  0  0  0  0  0  0  0  0
    3.0111   -5.5589    0.5085 O   0  0  0  0  0  0  0  0  0  0  0  0
    3.3215   -4.2411    0.4864 C   0  0  0  0  0  0  0  0  0  0  0  0
    5.3439   -1.9396   -0.6339 C   0  0  1  0  0  0  0  0  0  0  0  0
    5.8253   -2.7194   -1.8581 C   0  0  0  0  0  0  0  0  0  0  0  0
    7.0282   -2.8459   -2.0385 O   0  0  0  0  0  0  0  0  0  0  0  0
    4.7640   -3.2954   -2.8100 C   0  0  0  0  0  0  0  0  0  0  0  0
    2.7053   -3.6110   -4.5981 H   0  0  0  0  0  0  0  0  0  0  0  0
    1.6303   -2.3699   -3.9769 H   0  0  0  0  0  0  0  0  0  0  0  0
    2.0709   -3.7355   -2.9616 H   0  0  0  0  0  0  0  0  0  0  0  0
    4.4838   -1.7050   -5.1050 H   0  0  0  0  0  0  0  0  0  0  0  0
    4.9723   -0.6604   -3.7957 H   0  0  0  0  0  0  0  0  0  0  0  0
    3.3454   -0.5258   -4.4623 H   0  0  0  0  0  0  0  0  0  0  0  0
    2.3036   -0.9880   -2.1035 H   0  0  0  0  0  0  0  0  0  0  0  0
    3.7031   -0.2817    3.2841 H   0  0  0  0  0  0  0  0  0  0  0  0
    6.4734   -2.9971    0.8457 H   0  0  0  0  0  0  0  0  0  0  0  0
    6.2656   -5.6195    0.9154 H   0  0  0  0  0  0  0  0  0  0  0  0
    4.1104   -7.2900    0.7391 H   0  0  0  0  0  0  0  0  0  0  0  0
    2.4656   -3.5958    0.3453 H   0  0  0  0  0  0  0  0  0  0  0  0
    6.0027   -1.0787   -0.5411 H   0  0  0  0  0  0  0  0  0  0  0  0
    4.3118   -4.1479   -2.2986 H   0  0  0  0  0  0  0  0  0  0  0  0
    5.2296   -3.6980   -3.7024 H   0  0  0  0  0  0  0  0  0  0  0  0
    5.7569   -1.0576    1.9691 H   0  0  0  0  0  0  0  0  0  0  0  0
  1  2  1  0
  1 22  1  0
  1 23  1  0
  1 24  1  0
  2 21  1  0
  2  3  1  0
  2  4  1  0
  3 25  1  0
  3 26  1  0
  3 27  1  0
  4  5  2  0
  4 28  1  0
  5 18  1  0
  5  6  1  0
  6  7  1  0
  7  8  1  0
  7  9  1  0
  8 29  1  0
  9 10  1  0
  9 12  1  0
  9 37  1  1
 10 11  3  0
 12 13  1  0
 12 18  1  0
 12 30  1  1
 13 17  2  0
 13 14  1  0
 14 15  2  0
 14 31  1  0
 15 16  1  0
 15 32  1  0
 16 17  1  0
 17 33  1  0
 18 19  1  0
 18 34  1  1
 19 20  2  0
 19 21  1  0
 21 35  1  0
 21 36  1  0
M  CHG  2   7   1   8  -1
M  END
>  <i_m_ct_stereo_status>  (265) 
1

>  <s_m_source_file>  (265) 
/var/tmp/pbs.5076255.sched01/tmptpdlle0r/921kky2sk3.sdf

>  <i_m_source_file_index>  (265) 
26

>  <i_lp_mmshare_version>  (265) 
48012

>  <i_f3d_flags>  (265) 
0

>  <s_epik_input>  (265) 
W0NIM11DKFtDSDNdKShbQ0hdPTEpW0NIMl1DKD1PKVtDQEBIXShDMTIpW0NAQEhdKFtDQEhdKEMjTilDKFxPMik9TlxbSF0pYzNbY0hdW2NIXW9bY0hdMw==

>  <s_epik_cmdline>  (265) 
J2VwaWtfcHl0aG9uJywgJy1waHQnLCAnMi4wJywgJy1waCcsICc3LjAnLCAnLXRuJywgJzgnLCAnLW1hJywgJzIwMCcsICctaW1hZScsICc8aW5maWxlLm1hZT4nLCAnLW9tYWUnLCAnPG91dGZpbGUubWFlPic=

>  <r_lp_tautomer_probability>  (265) 
0.99995

>  <r_epik_Ionization_Penalty>  (265) 
1.71717e-10

>  <r_epik_Ionization_Penalty_Charging>  (265) 
0

>  <r_epik_Ionization_Penalty_Neutral>  (265) 
1.71717e-10

>  <r_epik_State_Penalty>  (265) 
0.521704

>  <r_epik_Charging_Adjusted_Penalty>  (265) 
0.521704

>  <i_epik_Tot_Q>  (265) 
0

>  <i_epik_Tot_abs_Q>  (265) 
2

>  <s_lp_Force_Field>  (265) 
OPLS3e

>  <r_lp_Energy>  (265) 
8.71943

>  <b_lp_Chiralities_Consistent>  (265) 
1

>  <s_lp_Variant>  (265) 
73:0-1

>  <s_i_glide_gridfile>  (265) 
pfpi4k_grid

>  <i_i_glide_lignum>  (265) 
26

>  <i_i_glide_rotatable_bonds>  (265) 
2

>  <r_i_docking_score>  (265) 
-3.47708

>  <r_i_glide_ligand_efficiency>  (265) 
-0.165575

>  <r_i_glide_ligand_efficiency_sa>  (265) 
-0.45681

>  <r_i_glide_ligand_efficiency_ln>  (265) 
-0.859701

>  <r_i_glide_gscore>  (265) 
-3.47708

>  <r_i_glide_lipo>  (265) 
-0.807946

>  <r_i_glide_hbond>  (265) 
-0.0265385

>  <r_i_glide_metal>  (265) 
-0

>  <r_i_glide_rewards>  (265) 
-1.54355

>  <r_i_glide_evdw>  (265) 
-25.4537

>  <r_i_glide_ecoul>  (265) 
-0.337281

>  <r_i_glide_erotb>  (265) 
0.224229

>  <r_i_glide_esite>  (265) 
0

>  <r_i_glide_emodel>  (265) 
-31.3423

>  <r_i_glide_energy>  (265) 
-25.7909

>  <r_i_glide_einternal>  (265) 
0.546008

>  <r_i_glide_intrahb_reward>  (265) 
-0

>  <i_i_glide_confnum>  (265) 
3

>  <i_i_glide_posenum>  (265) 
33

>  <r_i_glide_eff_state_penalty>  (265) 
0

>  <ligand_id>  (265) 
73

>  <original_smiles>  (265) 
CC1(C)C=C2OC(=N)C(C#N)C(c3ccoc3)C2C(=O)C1

>  <smiles>  (265) 
[H][N-][C+]1OC2=C([H])C(C([H])([H])[H])(C([H])([H])[H])C([H])([H])C(=O)C2([H])C([H])(c2c([H])oc([H])c2[H])C1([H])C#N

$$$$
73:1:0
     RDKit          3D

 37 39  0  0  1  0  0  0  0  0999 V2000
    4.1401   -1.0143   -3.7630 C   0  0  0  0  0  0  0  0  0  0  0  0
    3.8985   -2.4136   -3.1815 C   0  0  0  0  0  0  0  0  0  0  0  0
    3.6610   -3.4291   -4.2970 C   0  0  0  0  0  0  0  0  0  0  0  0
    5.1326   -2.8608   -2.4216 C   0  0  0  0  0  0  0  0  0  0  0  0
    5.0877   -3.5266   -1.2615 C   0  0  0  0  0  0  0  0  0  0  0  0
    6.2799   -3.8508   -0.6693 O   0  0  0  0  0  0  0  0  0  0  0  0
    6.3969   -3.9314    0.7024 C   0  0  0  0  0  0  0  0  0  0  0  0
    7.5511   -3.8380    1.2129 N   0  0  0  0  0  0  0  0  0  0  0  0
    5.1167   -4.1683    1.5204 C   0  0  1  0  0  0  0  0  0  0  0  0
    5.2486   -3.7857    2.9371 C   0  0  0  0  0  0  0  0  0  0  0  0
    5.3495   -3.4927    4.0476 N   0  0  0  0  0  0  0  0  0  0  0  0
    3.8355   -3.5896    0.9060 C   0  0  1  0  0  0  0  0  0  0  0  0
    3.6466   -2.1102    1.1766 C   0  0  0  0  0  0  0  0  0  0  0  0
    2.5203   -1.5020    1.7917 C   0  0  0  0  0  0  0  0  0  0  0  0
    2.7685   -0.1588    1.8206 C   0  0  0  0  0  0  0  0  0  0  0  0
    3.9785    0.1203    1.2714 O   0  0  0  0  0  0  0  0  0  0  0  0
    4.4968   -1.0704    0.8886 C   0  0  0  0  0  0  0  0  0  0  0  0
    3.8017   -3.9673   -0.5723 C   0  0  1  0  0  0  0  0  0  0  0  0
    2.5311   -3.5118   -1.3025 C   0  0  0  0  0  0  0  0  0  0  0  0
    1.4508   -4.0756   -1.1211 O   0  0  0  0  0  0  0  0  0  0  0  0
    2.6712   -2.3345   -2.2580 C   0  0  0  0  0  0  0  0  0  0  0  0
    3.2708   -0.6499   -4.3145 H   0  0  0  0  0  0  0  0  0  0  0  0
    4.9930   -1.0113   -4.4417 H   0  0  0  0  0  0  0  0  0  0  0  0
    4.3420   -0.2993   -2.9636 H   0  0  0  0  0  0  0  0  0  0  0  0
    2.7690   -3.1596   -4.8616 H   0  0  0  0  0  0  0  0  0  0  0  0
    3.5053   -4.4368   -3.9221 H   0  0  0  0  0  0  0  0  0  0  0  0
    4.5339   -3.5094   -4.9411 H   0  0  0  0  0  0  0  0  0  0  0  0
    6.0890   -2.6094   -2.8580 H   0  0  0  0  0  0  0  0  0  0  0  0
    7.5632   -3.8668    2.2239 H   0  0  0  0  0  0  0  0  0  0  0  0
    5.0034   -5.2530    1.5347 H   0  0  0  0  0  0  0  0  0  0  0  0
    2.9953   -4.0860    1.3996 H   0  0  0  0  0  0  0  0  0  0  0  0
    1.6209   -1.9811    2.1578 H   0  0  0  0  0  0  0  0  0  0  0  0
    2.2119    0.6948    2.1751 H   0  0  0  0  0  0  0  0  0  0  0  0
    5.4689   -1.0008    0.4227 H   0  0  0  0  0  0  0  0  0  0  0  0
    3.8071   -5.0547   -0.6287 H   0  0  0  0  0  0  0  0  0  0  0  0
    2.7499   -1.4430   -1.6373 H   0  0  0  0  0  0  0  0  0  0  0  0
    1.7597   -2.2478   -2.8445 H   0  0  0  0  0  0  0  0  0  0  0  0
  1  2  1  0
  1 22  1  0
  1 23  1  0
  1 24  1  0
  2 21  1  0
  2  3  1  0
  2  4  1  0
  3 25  1  0
  3 26  1  0
  3 27  1  0
  4  5  2  0
  4 28  1  0
  5 18  1  0
  5  6  1  0
  6  7  1  0
  7  8  2  3
  7  9  1  0
  8 29  1  0
  9 10  1  0
  9 12  1  0
  9 30  1  1
 10 11  3  0
 12 13  1  0
 12 18  1  0
 12 31  1  1
 13 17  2  0
 13 14  1  0
 14 15  2  0
 14 32  1  0
 15 16  1  0
 15 33  1  0
 16 17  1  0
 17 34  1  0
 18 19  1  0
 18 35  1  1
 19 20  2  0
 19 21  1  0
 21 36  1  0
 21 37  1  0
M  END
>  <i_m_ct_stereo_status>  (266) 
1

>  <s_m_source_file>  (266) 
/var/tmp/pbs.5076255.sched01/tmptpdlle0r/921kky2sk3.sdf

>  <i_m_source_file_index>  (266) 
27

>  <i_lp_mmshare_version>  (266) 
48012

>  <i_f3d_flags>  (266) 
0

>  <s_epik_input>  (266) 
W0NIM11DKFtDSDNdKShbQ0hdPTEpW0NIMl1DKD1PKVtDQEBIXShDMTIpW0NAQEhdKFtDQEhdKEMjTilDKFxPMik9TlxbSF0pYzNbY0hdW2NIXW9bY0hdMw==

>  <s_epik_cmdline>  (266) 
J2VwaWtfcHl0aG9uJywgJy1waHQnLCAnMi4wJywgJy1waCcsICc3LjAnLCAnLXRuJywgJzgnLCAnLW1hJywgJzIwMCcsICctaW1hZScsICc8aW5maWxlLm1hZT4nLCAnLW9tYWUnLCAnPG91dGZpbGUubWFlPic=

>  <r_lp_tautomer_probability>  (266) 
0.99995

>  <r_epik_Ionization_Penalty>  (266) 
0.0181412

>  <r_epik_Ionization_Penalty_Charging>  (266) 
0

>  <r_epik_Ionization_Penalty_Neutral>  (266) 
0.0181412

>  <r_epik_State_Penalty>  (266) 
0.735787

>  <r_epik_Charging_Adjusted_Penalty>  (266) 
0.735787

>  <i_epik_Tot_Q>  (266) 
0

>  <i_epik_Tot_abs_Q>  (266) 
0

>  <s_epik_Chemistry_Notes>  (266) 
This compound has an imine and may undergo hydrolysis.

>  <s_lp_Force_Field>  (266) 
OPLS3e

>  <r_lp_Energy>  (266) 
7.73432

>  <b_lp_Chiralities_Consistent>  (266) 
1

>  <s_lp_Variant>  (266) 
73:0-2

>  <s_i_glide_gridfile>  (266) 
pfpi4k_grid

>  <i_i_glide_lignum>  (266) 
27

>  <i_i_glide_rotatable_bonds>  (266) 
2

>  <r_i_docking_score>  (266) 
-3.37625

>  <r_i_glide_ligand_efficiency>  (266) 
-0.160774

>  <r_i_glide_ligand_efficiency_sa>  (266) 
-0.443562

>  <r_i_glide_ligand_efficiency_ln>  (266) 
-0.83477

>  <r_i_glide_gscore>  (266) 
-3.37625

>  <r_i_glide_lipo>  (266) 
-0.635494

>  <r_i_glide_hbond>  (266) 
-0.0113281

>  <r_i_glide_metal>  (266) 
-0

>  <r_i_glide_rewards>  (266) 
-1.69703

>  <r_i_glide_evdw>  (266) 
-18.3069

>  <r_i_glide_ecoul>  (266) 
-2.2752

>  <r_i_glide_erotb>  (266) 
0.224229

>  <r_i_glide_esite>  (266) 
0

>  <r_i_glide_emodel>  (266) 
-25.6898

>  <r_i_glide_energy>  (266) 
-20.5821

>  <r_i_glide_einternal>  (266) 
0.806772

>  <r_i_glide_intrahb_reward>  (266) 
-0

>  <i_i_glide_confnum>  (266) 
1

>  <i_i_glide_posenum>  (266) 
35

>  <r_i_glide_eff_state_penalty>  (266) 
0

>  <ligand_id>  (266) 
73

>  <original_smiles>  (266) 
CC1(C)C=C2OC(=N)C(C#N)C(c3ccoc3)C2C(=O)C1

>  <smiles>  (266) 
[H]N=C1OC2=C([H])C(C([H])([H])[H])(C([H])([H])[H])C([H])([H])C(=O)C2([H])C([H])(c2c([H])oc([H])c2[H])C1([H])C#N

$$$$
73:1:1
     RDKit          3D

 37 39  0  0  1  0  0  0  0  0999 V2000
    4.6123   -3.7948   -3.3628 C   0  0  0  0  0  0  0  0  0  0  0  0
    4.3466   -2.7605   -2.2510 C   0  0  0  0  0  0  0  0  0  0  0  0
    3.6651   -1.5071   -2.8410 C   0  0  0  0  0  0  0  0  0  0  0  0
    3.3977   -3.3702   -1.2317 C   0  0  0  0  0  0  0  0  0  0  0  0
    3.5125   -3.2108    0.0967 C   0  0  0  0  0  0  0  0  0  0  0  0
    2.6135   -3.8598    0.9048 O   0  0  0  0  0  0  0  0  0  0  0  0
    2.9525   -4.2931    2.1711 C   0  0  0  0  0  0  0  0  0  0  0  0
    2.2614   -5.2085    2.7079 N   0  0  0  0  0  0  0  0  0  0  0  0
    4.1450   -3.6112    2.8620 C   0  0  1  0  0  0  0  0  0  0  0  0
    4.6689   -4.4166    3.9777 C   0  0  0  0  0  0  0  0  0  0  0  0
    5.0783   -5.0522    4.8526 N   0  0  0  0  0  0  0  0  0  0  0  0
    5.2469   -3.1135    1.9076 C   0  0  1  0  0  0  0  0  0  0  0  0
    6.1951   -4.2149    1.4421 C   0  0  0  0  0  0  0  0  0  0  0  0
    6.0026   -5.6276    1.5011 C   0  0  0  0  0  0  0  0  0  0  0  0
    7.1375   -6.2035    1.0128 C   0  0  0  0  0  0  0  0  0  0  0  0
    8.0285   -5.2574    0.6197 O   0  0  0  0  0  0  0  0  0  0  0  0
    7.4445   -4.0638    0.8906 C   0  0  0  0  0  0  0  0  0  0  0  0
    4.5618   -2.3371    0.7785 C   0  0  1  0  0  0  0  0  0  0  0  0
    5.5336   -1.7031   -0.2247 C   0  0  0  0  0  0  0  0  0  0  0  0
    6.2116   -0.7215    0.0760 O   0  0  0  0  0  0  0  0  0  0  0  0
    5.6914   -2.3966   -1.5809 C   0  0  0  0  0  0  0  0  0  0  0  0
    5.3135   -3.4370   -4.1137 H   0  0  0  0  0  0  0  0  0  0  0  0
    3.6895   -4.0814   -3.8663 H   0  0  0  0  0  0  0  0  0  0  0  0
    5.0348   -4.6992   -2.9248 H   0  0  0  0  0  0  0  0  0  0  0  0
    4.3024   -1.0021   -3.5727 H   0  0  0  0  0  0  0  0  0  0  0  0
    3.4277   -0.7882   -2.0484 H   0  0  0  0  0  0  0  0  0  0  0  0
    2.7191   -1.7675   -3.3257 H   0  0  0  0  0  0  0  0  0  0  0  0
    2.6069   -3.9967   -1.6274 H   0  0  0  0  0  0  0  0  0  0  0  0
    2.5742   -5.5034    3.6231 H   0  0  0  0  0  0  0  0  0  0  0  0
    3.7167   -2.7283    3.3398 H   0  0  0  0  0  0  0  0  0  0  0  0
    5.8690   -2.4093    2.4676 H   0  0  0  0  0  0  0  0  0  0  0  0
    5.1525   -6.1805    1.8770 H   0  0  0  0  0  0  0  0  0  0  0  0
    7.4581   -7.2253    0.8875 H   0  0  0  0  0  0  0  0  0  0  0  0
    8.0508   -3.2053    0.6422 H   0  0  0  0  0  0  0  0  0  0  0  0
    4.0039   -1.5124    1.2240 H   0  0  0  0  0  0  0  0  0  0  0  0
    6.2509   -3.3168   -1.4133 H   0  0  0  0  0  0  0  0  0  0  0  0
    6.2913   -1.7934   -2.2598 H   0  0  0  0  0  0  0  0  0  0  0  0
  1  2  1  0
  1 22  1  0
  1 23  1  0
  1 24  1  0
  2 21  1  0
  2  3  1  0
  2  4  1  0
  3 25  1  0
  3 26  1  0
  3 27  1  0
  4  5  2  0
  4 28  1  0
  5 18  1  0
  5  6  1  0
  6  7  1  0
  7  8  2  3
  7  9  1  0
  8 29  1  0
  9 10  1  0
  9 12  1  0
  9 30  1  1
 10 11  3  0
 12 13  1  0
 12 18  1  0
 12 31  1  1
 13 17  2  0
 13 14  1  0
 14 15  2  0
 14 32  1  0
 15 16  1  0
 15 33  1  0
 16 17  1  0
 17 34  1  0
 18 19  1  0
 18 35  1  1
 19 20  2  0
 19 21  1  0
 21 36  1  0
 21 37  1  0
M  END
>  <i_m_ct_stereo_status>  (267) 
1

>  <s_m_source_file>  (267) 
/var/tmp/pbs.5076255.sched01/tmptpdlle0r/921kky2sk3.sdf

>  <i_m_source_file_index>  (267) 
27

>  <i_lp_mmshare_version>  (267) 
48012

>  <i_f3d_flags>  (267) 
0

>  <s_epik_input>  (267) 
W0NIM11DKFtDSDNdKShbQ0hdPTEpW0NIMl1DKD1PKVtDQEBIXShDMTIpW0NAQEhdKFtDQEhdKEMjTilDKFxPMik9TlxbSF0pYzNbY0hdW2NIXW9bY0hdMw==

>  <s_epik_cmdline>  (267) 
J2VwaWtfcHl0aG9uJywgJy1waHQnLCAnMi4wJywgJy1waCcsICc3LjAnLCAnLXRuJywgJzgnLCAnLW1hJywgJzIwMCcsICctaW1hZScsICc8aW5maWxlLm1hZT4nLCAnLW9tYWUnLCAnPG91dGZpbGUubWFlPic=

>  <r_lp_tautomer_probability>  (267) 
0.99995

>  <r_epik_Ionization_Penalty>  (267) 
0.0181412

>  <r_epik_Ionization_Penalty_Charging>  (267) 
0

>  <r_epik_Ionization_Penalty_Neutral>  (267) 
0.0181412

>  <r_epik_State_Penalty>  (267) 
0.735787

>  <r_epik_Charging_Adjusted_Penalty>  (267) 
0.735787

>  <i_epik_Tot_Q>  (267) 
0

>  <i_epik_Tot_abs_Q>  (267) 
0

>  <s_epik_Chemistry_Notes>  (267) 
This compound has an imine and may undergo hydrolysis.

>  <s_lp_Force_Field>  (267) 
OPLS3e

>  <r_lp_Energy>  (267) 
7.73432

>  <b_lp_Chiralities_Consistent>  (267) 
1

>  <s_lp_Variant>  (267) 
73:0-2

>  <s_i_glide_gridfile>  (267) 
pfpi4k_grid

>  <i_i_glide_lignum>  (267) 
27

>  <i_i_glide_rotatable_bonds>  (267) 
2

>  <r_i_docking_score>  (267) 
-3.14132

>  <r_i_glide_ligand_efficiency>  (267) 
-0.149586

>  <r_i_glide_ligand_efficiency_sa>  (267) 
-0.412698

>  <r_i_glide_ligand_efficiency_ln>  (267) 
-0.776684

>  <r_i_glide_gscore>  (267) 
-3.14132

>  <r_i_glide_lipo>  (267) 
-0.501067

>  <r_i_glide_hbond>  (267) 
-0.0116183

>  <r_i_glide_metal>  (267) 
-0

>  <r_i_glide_rewards>  (267) 
-1.47451

>  <r_i_glide_evdw>  (267) 
-24.6796

>  <r_i_glide_ecoul>  (267) 
-0.846724

>  <r_i_glide_erotb>  (267) 
0.224229

>  <r_i_glide_esite>  (267) 
-0.017364

>  <r_i_glide_emodel>  (267) 
-29.6982

>  <r_i_glide_energy>  (267) 
-25.5264

>  <r_i_glide_einternal>  (267) 
1.70828

>  <r_i_glide_intrahb_reward>  (267) 
-0

>  <i_i_glide_confnum>  (267) 
2

>  <i_i_glide_posenum>  (267) 
1

>  <r_i_glide_eff_state_penalty>  (267) 
0

>  <ligand_id>  (267) 
73

>  <original_smiles>  (267) 
CC1(C)C=C2OC(=N)C(C#N)C(c3ccoc3)C2C(=O)C1

>  <smiles>  (267) 
[H]N=C1OC2=C([H])C(C([H])([H])[H])(C([H])([H])[H])C([H])([H])C(=O)C2([H])C([H])(c2c([H])oc([H])c2[H])C1([H])C#N

$$$$
73:1:2
     RDKit          3D

 37 39  0  0  1  0  0  0  0  0999 V2000
    1.4806    0.3955    1.7347 C   0  0  0  0  0  0  0  0  0  0  0  0
    2.0596    0.7946    3.1015 C   0  0  0  0  0  0  0  0  0  0  0  0
    3.2536   -0.1157    3.4653 C   0  0  0  0  0  0  0  0  0  0  0  0
    2.5703    2.2157    3.0094 C   0  0  0  0  0  0  0  0  0  0  0  0
    2.4388    3.1332    3.9800 C   0  0  0  0  0  0  0  0  0  0  0  0
    2.9310    4.3954    3.7495 O   0  0  0  0  0  0  0  0  0  0  0  0
    2.3307    5.5121    4.2933 C   0  0  0  0  0  0  0  0  0  0  0  0
    2.5262    6.6371    3.7548 N   0  0  0  0  0  0  0  0  0  0  0  0
    1.4817    5.3140    5.5584 C   0  0  1  0  0  0  0  0  0  0  0  0
    0.5581    6.4376    5.7907 C   0  0  0  0  0  0  0  0  0  0  0  0
   -0.1741    7.3182    5.9722 N   0  0  0  0  0  0  0  0  0  0  0  0
    0.7743    3.9529    5.6579 C   0  0  1  0  0  0  0  0  0  0  0  0
   -0.5124    3.8726    4.8463 C   0  0  0  0  0  0  0  0  0  0  0  0
   -1.6583    3.0783    5.1447 C   0  0  0  0  0  0  0  0  0  0  0  0
   -2.5704    3.3129    4.1571 C   0  0  0  0  0  0  0  0  0  0  0  0
   -2.0950    4.2247    3.2731 O   0  0  0  0  0  0  0  0  0  0  0  0
   -0.8396    4.5333    3.6868 C   0  0  0  0  0  0  0  0  0  0  0  0
    1.7982    2.8614    5.3373 C   0  0  1  0  0  0  0  0  0  0  0  0
    1.2640    1.4220    5.4580 C   0  0  0  0  0  0  0  0  0  0  0  0
    1.0713    0.8957    6.5528 O   0  0  0  0  0  0  0  0  0  0  0  0
    0.9355    0.6859    4.1586 C   0  0  0  0  0  0  0  0  0  0  0  0
    1.0911   -0.6225    1.7428 H   0  0  0  0  0  0  0  0  0  0  0  0
    2.2259    0.4574    0.9396 H   0  0  0  0  0  0  0  0  0  0  0  0
    0.6579    1.0566    1.4530 H   0  0  0  0  0  0  0  0  0  0  0  0
    2.9553   -1.1616    3.5674 H   0  0  0  0  0  0  0  0  0  0  0  0
    3.7063    0.1919    4.4130 H   0  0  0  0  0  0  0  0  0  0  0  0
    4.0416   -0.0607    2.7086 H   0  0  0  0  0  0  0  0  0  0  0  0
    3.0250    2.5022    2.0757 H   0  0  0  0  0  0  0  0  0  0  0  0
    2.0321    7.4103    4.1797 H   0  0  0  0  0  0  0  0  0  0  0  0
    2.1954    5.3642    6.3830 H   0  0  0  0  0  0  0  0  0  0  0  0
    0.4628    3.8258    6.6982 H   0  0  0  0  0  0  0  0  0  0  0  0
   -1.7928    2.3997    5.9764 H   0  0  0  0  0  0  0  0  0  0  0  0
   -3.5606    2.9411    3.9468 H   0  0  0  0  0  0  0  0  0  0  0  0
   -0.3253    5.2335    3.0440 H   0  0  0  0  0  0  0  0  0  0  0  0
    2.6056    2.9346    6.0665 H   0  0  0  0  0  0  0  0  0  0  0  0
    0.0256    1.1359    3.7618 H   0  0  0  0  0  0  0  0  0  0  0  0
    0.7042   -0.3587    4.3667 H   0  0  0  0  0  0  0  0  0  0  0  0
  1  2  1  0
  1 22  1  0
  1 23  1  0
  1 24  1  0
  2 21  1  0
  2  3  1  0
  2  4  1  0
  3 25  1  0
  3 26  1  0
  3 27  1  0
  4  5  2  0
  4 28  1  0
  5 18  1  0
  5  6  1  0
  6  7  1  0
  7  8  2  3
  7  9  1  0
  8 29  1  0
  9 10  1  0
  9 12  1  0
  9 30  1  1
 10 11  3  0
 12 13  1  0
 12 18  1  0
 12 31  1  1
 13 17  2  0
 13 14  1  0
 14 15  2  0
 14 32  1  0
 15 16  1  0
 15 33  1  0
 16 17  1  0
 17 34  1  0
 18 19  1  0
 18 35  1  1
 19 20  2  0
 19 21  1  0
 21 36  1  0
 21 37  1  0
M  END
>  <i_m_ct_stereo_status>  (268) 
1

>  <s_m_source_file>  (268) 
/var/tmp/pbs.5076255.sched01/tmptpdlle0r/921kky2sk3.sdf

>  <i_m_source_file_index>  (268) 
27

>  <i_lp_mmshare_version>  (268) 
48012

>  <i_f3d_flags>  (268) 
0

>  <s_epik_input>  (268) 
W0NIM11DKFtDSDNdKShbQ0hdPTEpW0NIMl1DKD1PKVtDQEBIXShDMTIpW0NAQEhdKFtDQEhdKEMjTilDKFxPMik9TlxbSF0pYzNbY0hdW2NIXW9bY0hdMw==

>  <s_epik_cmdline>  (268) 
J2VwaWtfcHl0aG9uJywgJy1waHQnLCAnMi4wJywgJy1waCcsICc3LjAnLCAnLXRuJywgJzgnLCAnLW1hJywgJzIwMCcsICctaW1hZScsICc8aW5maWxlLm1hZT4nLCAnLW9tYWUnLCAnPG91dGZpbGUubWFlPic=

>  <r_lp_tautomer_probability>  (268) 
0.99995

>  <r_epik_Ionization_Penalty>  (268) 
0.0181412

>  <r_epik_Ionization_Penalty_Charging>  (268) 
0

>  <r_epik_Ionization_Penalty_Neutral>  (268) 
0.0181412

>  <r_epik_State_Penalty>  (268) 
0.735787

>  <r_epik_Charging_Adjusted_Penalty>  (268) 
0.735787

>  <i_epik_Tot_Q>  (268) 
0

>  <i_epik_Tot_abs_Q>  (268) 
0

>  <s_epik_Chemistry_Notes>  (268) 
This compound has an imine and may undergo hydrolysis.

>  <s_lp_Force_Field>  (268) 
OPLS3e

>  <r_lp_Energy>  (268) 
7.73432

>  <b_lp_Chiralities_Consistent>  (268) 
1

>  <s_lp_Variant>  (268) 
73:0-2

>  <s_i_glide_gridfile>  (268) 
pfpi4k_grid

>  <i_i_glide_lignum>  (268) 
27

>  <i_i_glide_rotatable_bonds>  (268) 
2

>  <r_i_docking_score>  (268) 
-3.06767

>  <r_i_glide_ligand_efficiency>  (268) 
-0.146079

>  <r_i_glide_ligand_efficiency_sa>  (268) 
-0.403022

>  <r_i_glide_ligand_efficiency_ln>  (268) 
-0.758474

>  <r_i_glide_gscore>  (268) 
-3.06767

>  <r_i_glide_lipo>  (268) 
-6.98339e-05

>  <r_i_glide_hbond>  (268) 
-0.180024

>  <r_i_glide_metal>  (268) 
-0

>  <r_i_glide_rewards>  (268) 
-1.47061

>  <r_i_glide_evdw>  (268) 
-19.4996

>  <r_i_glide_ecoul>  (268) 
-4.17624

>  <r_i_glide_erotb>  (268) 
0.224229

>  <r_i_glide_esite>  (268) 
-0.0397708

>  <r_i_glide_emodel>  (268) 
-28.1399

>  <r_i_glide_energy>  (268) 
-23.6759

>  <r_i_glide_einternal>  (268) 
1.08856

>  <r_i_glide_intrahb_reward>  (268) 
-0

>  <i_i_glide_confnum>  (268) 
1

>  <i_i_glide_posenum>  (268) 
22

>  <r_i_glide_eff_state_penalty>  (268) 
0

>  <ligand_id>  (268) 
73

>  <original_smiles>  (268) 
CC1(C)C=C2OC(=N)C(C#N)C(c3ccoc3)C2C(=O)C1

>  <smiles>  (268) 
[H]N=C1OC2=C([H])C(C([H])([H])[H])(C([H])([H])[H])C([H])([H])C(=O)C2([H])C([H])(c2c([H])oc([H])c2[H])C1([H])C#N

$$$$
73:2:0
     RDKit          3D

 37 39  0  0  1  0  0  0  0  0999 V2000
    3.0664   -3.3255   -3.7344 C   0  0  0  0  0  0  0  0  0  0  0  0
    4.0284   -2.4502   -2.9193 C   0  0  0  0  0  0  0  0  0  0  0  0
    4.3414   -1.1792   -3.7198 C   0  0  0  0  0  0  0  0  0  0  0  0
    3.3153   -2.0018   -1.6739 C   0  0  0  0  0  0  0  0  0  0  0  0
    3.8801   -1.8559   -0.4659 C   0  0  0  0  0  0  0  0  0  0  0  0
    3.0829   -1.4752    0.5855 O   0  0  0  0  0  0  0  0  0  0  0  0
    3.3211   -1.9108    1.8760 C   0  0  0  0  0  0  0  0  0  0  0  0
    2.3852   -1.8728    2.7201 N   0  0  0  0  0  0  0  0  0  0  0  0
    4.7372   -2.3924    2.2245 C   0  0  1  0  0  0  0  0  0  0  0  0
    4.7547   -3.2276    3.4385 C   0  0  0  0  0  0  0  0  0  0  0  0
    4.7754   -3.8845    4.3957 N   0  0  0  0  0  0  0  0  0  0  0  0
    5.4898   -3.0415    1.0512 C   0  0  1  0  0  0  0  0  0  0  0  0
    5.0901   -4.4924    0.8280 C   0  0  0  0  0  0  0  0  0  0  0  0
    5.7435   -5.6426    1.3596 C   0  0  0  0  0  0  0  0  0  0  0  0
    5.0595   -6.7277    0.8936 C   0  0  0  0  0  0  0  0  0  0  0  0
    4.0213   -6.3465    0.1076 O   0  0  0  0  0  0  0  0  0  0  0  0
    4.0505   -4.9951    0.0882 C   0  0  0  0  0  0  0  0  0  0  0  0
    5.3562   -2.1248   -0.1743 C   0  0  1  0  0  0  0  0  0  0  0  0
    6.1166   -2.6110   -1.4211 C   0  0  0  0  0  0  0  0  0  0  0  0
    7.3348   -2.4586   -1.5212 O   0  0  0  0  0  0  0  0  0  0  0  0
    5.3009   -3.2597   -2.5473 C   0  0  0  0  0  0  0  0  0  0  0  0
    3.5477   -3.7095   -4.6303 H   0  0  0  0  0  0  0  0  0  0  0  0
    2.1581   -2.7914   -4.0177 H   0  0  0  0  0  0  0  0  0  0  0  0
    2.7392   -4.1670   -3.1357 H   0  0  0  0  0  0  0  0  0  0  0  0
    4.8831   -1.4192   -4.6342 H   0  0  0  0  0  0  0  0  0  0  0  0
    4.9719   -0.5090   -3.1259 H   0  0  0  0  0  0  0  0  0  0  0  0
    3.4343   -0.6334   -3.9998 H   0  0  0  0  0  0  0  0  0  0  0  0
    2.2547   -1.8555   -1.8250 H   0  0  0  0  0  0  0  0  0  0  0  0
    5.2892   -1.4870    2.4979 H   0  0  0  0  0  0  0  0  0  0  0  0
    6.5486   -3.0733    1.3221 H   0  0  0  0  0  0  0  0  0  0  0  0
    6.6139   -5.6773    2.0006 H   0  0  0  0  0  0  0  0  0  0  0  0
    5.1717   -7.7938    1.0116 H   0  0  0  0  0  0  0  0  0  0  0  0
    3.2642   -4.5563   -0.5120 H   0  0  0  0  0  0  0  0  0  0  0  0
    5.7880   -1.1574    0.0913 H   0  0  0  0  0  0  0  0  0  0  0  0
    4.9970   -4.2538   -2.2164 H   0  0  0  0  0  0  0  0  0  0  0  0
    5.9256   -3.4145   -3.4275 H   0  0  0  0  0  0  0  0  0  0  0  0
    1.5378   -1.5086    2.3129 H   0  0  0  0  0  0  0  0  0  0  0  0
  1  2  1  0
  1 22  1  0
  1 23  1  0
  1 24  1  0
  2 21  1  0
  2  3  1  0
  2  4  1  0
  3 25  1  0
  3 26  1  0
  3 27  1  0
  4  5  2  0
  4 28  1  0
  5 18  1  0
  5  6  1  0
  6  7  1  0
  7  8  2  3
  7  9  1  0
  8 37  1  0
  9 10  1  0
  9 12  1  0
  9 29  1  1
 10 11  3  0
 12 13  1  0
 12 18  1  0
 12 30  1  1
 13 17  2  0
 13 14  1  0
 14 15  2  0
 14 31  1  0
 15 16  1  0
 15 32  1  0
 16 17  1  0
 17 33  1  0
 18 19  1  0
 18 34  1  1
 19 20  2  0
 19 21  1  0
 21 35  1  0
 21 36  1  0
M  END
>  <i_m_ct_stereo_status>  (269) 
1

>  <s_m_source_file>  (269) 
/var/tmp/pbs.5076255.sched01/tmptpdlle0r/921kky2sk3.sdf

>  <i_m_source_file_index>  (269) 
28

>  <i_lp_mmshare_version>  (269) 
48012

>  <i_f3d_flags>  (269) 
0

>  <s_epik_input>  (269) 
W0NIM11DKFtDSDNdKShbQ0hdPTEpW0NIMl1DKD1PKVtDQEBIXShDMTIpW0NAQEhdKFtDQEhdKEMjTilDKFxPMik9TlxbSF0pYzNbY0hdW2NIXW9bY0hdMw==

>  <s_epik_cmdline>  (269) 
J2VwaWtfcHl0aG9uJywgJy1waHQnLCAnMi4wJywgJy1waCcsICc3LjAnLCAnLXRuJywgJzgnLCAnLW1hJywgJzIwMCcsICctaW1hZScsICc8aW5maWxlLm1hZT4nLCAnLW9tYWUnLCAnPG91dGZpbGUubWFlPic=

>  <r_lp_tautomer_probability>  (269) 
0.99995

>  <r_epik_Ionization_Penalty>  (269) 
0.0181412

>  <r_epik_Ionization_Penalty_Charging>  (269) 
0

>  <r_epik_Ionization_Penalty_Neutral>  (269) 
0.0181412

>  <r_epik_State_Penalty>  (269) 
0.735787

>  <r_epik_Charging_Adjusted_Penalty>  (269) 
0.735787

>  <i_epik_Tot_Q>  (269) 
0

>  <i_epik_Tot_abs_Q>  (269) 
0

>  <s_epik_Chemistry_Notes>  (269) 
This compound has an imine and may undergo hydrolysis.

>  <s_lp_Force_Field>  (269) 
OPLS3e

>  <r_lp_Energy>  (269) 
8.35864

>  <b_lp_Chiralities_Consistent>  (269) 
1

>  <s_lp_Variant>  (269) 
73:0-3

>  <s_i_glide_gridfile>  (269) 
pfpi4k_grid

>  <i_i_glide_lignum>  (269) 
28

>  <i_i_glide_rotatable_bonds>  (269) 
2

>  <r_i_docking_score>  (269) 
-4.04003

>  <r_i_glide_ligand_efficiency>  (269) 
-0.192382

>  <r_i_glide_ligand_efficiency_sa>  (269) 
-0.530768

>  <r_i_glide_ligand_efficiency_ln>  (269) 
-0.998889

>  <r_i_glide_gscore>  (269) 
-4.04003

>  <r_i_glide_lipo>  (269) 
-0.983325

>  <r_i_glide_hbond>  (269) 
-0.16

>  <r_i_glide_metal>  (269) 
-0

>  <r_i_glide_rewards>  (269) 
-1.51425

>  <r_i_glide_evdw>  (269) 
-22.4866

>  <r_i_glide_ecoul>  (269) 
-3.02433

>  <r_i_glide_erotb>  (269) 
0.224229

>  <r_i_glide_esite>  (269) 
-0.0286984

>  <r_i_glide_emodel>  (269) 
-30.1645

>  <r_i_glide_energy>  (269) 
-25.511

>  <r_i_glide_einternal>  (269) 
1.19201

>  <r_i_glide_intrahb_reward>  (269) 
-0

>  <i_i_glide_confnum>  (269) 
1

>  <i_i_glide_posenum>  (269) 
14

>  <r_i_glide_eff_state_penalty>  (269) 
0

>  <ligand_id>  (269) 
73

>  <original_smiles>  (269) 
CC1(C)C=C2OC(=N)C(C#N)C(c3ccoc3)C2C(=O)C1

>  <smiles>  (269) 
[H]N=C1OC2=C([H])C(C([H])([H])[H])(C([H])([H])[H])C([H])([H])C(=O)C2([H])C([H])(c2c([H])oc([H])c2[H])C1([H])C#N

$$$$
73:2:1
     RDKit          3D

 37 39  0  0  1  0  0  0  0  0999 V2000
    4.1447   -1.0135   -3.7706 C   0  0  0  0  0  0  0  0  0  0  0  0
    3.9034   -2.4081   -3.1811 C   0  0  0  0  0  0  0  0  0  0  0  0
    3.6636   -3.4248   -4.2907 C   0  0  0  0  0  0  0  0  0  0  0  0
    5.1306   -2.8526   -2.4256 C   0  0  0  0  0  0  0  0  0  0  0  0
    5.0907   -3.5161   -1.2648 C   0  0  0  0  0  0  0  0  0  0  0  0
    6.2840   -3.8217   -0.6678 O   0  0  0  0  0  0  0  0  0  0  0  0
    6.3957   -3.9356    0.7018 C   0  0  0  0  0  0  0  0  0  0  0  0
    7.5404   -3.8561    1.2180 N   0  0  0  0  0  0  0  0  0  0  0  0
    5.1180   -4.1781    1.5211 C   0  0  1  0  0  0  0  0  0  0  0  0
    5.2611   -3.7940    2.9343 C   0  0  0  0  0  0  0  0  0  0  0  0
    5.3632   -3.4977    4.0505 N   0  0  0  0  0  0  0  0  0  0  0  0
    3.8386   -3.5917    0.9098 C   0  0  1  0  0  0  0  0  0  0  0  0
    3.6504   -2.1127    1.1805 C   0  0  0  0  0  0  0  0  0  0  0  0
    2.5224   -1.5026    1.7940 C   0  0  0  0  0  0  0  0  0  0  0  0
    2.7761   -0.1603    1.8201 C   0  0  0  0  0  0  0  0  0  0  0  0
    3.9854    0.1155    1.2703 O   0  0  0  0  0  0  0  0  0  0  0  0
    4.5013   -1.0759    0.8887 C   0  0  0  0  0  0  0  0  0  0  0  0
    3.8079   -3.9612   -0.5691 C   0  0  1  0  0  0  0  0  0  0  0  0
    2.5389   -3.5039   -1.3013 C   0  0  0  0  0  0  0  0  0  0  0  0
    1.4623   -4.0719   -1.1163 O   0  0  0  0  0  0  0  0  0  0  0  0
    2.6742   -2.3281   -2.2612 C   0  0  0  0  0  0  0  0  0  0  0  0
    3.2683   -0.6496   -4.3115 H   0  0  0  0  0  0  0  0  0  0  0  0
    5.0044   -1.0104   -4.4413 H   0  0  0  0  0  0  0  0  0  0  0  0
    4.3417   -0.2997   -2.9688 H   0  0  0  0  0  0  0  0  0  0  0  0
    2.7736   -3.1569   -4.8590 H   0  0  0  0  0  0  0  0  0  0  0  0
    3.5086   -4.4268   -3.9072 H   0  0  0  0  0  0  0  0  0  0  0  0
    4.5392   -3.5091   -4.9321 H   0  0  0  0  0  0  0  0  0  0  0  0
    6.0869   -2.6036   -2.8603 H   0  0  0  0  0  0  0  0  0  0  0  0
    5.0012   -5.2640    1.5354 H   0  0  0  0  0  0  0  0  0  0  0  0
    2.9933   -4.0845    1.4010 H   0  0  0  0  0  0  0  0  0  0  0  0
    1.6195   -1.9771    2.1611 H   0  0  0  0  0  0  0  0  0  0  0  0
    2.2225    0.6957    2.1746 H   0  0  0  0  0  0  0  0  0  0  0  0
    5.4700   -1.0081    0.4212 H   0  0  0  0  0  0  0  0  0  0  0  0
    3.8091   -5.0492   -0.6299 H   0  0  0  0  0  0  0  0  0  0  0  0
    2.7499   -1.4332   -1.6426 H   0  0  0  0  0  0  0  0  0  0  0  0
    1.7614   -2.2490   -2.8497 H   0  0  0  0  0  0  0  0  0  0  0  0
    8.2392   -3.6456    0.5213 H   0  0  0  0  0  0  0  0  0  0  0  0
  1  2  1  0
  1 22  1  0
  1 23  1  0
  1 24  1  0
  2 21  1  0
  2  3  1  0
  2  4  1  0
  3 25  1  0
  3 26  1  0
  3 27  1  0
  4  5  2  0
  4 28  1  0
  5 18  1  0
  5  6  1  0
  6  7  1  0
  7  8  2  3
  7  9  1  0
  8 37  1  0
  9 10  1  0
  9 12  1  0
  9 29  1  1
 10 11  3  0
 12 13  1  0
 12 18  1  0
 12 30  1  1
 13 17  2  0
 13 14  1  0
 14 15  2  0
 14 31  1  0
 15 16  1  0
 15 32  1  0
 16 17  1  0
 17 33  1  0
 18 19  1  0
 18 34  1  1
 19 20  2  0
 19 21  1  0
 21 35  1  0
 21 36  1  0
M  END
>  <i_m_ct_stereo_status>  (270) 
1

>  <s_m_source_file>  (270) 
/var/tmp/pbs.5076255.sched01/tmptpdlle0r/921kky2sk3.sdf

>  <i_m_source_file_index>  (270) 
28

>  <i_lp_mmshare_version>  (270) 
48012

>  <i_f3d_flags>  (270) 
0

>  <s_epik_input>  (270) 
W0NIM11DKFtDSDNdKShbQ0hdPTEpW0NIMl1DKD1PKVtDQEBIXShDMTIpW0NAQEhdKFtDQEhdKEMjTilDKFxPMik9TlxbSF0pYzNbY0hdW2NIXW9bY0hdMw==

>  <s_epik_cmdline>  (270) 
J2VwaWtfcHl0aG9uJywgJy1waHQnLCAnMi4wJywgJy1waCcsICc3LjAnLCAnLXRuJywgJzgnLCAnLW1hJywgJzIwMCcsICctaW1hZScsICc8aW5maWxlLm1hZT4nLCAnLW9tYWUnLCAnPG91dGZpbGUubWFlPic=

>  <r_lp_tautomer_probability>  (270) 
0.99995

>  <r_epik_Ionization_Penalty>  (270) 
0.0181412

>  <r_epik_Ionization_Penalty_Charging>  (270) 
0

>  <r_epik_Ionization_Penalty_Neutral>  (270) 
0.0181412

>  <r_epik_State_Penalty>  (270) 
0.735787

>  <r_epik_Charging_Adjusted_Penalty>  (270) 
0.735787

>  <i_epik_Tot_Q>  (270) 
0

>  <i_epik_Tot_abs_Q>  (270) 
0

>  <s_epik_Chemistry_Notes>  (270) 
This compound has an imine and may undergo hydrolysis.

>  <s_lp_Force_Field>  (270) 
OPLS3e

>  <r_lp_Energy>  (270) 
8.35864

>  <b_lp_Chiralities_Consistent>  (270) 
1

>  <s_lp_Variant>  (270) 
73:0-3

>  <s_i_glide_gridfile>  (270) 
pfpi4k_grid

>  <i_i_glide_lignum>  (270) 
28

>  <i_i_glide_rotatable_bonds>  (270) 
2

>  <r_i_docking_score>  (270) 
-3.34982

>  <r_i_glide_ligand_efficiency>  (270) 
-0.159515

>  <r_i_glide_ligand_efficiency_sa>  (270) 
-0.440091

>  <r_i_glide_ligand_efficiency_ln>  (270) 
-0.828237

>  <r_i_glide_gscore>  (270) 
-3.34982

>  <r_i_glide_lipo>  (270) 
-0.635052

>  <r_i_glide_hbond>  (270) 
-0.0113569

>  <r_i_glide_metal>  (270) 
-0

>  <r_i_glide_rewards>  (270) 
-1.69934

>  <r_i_glide_evdw>  (270) 
-18.4387

>  <r_i_glide_ecoul>  (270) 
-2.04249

>  <r_i_glide_erotb>  (270) 
0.224229

>  <r_i_glide_esite>  (270) 
0

>  <r_i_glide_emodel>  (270) 
-24.5345

>  <r_i_glide_energy>  (270) 
-20.4811

>  <r_i_glide_einternal>  (270) 
0.797401

>  <r_i_glide_intrahb_reward>  (270) 
-0

>  <i_i_glide_confnum>  (270) 
1

>  <i_i_glide_posenum>  (270) 
7

>  <r_i_glide_eff_state_penalty>  (270) 
0

>  <ligand_id>  (270) 
73

>  <original_smiles>  (270) 
CC1(C)C=C2OC(=N)C(C#N)C(c3ccoc3)C2C(=O)C1

>  <smiles>  (270) 
[H]N=C1OC2=C([H])C(C([H])([H])[H])(C([H])([H])[H])C([H])([H])C(=O)C2([H])C([H])(c2c([H])oc([H])c2[H])C1([H])C#N

$$$$
73:2:2
     RDKit          3D

 37 39  0  0  1  0  0  0  0  0999 V2000
   -1.6082    2.3785    5.6809 C   0  0  0  0  0  0  0  0  0  0  0  0
   -0.8872    2.7820    4.3818 C   0  0  0  0  0  0  0  0  0  0  0  0
   -1.8134    2.5573    3.1689 C   0  0  0  0  0  0  0  0  0  0  0  0
   -0.5589    4.2603    4.4432 C   0  0  0  0  0  0  0  0  0  0  0  0
    0.5831    4.8007    3.9892 C   0  0  0  0  0  0  0  0  0  0  0  0
    0.7620    6.1522    4.1518 O   0  0  0  0  0  0  0  0  0  0  0  0
    2.0206    6.6903    4.3450 C   0  0  0  0  0  0  0  0  0  0  0  0
    2.1263    7.8223    4.8929 N   0  0  0  0  0  0  0  0  0  0  0  0
    3.2323    5.8750    3.8696 C   0  0  1  0  0  0  0  0  0  0  0  0
    4.4781    6.3148    4.5210 C   0  0  0  0  0  0  0  0  0  0  0  0
    5.4592    6.6598    5.0322 N   0  0  0  0  0  0  0  0  0  0  0  0
    3.0424    4.3522    3.9410 C   0  0  1  0  0  0  0  0  0  0  0  0
    3.2587    3.7710    5.3265 C   0  0  0  0  0  0  0  0  0  0  0  0
    4.0236    2.6145    5.6547 C   0  0  0  0  0  0  0  0  0  0  0  0
    3.9515    2.4686    7.0096 C   0  0  0  0  0  0  0  0  0  0  0  0
    3.1951    3.4512    7.5623 O   0  0  0  0  0  0  0  0  0  0  0  0
    2.7846    4.2292    6.5293 C   0  0  0  0  0  0  0  0  0  0  0  0
    1.6998    4.0109    3.3094 C   0  0  1  0  0  0  0  0  0  0  0  0
    1.3963    2.5057    3.2311 C   0  0  0  0  0  0  0  0  0  0  0  0
    1.9552    1.7747    2.4173 O   0  0  0  0  0  0  0  0  0  0  0  0
    0.4076    1.9395    4.2530 C   0  0  0  0  0  0  0  0  0  0  0  0
   -1.8644    1.3196    5.6817 H   0  0  0  0  0  0  0  0  0  0  0  0
   -2.5272    2.9485    5.8259 H   0  0  0  0  0  0  0  0  0  0  0  0
   -0.9672    2.5663    6.5430 H   0  0  0  0  0  0  0  0  0  0  0  0
   -2.0749    1.5040    3.0465 H   0  0  0  0  0  0  0  0  0  0  0  0
   -1.3278    2.8853    2.2443 H   0  0  0  0  0  0  0  0  0  0  0  0
   -2.7412    3.1295    3.2606 H   0  0  0  0  0  0  0  0  0  0  0  0
   -1.2937    4.8915    4.9214 H   0  0  0  0  0  0  0  0  0  0  0  0
    3.3560    6.1352    2.8148 H   0  0  0  0  0  0  0  0  0  0  0  0
    3.8101    3.9026    3.3166 H   0  0  0  0  0  0  0  0  0  0  0  0
    4.5650    1.9641    4.9804 H   0  0  0  0  0  0  0  0  0  0  0  0
    4.3618    1.7556    7.7089 H   0  0  0  0  0  0  0  0  0  0  0  0
    2.1692    5.0668    6.8261 H   0  0  0  0  0  0  0  0  0  0  0  0
    1.7458    4.3619    2.2794 H   0  0  0  0  0  0  0  0  0  0  0  0
    0.9232    1.9186    5.2137 H   0  0  0  0  0  0  0  0  0  0  0  0
    0.1659    0.9046    4.0048 H   0  0  0  0  0  0  0  0  0  0  0  0
    1.2204    8.2050    5.1174 H   0  0  0  0  0  0  0  0  0  0  0  0
  1  2  1  0
  1 22  1  0
  1 23  1  0
  1 24  1  0
  2 21  1  0
  2  3  1  0
  2  4  1  0
  3 25  1  0
  3 26  1  0
  3 27  1  0
  4  5  2  0
  4 28  1  0
  5 18  1  0
  5  6  1  0
  6  7  1  0
  7  8  2  3
  7  9  1  0
  8 37  1  0
  9 10  1  0
  9 12  1  0
  9 29  1  6
 10 11  3  0
 12 13  1  0
 12 18  1  0
 12 30  1  6
 13 17  2  0
 13 14  1  0
 14 15  2  0
 14 31  1  0
 15 16  1  0
 15 32  1  0
 16 17  1  0
 17 33  1  0
 18 19  1  0
 18 34  1  6
 19 20  2  0
 19 21  1  0
 21 35  1  0
 21 36  1  0
M  END
>  <i_m_ct_stereo_status>  (271) 
1

>  <s_m_source_file>  (271) 
/var/tmp/pbs.5076255.sched01/tmptpdlle0r/921kky2sk3.sdf

>  <i_m_source_file_index>  (271) 
28

>  <i_lp_mmshare_version>  (271) 
48012

>  <i_f3d_flags>  (271) 
0

>  <s_epik_input>  (271) 
W0NIM11DKFtDSDNdKShbQ0hdPTEpW0NIMl1DKD1PKVtDQEBIXShDMTIpW0NAQEhdKFtDQEhdKEMjTilDKFxPMik9TlxbSF0pYzNbY0hdW2NIXW9bY0hdMw==

>  <s_epik_cmdline>  (271) 
J2VwaWtfcHl0aG9uJywgJy1waHQnLCAnMi4wJywgJy1waCcsICc3LjAnLCAnLXRuJywgJzgnLCAnLW1hJywgJzIwMCcsICctaW1hZScsICc8aW5maWxlLm1hZT4nLCAnLW9tYWUnLCAnPG91dGZpbGUubWFlPic=

>  <r_lp_tautomer_probability>  (271) 
0.99995

>  <r_epik_Ionization_Penalty>  (271) 
0.0181412

>  <r_epik_Ionization_Penalty_Charging>  (271) 
0

>  <r_epik_Ionization_Penalty_Neutral>  (271) 
0.0181412

>  <r_epik_State_Penalty>  (271) 
0.735787

>  <r_epik_Charging_Adjusted_Penalty>  (271) 
0.735787

>  <i_epik_Tot_Q>  (271) 
0

>  <i_epik_Tot_abs_Q>  (271) 
0

>  <s_epik_Chemistry_Notes>  (271) 
This compound has an imine and may undergo hydrolysis.

>  <s_lp_Force_Field>  (271) 
OPLS3e

>  <r_lp_Energy>  (271) 
8.35864

>  <b_lp_Chiralities_Consistent>  (271) 
1

>  <s_lp_Variant>  (271) 
73:0-3

>  <s_i_glide_gridfile>  (271) 
pfpi4k_grid

>  <i_i_glide_lignum>  (271) 
28

>  <i_i_glide_rotatable_bonds>  (271) 
2

>  <r_i_docking_score>  (271) 
-2.53217

>  <r_i_glide_ligand_efficiency>  (271) 
-0.120579

>  <r_i_glide_ligand_efficiency_sa>  (271) 
-0.332669

>  <r_i_glide_ligand_efficiency_ln>  (271) 
-0.626073

>  <r_i_glide_gscore>  (271) 
-2.53217

>  <r_i_glide_lipo>  (271) 
-0.0667788

>  <r_i_glide_hbond>  (271) 
0

>  <r_i_glide_metal>  (271) 
-0

>  <r_i_glide_rewards>  (271) 
-1.50139

>  <r_i_glide_evdw>  (271) 
-20.7062

>  <r_i_glide_ecoul>  (271) 
-0.502013

>  <r_i_glide_erotb>  (271) 
0.224229

>  <r_i_glide_esite>  (271) 
-0.0776184

>  <r_i_glide_emodel>  (271) 
-24.1674

>  <r_i_glide_energy>  (271) 
-21.2082

>  <r_i_glide_einternal>  (271) 
0.832715

>  <r_i_glide_intrahb_reward>  (271) 
-0

>  <i_i_glide_confnum>  (271) 
1

>  <i_i_glide_posenum>  (271) 
25

>  <r_i_glide_eff_state_penalty>  (271) 
0

>  <ligand_id>  (271) 
73

>  <original_smiles>  (271) 
CC1(C)C=C2OC(=N)C(C#N)C(c3ccoc3)C2C(=O)C1

>  <smiles>  (271) 
[H]N=C1OC2=C([H])C(C([H])([H])[H])(C([H])([H])[H])C([H])([H])C(=O)C2([H])C([H])(c2c([H])oc([H])c2[H])C1([H])C#N

$$$$
74:0:0
     RDKit          3D

 47 51  0  0  1  0  0  0  0  0999 V2000
    3.8178    0.6583   -4.2809 C   0  0  0  0  0  0  0  0  0  0  0  0
    3.8961   -0.6998   -3.6624 C   0  0  0  0  0  0  0  0  0  0  0  0
    4.0814   -1.0607   -2.3632 C   0  0  0  0  0  0  0  0  0  0  0  0
    4.0948   -2.4438   -2.4005 N   0  0  0  0  0  0  0  0  0  0  0  0
    4.2321   -3.3977   -1.3100 C   0  0  2  0  0  0  0  0  0  0  0  0
    2.8117   -3.8197   -0.6444 C   0  0  1  0  0  0  0  0  0  0  0  0
    1.6230   -3.6589   -1.6113 C   0  0  0  0  0  0  0  0  0  0  0  0
    2.6554   -5.2026    0.1718 C   0  0  0  0  0  0  0  0  0  0  0  0
    2.4940   -5.0458    1.7476 C   0  0  2  0  0  0  0  0  0  0  0  0
    3.4478   -4.0209    2.4561 C   0  0  2  0  0  0  0  0  0  0  0  0
    4.0147   -3.1736    1.3171 C   0  0  1  0  0  0  0  0  0  0  0  0
    2.7785   -2.8000    0.4353 C   0  0  0  0  0  0  0  0  0  0  0  0
    5.0101   -2.0315    1.0864 C   0  0  0  0  0  0  0  0  0  0  0  0
    5.3269   -2.8158   -0.2843 C   0  0  2  0  0  0  0  0  0  0  0  0
    6.6853   -2.5318   -0.9313 C   0  0  0  0  0  0  0  0  0  0  0  0
    5.2904   -3.9295    0.6968 C   0  0  0  0  0  0  0  0  0  0  0  0
    6.0811   -4.8196    1.0124 O   0  0  0  0  0  0  0  0  0  0  0  0
    3.4026   -5.5184    2.8394 C   0  0  0  0  0  0  0  0  0  0  0  0
    2.7950   -5.7985    4.2082 C   0  0  0  0  0  0  0  0  0  0  0  0
    4.4249   -6.6016    2.5600 C   0  0  0  0  0  0  0  0  0  0  0  0
    3.9325   -2.8920   -3.6613 N   0  0  0  0  0  0  0  0  0  0  0  0
    3.8116   -1.8553   -4.4156 N   0  0  0  0  0  0  0  0  0  0  0  0
    3.9597    1.4201   -3.5243 H   0  0  0  0  0  0  0  0  0  0  0  0
    2.8516    0.8335   -4.7556 H   0  0  0  0  0  0  0  0  0  0  0  0
    4.5862    0.8084   -5.0340 H   0  0  0  0  0  0  0  0  0  0  0  0
    4.2145   -0.4794   -1.4629 H   0  0  0  0  0  0  0  0  0  0  0  0
    4.6300   -4.3057   -1.7709 H   0  0  0  0  0  0  0  0  0  0  0  0
    0.6768   -3.9118   -1.1455 H   0  0  0  0  0  0  0  0  0  0  0  0
    1.7483   -4.2570   -2.5010 H   0  0  0  0  0  0  0  0  0  0  0  0
    1.5386   -2.6495   -1.9980 H   0  0  0  0  0  0  0  0  0  0  0  0
    1.7664   -5.7316   -0.1848 H   0  0  0  0  0  0  0  0  0  0  0  0
    3.4753   -5.8792   -0.0765 H   0  0  0  0  0  0  0  0  0  0  0  0
    1.4474   -4.9710    2.0346 H   0  0  0  0  0  0  0  0  0  0  0  0
    2.9872   -3.3782    3.1995 H   0  0  0  0  0  0  0  0  0  0  0  0
    2.8193   -1.7966    0.0026 H   0  0  0  0  0  0  0  0  0  0  0  0
    1.8372   -2.7919    0.9883 H   0  0  0  0  0  0  0  0  0  0  0  0
    4.5792   -1.0377    0.9501 H   0  0  0  0  0  0  0  0  0  0  0  0
    5.8356   -1.9521    1.8049 H   0  0  0  0  0  0  0  0  0  0  0  0
    6.6419   -1.5537   -1.4121 H   0  0  0  0  0  0  0  0  0  0  0  0
    6.9594   -3.2638   -1.6958 H   0  0  0  0  0  0  0  0  0  0  0  0
    7.4828   -2.4899   -0.1852 H   0  0  0  0  0  0  0  0  0  0  0  0
    3.5496   -5.7020    4.9885 H   0  0  0  0  0  0  0  0  0  0  0  0
    2.3745   -6.8023    4.2535 H   0  0  0  0  0  0  0  0  0  0  0  0
    1.9928   -5.0954    4.4289 H   0  0  0  0  0  0  0  0  0  0  0  0
    5.3405   -6.3981    3.1175 H   0  0  0  0  0  0  0  0  0  0  0  0
    4.6459   -6.6826    1.4997 H   0  0  0  0  0  0  0  0  0  0  0  0
    4.0318   -7.5718    2.8704 H   0  0  0  0  0  0  0  0  0  0  0  0
  1  2  1  0
  1 23  1  0
  1 24  1  0
  1 25  1  0
  2 22  1  0
  2  3  2  0
  3  4  1  0
  3 26  1  0
  4  5  1  0
  4 21  1  0
  5 14  1  0
  5  6  1  0
  5 27  1  6
  6 12  1  0
  6  7  1  6
  6  8  1  0
  7 28  1  0
  7 29  1  0
  7 30  1  0
  8  9  1  0
  8 31  1  0
  8 32  1  0
  9 18  1  0
  9 10  1  0
  9 33  1  1
 10 11  1  0
 10 18  1  0
 10 34  1  1
 11 16  1  0
 11 12  1  0
 11 13  1  1
 12 35  1  0
 12 36  1  0
 13 14  1  0
 13 37  1  0
 13 38  1  0
 14 15  1  6
 14 16  1  0
 15 39  1  0
 15 40  1  0
 15 41  1  0
 16 17  2  0
 18 19  1  0
 18 20  1  0
 19 42  1  0
 19 43  1  0
 19 44  1  0
 20 45  1  0
 20 46  1  0
 20 47  1  0
 21 22  2  0
M  END
>  <i_m_ct_stereo_status>  (272) 
1

>  <s_m_source_file>  (272) 
/var/tmp/pbs.5076255.sched01/tmptpdlle0r/921kky2sk3.sdf

>  <i_m_source_file_index>  (272) 
29

>  <i_lp_mmshare_version>  (272) 
48012

>  <i_f3d_flags>  (272) 
0

>  <s_epik_input>  (272) 
W0NIM11jMVtjSF1uKG5uMSlbQ0BASF0oW0NAXShbQ0gyXTIpKFtDSDNdKUMzPU8pW0NAXShbQ0gzXSkoW0NIMl00KVtDSDJdW0NASF0oW0NAQEhdNVtDQEBdMjM0KUM1KFtDSDNdKVtDSDNd

>  <s_epik_cmdline>  (272) 
J2VwaWtfcHl0aG9uJywgJy1waHQnLCAnMi4wJywgJy1waCcsICc3LjAnLCAnLXRuJywgJzgnLCAnLW1hJywgJzIwMCcsICctaW1hZScsICc8aW5maWxlLm1hZT4nLCAnLW9tYWUnLCAnPG91dGZpbGUubWFlPic=

>  <r_lp_tautomer_probability>  (272) 
1

>  <r_epik_Ionization_Penalty>  (272) 
2.44233e-05

>  <r_epik_Ionization_Penalty_Charging>  (272) 
0

>  <r_epik_Ionization_Penalty_Neutral>  (272) 
2.44233e-05

>  <r_epik_State_Penalty>  (272) 
-0

>  <r_epik_Charging_Adjusted_Penalty>  (272) 
0

>  <i_epik_Tot_Q>  (272) 
0

>  <i_epik_Tot_abs_Q>  (272) 
0

>  <s_lp_Force_Field>  (272) 
OPLS3e

>  <r_lp_Energy>  (272) 
121.081

>  <b_lp_Chiralities_Consistent>  (272) 
1

>  <s_lp_Variant>  (272) 
74:0-1

>  <s_i_glide_gridfile>  (272) 
pfpi4k_grid

>  <i_i_glide_lignum>  (272) 
29

>  <i_i_glide_rotatable_bonds>  (272) 
1

>  <r_i_docking_score>  (272) 
-3.47139

>  <r_i_glide_ligand_efficiency>  (272) 
-0.15779

>  <r_i_glide_ligand_efficiency_sa>  (272) 
-0.442135

>  <r_i_glide_ligand_efficiency_ln>  (272) 
-0.848534

>  <r_i_glide_gscore>  (272) 
-3.47139

>  <r_i_glide_lipo>  (272) 
-0.310077

>  <r_i_glide_hbond>  (272) 
0

>  <r_i_glide_metal>  (272) 
-0

>  <r_i_glide_rewards>  (272) 
-1.50557

>  <r_i_glide_evdw>  (272) 
-23.8711

>  <r_i_glide_ecoul>  (272) 
-4.05161

>  <r_i_glide_erotb>  (272) 
0.20487

>  <r_i_glide_esite>  (272) 
-0.0593184

>  <r_i_glide_emodel>  (272) 
-32.5655

>  <r_i_glide_energy>  (272) 
-27.9227

>  <r_i_glide_einternal>  (272) 
0.661881

>  <r_i_glide_intrahb_reward>  (272) 
-0

>  <i_i_glide_confnum>  (272) 
2

>  <i_i_glide_posenum>  (272) 
1

>  <r_i_glide_eff_state_penalty>  (272) 
0

>  <ligand_id>  (272) 
74

>  <original_smiles>  (272) 
Cc1cn(C2C3(C)CC4C(C5(C3)CC2(C)C5=O)C4(C)C)nn1

>  <smiles>  (272) 
[H]c1c(C([H])([H])[H])nnn1C1([H])C2(C([H])([H])[H])C(=O)C3(C2([H])[H])C([H])([H])C1(C([H])([H])[H])C([H])([H])C1([H])C3([H])C1(C([H])([H])[H])C([H])([H])[H]

$$$$
74:0:1
     RDKit          3D

 47 51  0  0  1  0  0  0  0  0999 V2000
    3.1752    0.2915   -5.1781 C   0  0  0  0  0  0  0  0  0  0  0  0
    3.5257   -0.6678   -4.0647 C   0  0  0  0  0  0  0  0  0  0  0  0
    3.0123   -0.7812   -2.8157 C   0  0  0  0  0  0  0  0  0  0  0  0
    3.7624   -1.7776   -2.2125 N   0  0  0  0  0  0  0  0  0  0  0  0
    3.6837   -2.2742   -0.8336 C   0  0  2  0  0  0  0  0  0  0  0  0
    4.9881   -1.9882    0.0751 C   0  0  1  0  0  0  0  0  0  0  0  0
    5.8106   -0.7958   -0.3865 C   0  0  0  0  0  0  0  0  0  0  0  0
    4.8407   -1.9237    1.6764 C   0  0  0  0  0  0  0  0  0  0  0  0
    5.4961   -3.1519    2.4322 C   0  0  2  0  0  0  0  0  0  0  0  0
    5.2384   -4.5964    1.8787 C   0  0  2  0  0  0  0  0  0  0  0  0
    4.7550   -4.3208    0.4650 C   0  0  1  0  0  0  0  0  0  0  0  0
    5.7260   -3.2654   -0.1560 C   0  0  0  0  0  0  0  0  0  0  0  0
    4.1855   -5.0926   -0.7186 C   0  0  0  0  0  0  0  0  0  0  0  0
    3.2093   -3.7985   -0.8762 C   0  0  2  0  0  0  0  0  0  0  0  0
    1.8609   -3.9649   -1.6192 C   0  0  0  0  0  0  0  0  0  0  0  0
    3.1690   -4.0633    0.5807 C   0  0  0  0  0  0  0  0  0  0  0  0
    2.2793   -4.3547    1.3733 O   0  0  0  0  0  0  0  0  0  0  0  0
    4.8737   -4.1967    3.3255 C   0  0  0  0  0  0  0  0  0  0  0  0
    5.7212   -4.8784    4.3842 C   0  0  0  0  0  0  0  0  0  0  0  0
    3.5226   -3.9353    3.9440 C   0  0  0  0  0  0  0  0  0  0  0  0
    4.6099   -2.3224   -3.1125 N   0  0  0  0  0  0  0  0  0  0  0  0
    4.5040   -1.6354   -4.2098 N   0  0  0  0  0  0  0  0  0  0  0  0
    2.3314    0.9341   -4.9031 H   0  0  0  0  0  0  0  0  0  0  0  0
    2.8885   -0.2323   -6.0915 H   0  0  0  0  0  0  0  0  0  0  0  0
    4.0266    0.9245   -5.4410 H   0  0  0  0  0  0  0  0  0  0  0  0
    2.2063   -0.2513   -2.3291 H   0  0  0  0  0  0  0  0  0  0  0  0
    2.8908   -1.6870   -0.3706 H   0  0  0  0  0  0  0  0  0  0  0  0
    6.7211   -0.6948    0.2123 H   0  0  0  0  0  0  0  0  0  0  0  0
    5.2070    0.1102   -0.2745 H   0  0  0  0  0  0  0  0  0  0  0  0
    6.1067   -0.9200   -1.4281 H   0  0  0  0  0  0  0  0  0  0  0  0
    5.3815   -1.0515    2.0519 H   0  0  0  0  0  0  0  0  0  0  0  0
    3.8080   -1.7835    1.9958 H   0  0  0  0  0  0  0  0  0  0  0  0
    6.5606   -2.9509    2.4981 H   0  0  0  0  0  0  0  0  0  0  0  0
    6.1033   -5.2524    1.8449 H   0  0  0  0  0  0  0  0  0  0  0  0
    5.9108   -3.4378   -1.2239 H   0  0  0  0  0  0  0  0  0  0  0  0
    6.7248   -3.2997    0.3012 H   0  0  0  0  0  0  0  0  0  0  0  0
    4.8618   -5.2548   -1.5601 H   0  0  0  0  0  0  0  0  0  0  0  0
    3.6984   -6.0438   -0.4376 H   0  0  0  0  0  0  0  0  0  0  0  0
    2.0216   -3.9959   -2.6975 H   0  0  0  0  0  0  0  0  0  0  0  0
    1.1419   -3.1546   -1.4727 H   0  0  0  0  0  0  0  0  0  0  0  0
    1.3861   -4.9119   -1.3656 H   0  0  0  0  0  0  0  0  0  0  0  0
    5.3081   -5.8509    4.6355 H   0  0  0  0  0  0  0  0  0  0  0  0
    5.7814   -4.2831    5.2907 H   0  0  0  0  0  0  0  0  0  0  0  0
    6.7333   -5.0442    4.0267 H   0  0  0  0  0  0  0  0  0  0  0  0
    2.9504   -4.8620    3.9432 H   0  0  0  0  0  0  0  0  0  0  0  0
    3.0070   -3.1597    3.3968 H   0  0  0  0  0  0  0  0  0  0  0  0
    3.6493   -3.5747    4.9686 H   0  0  0  0  0  0  0  0  0  0  0  0
  1  2  1  0
  1 23  1  0
  1 24  1  0
  1 25  1  0
  2 22  1  0
  2  3  2  0
  3  4  1  0
  3 26  1  0
  4  5  1  0
  4 21  1  0
  5 14  1  0
  5  6  1  0
  5 27  1  1
  6 12  1  0
  6  7  1  6
  6  8  1  0
  7 28  1  0
  7 29  1  0
  7 30  1  0
  8  9  1  0
  8 31  1  0
  8 32  1  0
  9 18  1  0
  9 10  1  0
  9 33  1  1
 10 11  1  0
 10 18  1  0
 10 34  1  1
 11 16  1  0
 11 12  1  0
 11 13  1  6
 12 35  1  0
 12 36  1  0
 13 14  1  0
 13 37  1  0
 13 38  1  0
 14 15  1  6
 14 16  1  0
 15 39  1  0
 15 40  1  0
 15 41  1  0
 16 17  2  0
 18 19  1  0
 18 20  1  0
 19 42  1  0
 19 43  1  0
 19 44  1  0
 20 45  1  0
 20 46  1  0
 20 47  1  0
 21 22  2  0
M  END
>  <i_m_ct_stereo_status>  (273) 
1

>  <s_m_source_file>  (273) 
/var/tmp/pbs.5076255.sched01/tmptpdlle0r/921kky2sk3.sdf

>  <i_m_source_file_index>  (273) 
29

>  <i_lp_mmshare_version>  (273) 
48012

>  <i_f3d_flags>  (273) 
0

>  <s_epik_input>  (273) 
W0NIM11jMVtjSF1uKG5uMSlbQ0BASF0oW0NAXShbQ0gyXTIpKFtDSDNdKUMzPU8pW0NAXShbQ0gzXSkoW0NIMl00KVtDSDJdW0NASF0oW0NAQEhdNVtDQEBdMjM0KUM1KFtDSDNdKVtDSDNd

>  <s_epik_cmdline>  (273) 
J2VwaWtfcHl0aG9uJywgJy1waHQnLCAnMi4wJywgJy1waCcsICc3LjAnLCAnLXRuJywgJzgnLCAnLW1hJywgJzIwMCcsICctaW1hZScsICc8aW5maWxlLm1hZT4nLCAnLW9tYWUnLCAnPG91dGZpbGUubWFlPic=

>  <r_lp_tautomer_probability>  (273) 
1

>  <r_epik_Ionization_Penalty>  (273) 
2.44233e-05

>  <r_epik_Ionization_Penalty_Charging>  (273) 
0

>  <r_epik_Ionization_Penalty_Neutral>  (273) 
2.44233e-05

>  <r_epik_State_Penalty>  (273) 
-0

>  <r_epik_Charging_Adjusted_Penalty>  (273) 
0

>  <i_epik_Tot_Q>  (273) 
0

>  <i_epik_Tot_abs_Q>  (273) 
0

>  <s_lp_Force_Field>  (273) 
OPLS3e

>  <r_lp_Energy>  (273) 
121.081

>  <b_lp_Chiralities_Consistent>  (273) 
1

>  <s_lp_Variant>  (273) 
74:0-1

>  <s_i_glide_gridfile>  (273) 
pfpi4k_grid

>  <i_i_glide_lignum>  (273) 
29

>  <i_i_glide_rotatable_bonds>  (273) 
1

>  <r_i_docking_score>  (273) 
-3.02229

>  <r_i_glide_ligand_efficiency>  (273) 
-0.137377

>  <r_i_glide_ligand_efficiency_sa>  (273) 
-0.384936

>  <r_i_glide_ligand_efficiency_ln>  (273) 
-0.738759

>  <r_i_glide_gscore>  (273) 
-3.02229

>  <r_i_glide_lipo>  (273) 
-0.584095

>  <r_i_glide_hbond>  (273) 
-0.000146611

>  <r_i_glide_metal>  (273) 
-0

>  <r_i_glide_rewards>  (273) 
-1.36765

>  <r_i_glide_evdw>  (273) 
-11.9405

>  <r_i_glide_ecoul>  (273) 
-4.06765

>  <r_i_glide_erotb>  (273) 
0.20487

>  <r_i_glide_esite>  (273) 
-0.0680967

>  <r_i_glide_emodel>  (273) 
-20.0907

>  <r_i_glide_energy>  (273) 
-16.0081

>  <r_i_glide_einternal>  (273) 
0.287877

>  <r_i_glide_intrahb_reward>  (273) 
-0

>  <i_i_glide_confnum>  (273) 
1

>  <i_i_glide_posenum>  (273) 
3

>  <r_i_glide_eff_state_penalty>  (273) 
0

>  <ligand_id>  (273) 
74

>  <original_smiles>  (273) 
Cc1cn(C2C3(C)CC4C(C5(C3)CC2(C)C5=O)C4(C)C)nn1

>  <smiles>  (273) 
[H]c1c(C([H])([H])[H])nnn1C1([H])C2(C([H])([H])[H])C(=O)C3(C2([H])[H])C([H])([H])C1(C([H])([H])[H])C([H])([H])C1([H])C3([H])C1(C([H])([H])[H])C([H])([H])[H]

$$$$
75:0:0
     RDKit          3D

 18 19  0  0  1  0  0  0  0  0999 V2000
    4.2371   -0.9107    0.2774 C   0  0  0  0  0  0  0  0  0  0  0  0
    5.4231   -1.5861   -0.2340 N   0  0  0  0  0  0  0  0  0  0  0  0
    6.5778   -1.5752    0.4836 N   0  0  0  0  0  0  0  0  0  0  0  0
    7.4846   -2.2345   -0.1780 N   0  0  0  0  0  0  0  0  0  0  0  0
    6.9277   -2.6826   -1.3711 C   0  0  0  0  0  0  0  0  0  0  0  0
    5.6234   -2.2630   -1.4259 C   0  0  0  0  0  0  0  0  0  0  0  0
    4.7153   -2.4949   -2.4830 N   0  0  0  0  0  0  0  0  0  0  0  0
    3.5328   -1.8115   -2.7352 C   0  0  0  0  0  0  0  0  0  0  0  0
    2.9745   -2.3994   -3.8456 C   0  0  0  0  0  0  0  0  0  0  0  0
    3.8048   -3.4133   -4.3093 N   0  0  0  0  0  0  0  0  0  0  0  0
    4.8215   -3.4098   -3.4597 C   0  0  0  0  0  0  0  0  0  0  0  0
    3.3376   -1.3848   -0.1379 H   0  0  0  0  0  0  0  0  0  0  0  0
    4.2603    0.1394   -0.0312 H   0  0  0  0  0  0  0  0  0  0  0  0
    4.2162   -0.9657    1.3707 H   0  0  0  0  0  0  0  0  0  0  0  0
    7.5166   -3.2484   -2.0799 H   0  0  0  0  0  0  0  0  0  0  0  0
    3.1608   -0.9987   -2.1273 H   0  0  0  0  0  0  0  0  0  0  0  0
    2.0402   -2.1637   -4.3286 H   0  0  0  0  0  0  0  0  0  0  0  0
    5.6625   -4.0752   -3.5558 H   0  0  0  0  0  0  0  0  0  0  0  0
  1  2  1  0
  1 12  1  0
  1 13  1  0
  1 14  1  0
  2  6  1  0
  2  3  1  0
  3  4  2  0
  4  5  1  0
  5  6  2  0
  5 15  1  0
  6  7  1  0
  7 11  1  0
  7  8  1  0
  8  9  2  0
  8 16  1  0
  9 10  1  0
  9 17  1  0
 10 11  2  0
 11 18  1  0
M  END
>  <i_m_ct_stereo_status>  (274) 
1

>  <s_m_source_file>  (274) 
/var/tmp/pbs.5076255.sched01/tmptpdlle0r/921kky2sk3.sdf

>  <i_m_source_file_index>  (274) 
30

>  <i_lp_mmshare_version>  (274) 
48012

>  <i_f3d_flags>  (274) 
0

>  <s_epik_input>  (274) 
W0NIM11uMW5uW2NIXWMxLW4yW2NIXVtjSF1uW2NIXTI=

>  <s_epik_cmdline>  (274) 
J2VwaWtfcHl0aG9uJywgJy1waHQnLCAnMi4wJywgJy1waCcsICc3LjAnLCAnLXRuJywgJzgnLCAnLW1hJywgJzIwMCcsICctaW1hZScsICc8aW5maWxlLm1hZT4nLCAnLW9tYWUnLCAnPG91dGZpbGUubWFlPic=

>  <r_lp_tautomer_probability>  (274) 
1

>  <r_epik_Ionization_Penalty>  (274) 
0.00119741

>  <r_epik_Ionization_Penalty_Charging>  (274) 
0.0011974

>  <r_epik_Ionization_Penalty_Neutral>  (274) 
6.40156e-09

>  <r_epik_State_Penalty>  (274) 
0.000790085

>  <r_epik_Charging_Adjusted_Penalty>  (274) 
0.00198748

>  <i_epik_Tot_Q>  (274) 
0

>  <i_epik_Tot_abs_Q>  (274) 
0

>  <s_lp_Force_Field>  (274) 
OPLS3e

>  <r_lp_Energy>  (274) 
4.48748

>  <b_lp_Chiralities_Consistent>  (274) 
1

>  <s_lp_Variant>  (274) 
75:0-1

>  <s_i_glide_gridfile>  (274) 
pfpi4k_grid

>  <i_i_glide_lignum>  (274) 
30

>  <i_i_glide_rotatable_bonds>  (274) 
1

>  <r_i_docking_score>  (274) 
-4.11874

>  <r_i_glide_ligand_efficiency>  (274) 
-0.374431

>  <r_i_glide_ligand_efficiency_sa>  (274) 
-0.832727

>  <r_i_glide_ligand_efficiency_ln>  (274) 
-1.21214

>  <r_i_glide_gscore>  (274) 
-4.11874

>  <r_i_glide_lipo>  (274) 
-0.169069

>  <r_i_glide_hbond>  (274) 
-0.154729

>  <r_i_glide_metal>  (274) 
-0

>  <r_i_glide_rewards>  (274) 
-2.72563

>  <r_i_glide_evdw>  (274) 
-20.5764

>  <r_i_glide_ecoul>  (274) 
-4.20848

>  <r_i_glide_erotb>  (274) 
0.659275

>  <r_i_glide_esite>  (274) 
-0.0684891

>  <r_i_glide_emodel>  (274) 
-31.1765

>  <r_i_glide_energy>  (274) 
-24.7849

>  <r_i_glide_einternal>  (274) 
0.0934296

>  <r_i_glide_intrahb_reward>  (274) 
-0

>  <i_i_glide_confnum>  (274) 
5

>  <i_i_glide_posenum>  (274) 
23

>  <r_i_glide_eff_state_penalty>  (274) 
0

>  <ligand_id>  (274) 
75

>  <original_smiles>  (274) 
Cn1nncc1-n1ccnc1

>  <smiles>  (274) 
[H]c1nnn(C([H])([H])[H])c1-n1c([H])nc([H])c1[H]

$$$$
75:0:1
     RDKit          3D

 18 19  0  0  1  0  0  0  0  0999 V2000
    7.6250   -3.1722   -1.1278 C   0  0  0  0  0  0  0  0  0  0  0  0
    6.6277   -2.2665   -0.5936 N   0  0  0  0  0  0  0  0  0  0  0  0
    6.8982   -1.5818    0.5515 N   0  0  0  0  0  0  0  0  0  0  0  0
    5.8652   -0.8613    0.8926 N   0  0  0  0  0  0  0  0  0  0  0  0
    4.8628   -1.0824   -0.0520 C   0  0  0  0  0  0  0  0  0  0  0  0
    5.3376   -1.9685   -0.9952 C   0  0  0  0  0  0  0  0  0  0  0  0
    4.6217   -2.4574   -2.1232 N   0  0  0  0  0  0  0  0  0  0  0  0
    3.2540   -2.2794   -2.3471 C   0  0  0  0  0  0  0  0  0  0  0  0
    2.9545   -2.9166   -3.5515 C   0  0  0  0  0  0  0  0  0  0  0  0
    4.1216   -3.4542   -4.0697 N   0  0  0  0  0  0  0  0  0  0  0  0
    5.0485   -3.1520   -3.1832 C   0  0  0  0  0  0  0  0  0  0  0  0
    7.5464   -3.2790   -2.1865 H   0  0  0  0  0  0  0  0  0  0  0  0
    7.5112   -4.1439   -0.6584 H   0  0  0  0  0  0  0  0  0  0  0  0
    8.6227   -2.7818   -0.9531 H   0  0  0  0  0  0  0  0  0  0  0  0
    3.9024   -0.5873    0.0441 H   0  0  0  0  0  0  0  0  0  0  0  0
    2.5973   -1.7439   -1.6661 H   0  0  0  0  0  0  0  0  0  0  0  0
    2.0205   -3.0304   -4.0952 H   0  0  0  0  0  0  0  0  0  0  0  0
    6.0517   -3.4407   -3.3903 H   0  0  0  0  0  0  0  0  0  0  0  0
  1  2  1  0
  1 12  1  0
  1 13  1  0
  1 14  1  0
  2  6  1  0
  2  3  1  0
  3  4  2  0
  4  5  1  0
  5  6  2  0
  5 15  1  0
  6  7  1  0
  7 11  1  0
  7  8  1  0
  8  9  2  0
  8 16  1  0
  9 10  1  0
  9 17  1  0
 10 11  2  0
 11 18  1  0
M  END
>  <i_m_ct_stereo_status>  (275) 
1

>  <s_m_source_file>  (275) 
/var/tmp/pbs.5076255.sched01/tmptpdlle0r/921kky2sk3.sdf

>  <i_m_source_file_index>  (275) 
30

>  <i_lp_mmshare_version>  (275) 
48012

>  <i_f3d_flags>  (275) 
0

>  <s_epik_input>  (275) 
W0NIM11uMW5uW2NIXWMxLW4yW2NIXVtjSF1uW2NIXTI=

>  <s_epik_cmdline>  (275) 
J2VwaWtfcHl0aG9uJywgJy1waHQnLCAnMi4wJywgJy1waCcsICc3LjAnLCAnLXRuJywgJzgnLCAnLW1hJywgJzIwMCcsICctaW1hZScsICc8aW5maWxlLm1hZT4nLCAnLW9tYWUnLCAnPG91dGZpbGUubWFlPic=

>  <r_lp_tautomer_probability>  (275) 
1

>  <r_epik_Ionization_Penalty>  (275) 
0.00119741

>  <r_epik_Ionization_Penalty_Charging>  (275) 
0.0011974

>  <r_epik_Ionization_Penalty_Neutral>  (275) 
6.40156e-09

>  <r_epik_State_Penalty>  (275) 
0.000790085

>  <r_epik_Charging_Adjusted_Penalty>  (275) 
0.00198748

>  <i_epik_Tot_Q>  (275) 
0

>  <i_epik_Tot_abs_Q>  (275) 
0

>  <s_lp_Force_Field>  (275) 
OPLS3e

>  <r_lp_Energy>  (275) 
4.48748

>  <b_lp_Chiralities_Consistent>  (275) 
1

>  <s_lp_Variant>  (275) 
75:0-1

>  <s_i_glide_gridfile>  (275) 
pfpi4k_grid

>  <i_i_glide_lignum>  (275) 
30

>  <i_i_glide_rotatable_bonds>  (275) 
1

>  <r_i_docking_score>  (275) 
-3.75485

>  <r_i_glide_ligand_efficiency>  (275) 
-0.34135

>  <r_i_glide_ligand_efficiency_sa>  (275) 
-0.759155

>  <r_i_glide_ligand_efficiency_ln>  (275) 
-1.10505

>  <r_i_glide_gscore>  (275) 
-3.75485

>  <r_i_glide_lipo>  (275) 
-0.228559

>  <r_i_glide_hbond>  (275) 
-0.0621868

>  <r_i_glide_metal>  (275) 
-0

>  <r_i_glide_rewards>  (275) 
-2.58391

>  <r_i_glide_evdw>  (275) 
-21.3585

>  <r_i_glide_ecoul>  (275) 
-2.56992

>  <r_i_glide_erotb>  (275) 
0.659275

>  <r_i_glide_esite>  (275) 
-0.0860516

>  <r_i_glide_emodel>  (275) 
-29.4871

>  <r_i_glide_energy>  (275) 
-23.9285

>  <r_i_glide_einternal>  (275) 
0.188185

>  <r_i_glide_intrahb_reward>  (275) 
-0

>  <i_i_glide_confnum>  (275) 
1

>  <i_i_glide_posenum>  (275) 
1

>  <r_i_glide_eff_state_penalty>  (275) 
0

>  <ligand_id>  (275) 
75

>  <original_smiles>  (275) 
Cn1nncc1-n1ccnc1

>  <smiles>  (275) 
[H]c1nnn(C([H])([H])[H])c1-n1c([H])nc([H])c1[H]

$$$$
75:0:2
     RDKit          3D

 18 19  0  0  1  0  0  0  0  0999 V2000
    4.3941   -0.6535    0.3465 C   0  0  0  0  0  0  0  0  0  0  0  0
    5.5022   -1.4209   -0.1905 N   0  0  0  0  0  0  0  0  0  0  0  0
    6.6491   -1.5631    0.5161 N   0  0  0  0  0  0  0  0  0  0  0  0
    7.4664   -2.2835   -0.2033 N   0  0  0  0  0  0  0  0  0  0  0  0
    6.8360   -2.6547   -1.3948 C   0  0  0  0  0  0  0  0  0  0  0  0
    5.5972   -2.0882   -1.3907 C   0  0  0  0  0  0  0  0  0  0  0  0
    4.6307   -2.1705   -2.4019 N   0  0  0  0  0  0  0  0  0  0  0  0
    4.2271   -3.3083   -3.0896 C   0  0  0  0  0  0  0  0  0  0  0  0
    3.2186   -2.9083   -3.9336 C   0  0  0  0  0  0  0  0  0  0  0  0
    3.0344   -1.5324   -3.8277 N   0  0  0  0  0  0  0  0  0  0  0  0
    3.8823   -1.1670   -2.8783 C   0  0  0  0  0  0  0  0  0  0  0  0
    3.4612   -0.9846   -0.1120 H   0  0  0  0  0  0  0  0  0  0  0  0
    4.5379    0.4040    0.1200 H   0  0  0  0  0  0  0  0  0  0  0  0
    4.3144   -0.7914    1.4270 H   0  0  0  0  0  0  0  0  0  0  0  0
    7.3218   -3.2525   -2.1527 H   0  0  0  0  0  0  0  0  0  0  0  0
    4.6467   -4.2896   -2.9144 H   0  0  0  0  0  0  0  0  0  0  0  0
    2.6202   -3.4820   -4.6292 H   0  0  0  0  0  0  0  0  0  0  0  0
    3.9602   -0.1505   -2.5227 H   0  0  0  0  0  0  0  0  0  0  0  0
  1  2  1  0
  1 12  1  0
  1 13  1  0
  1 14  1  0
  2  6  1  0
  2  3  1  0
  3  4  2  0
  4  5  1  0
  5  6  2  0
  5 15  1  0
  6  7  1  0
  7 11  1  0
  7  8  1  0
  8  9  2  0
  8 16  1  0
  9 10  1  0
  9 17  1  0
 10 11  2  0
 11 18  1  0
M  END
>  <i_m_ct_stereo_status>  (276) 
1

>  <s_m_source_file>  (276) 
/var/tmp/pbs.5076255.sched01/tmptpdlle0r/921kky2sk3.sdf

>  <i_m_source_file_index>  (276) 
30

>  <i_lp_mmshare_version>  (276) 
48012

>  <i_f3d_flags>  (276) 
0

>  <s_epik_input>  (276) 
W0NIM11uMW5uW2NIXWMxLW4yW2NIXVtjSF1uW2NIXTI=

>  <s_epik_cmdline>  (276) 
J2VwaWtfcHl0aG9uJywgJy1waHQnLCAnMi4wJywgJy1waCcsICc3LjAnLCAnLXRuJywgJzgnLCAnLW1hJywgJzIwMCcsICctaW1hZScsICc8aW5maWxlLm1hZT4nLCAnLW9tYWUnLCAnPG91dGZpbGUubWFlPic=

>  <r_lp_tautomer_probability>  (276) 
1

>  <r_epik_Ionization_Penalty>  (276) 
0.00119741

>  <r_epik_Ionization_Penalty_Charging>  (276) 
0.0011974

>  <r_epik_Ionization_Penalty_Neutral>  (276) 
6.40156e-09

>  <r_epik_State_Penalty>  (276) 
0.000790085

>  <r_epik_Charging_Adjusted_Penalty>  (276) 
0.00198748

>  <i_epik_Tot_Q>  (276) 
0

>  <i_epik_Tot_abs_Q>  (276) 
0

>  <s_lp_Force_Field>  (276) 
OPLS3e

>  <r_lp_Energy>  (276) 
4.48748

>  <b_lp_Chiralities_Consistent>  (276) 
1

>  <s_lp_Variant>  (276) 
75:0-1

>  <s_i_glide_gridfile>  (276) 
pfpi4k_grid

>  <i_i_glide_lignum>  (276) 
30

>  <i_i_glide_rotatable_bonds>  (276) 
1

>  <r_i_docking_score>  (276) 
-3.44362

>  <r_i_glide_ligand_efficiency>  (276) 
-0.313056

>  <r_i_glide_ligand_efficiency_sa>  (276) 
-0.69623

>  <r_i_glide_ligand_efficiency_ln>  (276) 
-1.01346

>  <r_i_glide_gscore>  (276) 
-3.44362

>  <r_i_glide_lipo>  (276) 
-0.239961

>  <r_i_glide_hbond>  (276) 
0

>  <r_i_glide_metal>  (276) 
-0

>  <r_i_glide_rewards>  (276) 
-2.32628

>  <r_i_glide_evdw>  (276) 
-22.1645

>  <r_i_glide_ecoul>  (276) 
-2.33092

>  <r_i_glide_erotb>  (276) 
0.659275

>  <r_i_glide_esite>  (276) 
-0.0787909

>  <r_i_glide_emodel>  (276) 
-29.4447

>  <r_i_glide_energy>  (276) 
-24.4954

>  <r_i_glide_einternal>  (276) 
0.884021

>  <r_i_glide_intrahb_reward>  (276) 
-0

>  <i_i_glide_confnum>  (276) 
5

>  <i_i_glide_posenum>  (276) 
34

>  <r_i_glide_eff_state_penalty>  (276) 
0

>  <ligand_id>  (276) 
75

>  <original_smiles>  (276) 
Cn1nncc1-n1ccnc1

>  <smiles>  (276) 
[H]c1nnn(C([H])([H])[H])c1-n1c([H])nc([H])c1[H]

$$$$
76:0:0
     RDKit          3D

 76 83  0  0  1  0  0  0  0  0999 V2000
    2.7799   -3.1106   -2.6981 C   0  0  0  0  0  0  0  0  0  0  0  0
    3.2246   -2.6210   -1.3494 C   0  0  0  0  0  0  0  0  0  0  0  0
    3.3134   -3.3945   -0.2486 C   0  0  0  0  0  0  0  0  0  0  0  0
    3.6392   -2.8366    1.1385 C   0  0  2  0  0  0  0  0  0  0  0  0
    4.2672   -1.3564    1.0605 C   0  0  1  0  0  0  0  0  0  0  0  0
    5.3200   -1.0047    1.9425 O   0  0  0  0  0  0  0  0  0  0  0  0
    6.1919   -2.0440    2.0540 C   0  0  0  0  0  0  0  0  0  0  0  0
    6.6128   -2.6759    0.9609 C   0  0  0  0  0  0  0  0  0  0  0  0
    6.8941   -1.9256   -0.3142 C   0  0  0  0  0  0  0  0  0  0  0  0
    5.7300   -1.6814   -1.0456 O   0  0  0  0  0  0  0  0  0  0  0  0
    4.7121   -0.9341   -0.3728 C   0  0  1  0  0  0  0  0  0  0  0  0
    3.5342   -1.1443   -1.2813 C   0  0  0  0  0  0  0  0  0  0  0  0
    6.4863   -4.1363    0.8927 C   0  0  0  0  0  0  0  0  0  0  0  0
    7.2533   -4.7636    0.1615 O   0  0  0  0  0  0  0  0  0  0  0  0
    5.4055   -4.8951    1.7566 C   0  0  2  0  0  0  0  0  0  0  0  0
    6.3035   -5.4871    2.8582 C   0  0  0  0  0  0  0  0  0  0  0  0
    5.0640   -6.1703    0.8866 C   0  0  0  0  0  0  0  0  0  0  0  0
    3.9045   -7.0712    1.3960 C   0  0  2  0  0  0  0  0  0  0  0  0
    2.7909   -6.5273    0.7469 O   0  0  0  0  0  0  0  0  0  0  0  0
    1.6065   -6.7457    1.2516 C   0  0  0  0  0  0  0  0  0  0  0  0
    0.9698   -7.7811    1.1759 O   0  0  0  0  0  0  0  0  0  0  0  0
    1.0438   -5.5468    1.9893 C   0  0  0  0  0  0  0  0  0  0  0  0
    1.2841   -5.5084    3.4971 C   0  0  1  0  0  0  0  0  0  0  0  0
    1.1502   -6.8397    4.0071 O   0  0  0  0  0  0  0  0  0  0  0  0
    2.3494   -7.3464    4.6243 C   0  0  1  0  0  0  0  0  0  0  0  0
    1.8879   -8.3691    5.6722 C   0  0  0  0  0  0  0  0  0  0  0  0
    3.2292   -7.9705    3.5068 C   0  0  0  0  0  0  0  0  0  0  0  0
    3.2091   -9.1594    3.2142 O   0  0  0  0  0  0  0  0  0  0  0  0
    3.8782   -7.0149    2.7982 O   0  0  0  0  0  0  0  0  0  0  0  0
    2.9502   -6.0447    5.1638 C   0  0  2  0  0  0  0  0  0  0  0  0
    2.1346   -4.9502    5.5843 O   0  0  0  0  0  0  0  0  0  0  0  0
    2.5450   -5.0034    4.2125 C   0  0  2  0  0  0  0  0  0  0  0  0
    3.4752   -3.8248    3.7352 C   0  0  1  0  0  0  0  0  0  0  0  0
    2.4948   -2.6074    3.8393 C   0  0  0  0  0  0  0  0  0  0  0  0
    4.6116   -3.5907    4.8494 C   0  0  1  0  0  0  0  0  0  0  0  0
    4.8125   -2.1438    5.3595 C   0  0  0  0  0  0  0  0  0  0  0  0
    4.6813   -4.5519    6.0812 C   0  0  0  0  0  0  0  0  0  0  0  0
    4.2606   -6.0284    5.8856 C   0  0  1  0  0  0  0  0  0  0  0  0
    4.0870   -6.6411    7.1413 O   0  0  0  0  0  0  0  0  0  0  0  0
    4.0971   -3.9674    2.2009 C   0  0  1  0  0  0  0  0  0  0  0  0
    3.5755   -2.9548   -3.4284 H   0  0  0  0  0  0  0  0  0  0  0  0
    1.8639   -2.6270   -3.0421 H   0  0  0  0  0  0  0  0  0  0  0  0
    2.5617   -4.1660   -2.6223 H   0  0  0  0  0  0  0  0  0  0  0  0
    3.0401   -4.4332   -0.3121 H   0  0  0  0  0  0  0  0  0  0  0  0
    2.6185   -2.5927    1.4056 H   0  0  0  0  0  0  0  0  0  0  0  0
    3.4747   -0.6638    1.3641 H   0  0  0  0  0  0  0  0  0  0  0  0
    6.0281   -2.5364    2.9720 H   0  0  0  0  0  0  0  0  0  0  0  0
    7.3314   -0.9724   -0.0242 H   0  0  0  0  0  0  0  0  0  0  0  0
    7.6293   -2.4220   -0.9373 H   0  0  0  0  0  0  0  0  0  0  0  0
    5.0059    0.1115   -0.3172 H   0  0  0  0  0  0  0  0  0  0  0  0
    3.7041   -0.7313   -2.2708 H   0  0  0  0  0  0  0  0  0  0  0  0
    2.6931   -0.6249   -0.8466 H   0  0  0  0  0  0  0  0  0  0  0  0
    5.7509   -5.9134    3.6688 H   0  0  0  0  0  0  0  0  0  0  0  0
    6.9721   -4.7528    3.2761 H   0  0  0  0  0  0  0  0  0  0  0  0
    6.9987   -6.2571    2.5142 H   0  0  0  0  0  0  0  0  0  0  0  0
    4.8551   -5.8768   -0.1447 H   0  0  0  0  0  0  0  0  0  0  0  0
    5.9369   -6.8206    0.8008 H   0  0  0  0  0  0  0  0  0  0  0  0
    4.0136   -8.1036    1.0616 H   0  0  0  0  0  0  0  0  0  0  0  0
    1.4007   -4.6387    1.5054 H   0  0  0  0  0  0  0  0  0  0  0  0
    0.0024   -5.6305    1.8095 H   0  0  0  0  0  0  0  0  0  0  0  0
    0.4396   -4.9324    3.8717 H   0  0  0  0  0  0  0  0  0  0  0  0
    2.7373   -8.8230    6.1675 H   0  0  0  0  0  0  0  0  0  0  0  0
    1.3165   -9.1729    5.2108 H   0  0  0  0  0  0  0  0  0  0  0  0
    1.2534   -7.9102    6.4229 H   0  0  0  0  0  0  0  0  0  0  0  0
    2.9381   -1.6648    3.5218 H   0  0  0  0  0  0  0  0  0  0  0  0
    2.1495   -2.4614    4.8649 H   0  0  0  0  0  0  0  0  0  0  0  0
    1.5802   -2.7484    3.2571 H   0  0  0  0  0  0  0  0  0  0  0  0
    5.5515   -3.7897    4.3881 H   0  0  0  0  0  0  0  0  0  0  0  0
    4.0024   -1.8168    6.0142 H   0  0  0  0  0  0  0  0  0  0  0  0
    4.9064   -1.4193    4.5518 H   0  0  0  0  0  0  0  0  0  0  0  0
    5.7304   -2.0782    5.9420 H   0  0  0  0  0  0  0  0  0  0  0  0
    5.7060   -4.5697    6.4352 H   0  0  0  0  0  0  0  0  0  0  0  0
    4.0991   -4.1146    6.9026 H   0  0  0  0  0  0  0  0  0  0  0  0
    4.9815   -6.6443    5.3599 H   0  0  0  0  0  0  0  0  0  0  0  0
    4.9320   -6.6513    7.5924 H   0  0  0  0  0  0  0  0  0  0  0  0
    3.3633   -4.6603    1.9125 H   0  0  0  0  0  0  0  0  0  0  0  0
  1  2  1  0
  1 41  1  0
  1 42  1  0
  1 43  1  0
  2 12  1  0
  2  3  2  0
  3  4  1  0
  3 44  1  0
  4 40  1  0
  4  5  1  0
  4 45  1  1
  5 11  1  0
  5  6  1  0
  5 46  1  1
  6  7  1  0
  7  8  2  0
  7 47  1  0
  8  9  1  0
  8 13  1  0
  9 10  1  0
  9 48  1  0
  9 49  1  0
 10 11  1  0
 11 12  1  0
 11 50  1  1
 12 51  1  0
 12 52  1  0
 13 14  2  0
 13 15  1  0
 15 40  1  0
 15 16  1  1
 15 17  1  0
 16 53  1  0
 16 54  1  0
 16 55  1  0
 17 18  1  0
 17 56  1  0
 17 57  1  0
 18 29  1  0
 18 19  1  0
 18 58  1  1
 19 20  1  0
 20 21  2  0
 20 22  1  0
 22 23  1  0
 22 59  1  0
 22 60  1  0
 23 32  1  0
 23 24  1  0
 23 61  1  1
 24 25  1  0
 25 26  1  1
 25 27  1  0
 25 30  1  0
 26 62  1  0
 26 63  1  0
 26 64  1  0
 27 28  2  0
 27 29  1  0
 30 32  1  0
 30 38  1  0
 30 31  1  1
 32 31  1  1
 32 33  1  0
 33 34  1  6
 33 35  1  0
 33 40  1  0
 34 65  1  0
 34 66  1  0
 34 67  1  0
 35 36  1  0
 35 37  1  0
 35 68  1  6
 36 69  1  0
 36 70  1  0
 36 71  1  0
 37 38  1  0
 37 72  1  0
 37 73  1  0
 38 39  1  0
 38 74  1  6
 39 75  1  0
 40 76  1  6
M  END
>  <i_m_ct_stereo_status>  (277) 
1

>  <s_m_source_file>  (277) 
/var/tmp/pbs.5076255.sched01/tmptpdlle0r/921kky2sk3.sdf

>  <i_m_source_file_index>  (277) 
31

>  <i_lp_mmshare_version>  (277) 
48012

>  <i_f3d_flags>  (277) 
0

>  <s_epik_input>  (277) 
TzFbQ0hdPUMoQzI9TylbQ0gyXU9bQ0BASF0oW0NIMl1DKFtDSDNdKT1bQ0hdMylbQ0BIXTFbQ0BASF0zW0NASF0oW0NAXTQoW0NIM10pW0NAQEhdKFtDSDNdKVtDSDJdW0NASF01W09IXSlbQ0BAXTIoW0NIM10pW0NIMl1bQ0BASF0oT0MoPU8pW0NAQF02KE83KVtDSDNdKU9DKD1PKVtDSDJdW0NAQEhdN1tDQF00KFtDQF01NjgpTzg=

>  <s_epik_cmdline>  (277) 
J2VwaWtfcHl0aG9uJywgJy1waHQnLCAnMi4wJywgJy1waCcsICc3LjAnLCAnLXRuJywgJzgnLCAnLW1hJywgJzIwMCcsICctaW1hZScsICc8aW5maWxlLm1hZT4nLCAnLW9tYWUnLCAnPG91dGZpbGUubWFlPic=

>  <r_lp_tautomer_probability>  (277) 
1

>  <r_epik_Ionization_Penalty>  (277) 
8.80261e-08

>  <r_epik_Ionization_Penalty_Charging>  (277) 
0

>  <r_epik_Ionization_Penalty_Neutral>  (277) 
8.80261e-08

>  <r_epik_State_Penalty>  (277) 
-0

>  <r_epik_Charging_Adjusted_Penalty>  (277) 
0

>  <i_epik_Tot_Q>  (277) 
0

>  <i_epik_Tot_abs_Q>  (277) 
0

>  <s_epik_Chemistry_Notes>  (277) 
This compound has an ester and may undergo hydrolysis at high or low pH. This compound contains an acetal/aminal-like group ( X-CH(R)-Y where X, Y are N, S, or O) that may be acid/base labile, releasing an aldehyde.

>  <s_lp_Force_Field>  (277) 
OPLS3e

>  <r_lp_Energy>  (277) 
178.289

>  <b_lp_Chiralities_Consistent>  (277) 
1

>  <s_lp_Variant>  (277) 
76:0-1

>  <s_i_glide_gridfile>  (277) 
pfpi4k_grid

>  <i_i_glide_lignum>  (277) 
31

>  <i_i_glide_rotatable_bonds>  (277) 
1

>  <r_i_docking_score>  (277) 
-1.31553

>  <r_i_glide_ligand_efficiency>  (277) 
-0.0328882

>  <r_i_glide_ligand_efficiency_sa>  (277) 
-0.112476

>  <r_i_glide_ligand_efficiency_ln>  (277) 
-0.280563

>  <r_i_glide_gscore>  (277) 
-1.31553

>  <r_i_glide_lipo>  (277) 
-0.392832

>  <r_i_glide_hbond>  (277) 
-0.0163223

>  <r_i_glide_metal>  (277) 
-0

>  <r_i_glide_rewards>  (277) 
-0.241199

>  <r_i_glide_evdw>  (277) 
-13.3886

>  <r_i_glide_ecoul>  (277) 
0.340628

>  <r_i_glide_erotb>  (277) 
0

>  <r_i_glide_esite>  (277) 
-0.0468405

>  <r_i_glide_emodel>  (277) 
-13.1297

>  <r_i_glide_energy>  (277) 
-13.048

>  <r_i_glide_einternal>  (277) 
0.329224

>  <r_i_glide_intrahb_reward>  (277) 
-0

>  <i_i_glide_confnum>  (277) 
1

>  <i_i_glide_posenum>  (277) 
11

>  <r_i_glide_eff_state_penalty>  (277) 
0

>  <ligand_id>  (277) 
76

>  <original_smiles>  (277) 
CC1=CC2C3OC=C(COC3C1)C(=O)C1(C)CC3OC(=O)CC4OC(C)(C(=O)O3)C35OC43C(C)(C(C)CC5O)C21

>  <smiles>  (277) 
[H]OC1([H])C([H])([H])C([H])(C([H])([H])[H])C2(C([H])([H])[H])C3([H])C4([H])C([H])=C(C([H])([H])[H])C([H])([H])C5([H])OC([H])([H])C(=C([H])OC54[H])C(=O)C3(C([H])([H])[H])C([H])([H])C3([H])OC(=O)C([H])([H])C4([H])OC(C([H])([H])[H])(C(=O)O3)C13OC432

$$$$
77:0:0
     RDKit          3D

 29 31  0  0  1  0  0  0  0  0999 V2000
    1.9320   -3.0630   -3.6923 C   0  0  0  0  0  0  0  0  0  0  0  0
    2.8273   -1.9376   -3.5276 N   0  0  0  0  0  0  0  0  0  0  0  0
    2.8530   -0.7903   -4.3205 C   0  0  0  0  0  0  0  0  0  0  0  0
    3.8119    0.0346   -3.8084 C   0  0  0  0  0  0  0  0  0  0  0  0
    4.4022   -0.5964   -2.7245 N   0  0  0  0  0  0  0  0  0  0  0  0
    3.7762   -1.7594   -2.5902 C   0  0  0  0  0  0  0  0  0  0  0  0
    4.0955   -2.7627   -1.5126 C   0  0  2  0  0  0  0  0  0  0  0  0
    3.0266   -2.6421   -0.4906 N   0  0  0  0  0  0  0  0  0  0  0  0
    3.7326   -2.3095    0.7745 C   0  0  1  0  0  0  0  0  0  0  0  0
    4.5468   -3.5429    1.2376 C   0  0  0  0  0  0  0  0  0  0  0  0
    5.6985   -3.5973    0.2182 C   0  0  0  0  0  0  0  0  0  0  0  0
    5.3666   -2.4162   -0.7026 C   0  0  2  0  0  0  0  0  0  0  0  0
    4.8469   -1.3828    0.3096 C   0  0  0  0  0  0  0  0  0  0  0  0
    1.4074   -3.0029   -4.6483 H   0  0  0  0  0  0  0  0  0  0  0  0
    1.1919   -3.0608   -2.8859 H   0  0  0  0  0  0  0  0  0  0  0  0
    2.4849   -3.9988   -3.6846 H   0  0  0  0  0  0  0  0  0  0  0  0
    2.1862   -0.6544   -5.1563 H   0  0  0  0  0  0  0  0  0  0  0  0
    4.1365    1.0156   -4.1429 H   0  0  0  0  0  0  0  0  0  0  0  0
    4.1313   -3.7764   -1.9301 H   0  0  0  0  0  0  0  0  0  0  0  0
    2.3675   -1.9055   -0.7422 H   0  0  0  0  0  0  0  0  0  0  0  0
    3.0708   -1.8960    1.5419 H   0  0  0  0  0  0  0  0  0  0  0  0
    4.9383   -3.4008    2.2454 H   0  0  0  0  0  0  0  0  0  0  0  0
    3.9500   -4.4530    1.2347 H   0  0  0  0  0  0  0  0  0  0  0  0
    6.6627   -3.4372    0.7062 H   0  0  0  0  0  0  0  0  0  0  0  0
    5.7492   -4.5450   -0.3180 H   0  0  0  0  0  0  0  0  0  0  0  0
    6.2160   -2.1122   -1.3122 H   0  0  0  0  0  0  0  0  0  0  0  0
    4.4425   -0.4618   -0.1072 H   0  0  0  0  0  0  0  0  0  0  0  0
    5.5688   -1.1117    1.0872 H   0  0  0  0  0  0  0  0  0  0  0  0
    2.5481   -3.5279   -0.3844 H   0  0  0  0  0  0  0  0  0  0  0  0
  1  2  1  0
  1 14  1  0
  1 15  1  0
  1 16  1  0
  2  6  1  0
  2  3  1  0
  3  4  2  0
  3 17  1  0
  4  5  1  0
  4 18  1  0
  5  6  2  0
  6  7  1  0
  7 12  1  0
  7  8  1  0
  7 19  1  6
  8  9  1  0
  8 20  1  0
  8 29  1  0
  9 13  1  0
  9 10  1  0
  9 21  1  1
 10 11  1  0
 10 22  1  0
 10 23  1  0
 11 12  1  0
 11 24  1  0
 11 25  1  0
 12 13  1  0
 12 26  1  6
 13 27  1  0
 13 28  1  0
M  CHG  1   8   1
M  END
>  <i_m_ct_stereo_status>  (278) 
1

>  <s_m_source_file>  (278) 
/var/tmp/pbs.5076255.sched01/tmptpdlle0r/921kky2sk3.sdf

>  <i_m_source_file_index>  (278) 
32

>  <i_lp_mmshare_version>  (278) 
48012

>  <i_f3d_flags>  (278) 
0

>  <s_epik_input>  (278) 
W0NIM11uMVtjSF1bY0hdbmMxW0NASF0oW05IXVtDQEBIXTIzKVtDQEBIXShbQ0gyXTMpW0NIMl1bQ0gyXTI=

>  <s_epik_cmdline>  (278) 
J2VwaWtfcHl0aG9uJywgJy1waHQnLCAnMi4wJywgJy1waCcsICc3LjAnLCAnLXRuJywgJzgnLCAnLW1hJywgJzIwMCcsICctaW1hZScsICc8aW5maWxlLm1hZT4nLCAnLW9tYWUnLCAnPG91dGZpbGUubWFlPic=

>  <r_lp_tautomer_probability>  (278) 
1

>  <r_epik_Ionization_Penalty>  (278) 
0.011013

>  <r_epik_Ionization_Penalty_Charging>  (278) 
0.011013

>  <r_epik_Ionization_Penalty_Neutral>  (278) 
8.97227e-14

>  <r_epik_State_Penalty>  (278) 
0.258951

>  <r_epik_Charging_Adjusted_Penalty>  (278) 
0.269964

>  <i_epik_Tot_Q>  (278) 
1

>  <i_epik_Tot_abs_Q>  (278) 
1

>  <s_lp_Force_Field>  (278) 
OPLS3e

>  <r_lp_Energy>  (278) 
25.6645

>  <b_lp_Chiralities_Consistent>  (278) 
1

>  <s_lp_Variant>  (278) 
77:0-1

>  <s_i_glide_gridfile>  (278) 
pfpi4k_grid

>  <i_i_glide_lignum>  (278) 
32

>  <i_i_glide_rotatable_bonds>  (278) 
1

>  <r_i_docking_score>  (278) 
-4.63657

>  <r_i_glide_ligand_efficiency>  (278) 
-0.356659

>  <r_i_glide_ligand_efficiency_sa>  (278) 
-0.838625

>  <r_i_glide_ligand_efficiency_ln>  (278) 
-1.3006

>  <r_i_glide_gscore>  (278) 
-4.63657

>  <r_i_glide_lipo>  (278) 
-0.504901

>  <r_i_glide_hbond>  (278) 
-0.2

>  <r_i_glide_metal>  (278) 
-0

>  <r_i_glide_rewards>  (278) 
-2.45484

>  <r_i_glide_evdw>  (278) 
-16.2099

>  <r_i_glide_ecoul>  (278) 
-7.192

>  <r_i_glide_erotb>  (278) 
0.493952

>  <r_i_glide_esite>  (278) 
-0.0814767

>  <r_i_glide_emodel>  (278) 
-30.0651

>  <r_i_glide_energy>  (278) 
-23.402

>  <r_i_glide_einternal>  (278) 
2.88618

>  <r_i_glide_intrahb_reward>  (278) 
-0

>  <i_i_glide_confnum>  (278) 
2

>  <i_i_glide_posenum>  (278) 
2

>  <r_i_glide_eff_state_penalty>  (278) 
0

>  <ligand_id>  (278) 
77

>  <original_smiles>  (278) 
Cn1ccnc1C1NC2CCC1C2

>  <smiles>  (278) 
[H]c1nc(C2([H])C3([H])C([H])([H])C([H])([H])C([H])(C3([H])[H])[N+]2([H])[H])n(C([H])([H])[H])c1[H]

$$$$
77:0:1
     RDKit          3D

 29 31  0  0  1  0  0  0  0  0999 V2000
   -2.5206    3.2199    2.9018 C   0  0  0  0  0  0  0  0  0  0  0  0
   -1.9066    3.0235    4.2040 N   0  0  0  0  0  0  0  0  0  0  0  0
   -2.6031    3.1208    5.4057 C   0  0  0  0  0  0  0  0  0  0  0  0
   -1.7058    2.8956    6.4185 C   0  0  0  0  0  0  0  0  0  0  0  0
   -0.4566    2.6591    5.8623 N   0  0  0  0  0  0  0  0  0  0  0  0
   -0.6249    2.7161    4.5469 C   0  0  0  0  0  0  0  0  0  0  0  0
    0.5622    2.5167    3.6163 C   0  0  2  0  0  0  0  0  0  0  0  0
    0.0472    2.1283    2.2856 N   0  0  0  0  0  0  0  0  0  0  0  0
    0.5743    0.7682    2.0215 C   0  0  1  0  0  0  0  0  0  0  0  0
    2.0667    0.8989    1.7097 C   0  0  0  0  0  0  0  0  0  0  0  0
    2.6645    1.2364    3.0885 C   0  0  0  0  0  0  0  0  0  0  0  0
    1.4148    1.2757    3.9893 C   0  0  2  0  0  0  0  0  0  0  0  0
    0.5836    0.1326    3.4050 C   0  0  0  0  0  0  0  0  0  0  0  0
   -3.5233    3.6403    2.9924 H   0  0  0  0  0  0  0  0  0  0  0  0
   -2.6077    2.2645    2.3790 H   0  0  0  0  0  0  0  0  0  0  0  0
   -1.9145    3.9121    2.3176 H   0  0  0  0  0  0  0  0  0  0  0  0
   -3.6622    3.3402    5.4509 H   0  0  0  0  0  0  0  0  0  0  0  0
   -1.8608    2.8846    7.4882 H   0  0  0  0  0  0  0  0  0  0  0  0
    1.1478    3.4365    3.5584 H   0  0  0  0  0  0  0  0  0  0  0  0
   -0.9554    2.0601    2.3525 H   0  0  0  0  0  0  0  0  0  0  0  0
   -0.0034    0.2221    1.2784 H   0  0  0  0  0  0  0  0  0  0  0  0
    2.4811   -0.0216    1.2909 H   0  0  0  0  0  0  0  0  0  0  0  0
    2.2280    1.7099    1.0102 H   0  0  0  0  0  0  0  0  0  0  0  0
    3.3623    0.4587    3.4101 H   0  0  0  0  0  0  0  0  0  0  0  0
    3.1876    2.1950    3.0929 H   0  0  0  0  0  0  0  0  0  0  0  0
    1.6618    1.1878    5.0473 H   0  0  0  0  0  0  0  0  0  0  0  0
   -0.4087    0.0399    3.8501 H   0  0  0  0  0  0  0  0  0  0  0  0
    1.0715   -0.8449    3.4484 H   0  0  0  0  0  0  0  0  0  0  0  0
    0.2853    2.8149    1.5576 H   0  0  0  0  0  0  0  0  0  0  0  0
  1  2  1  0
  1 14  1  0
  1 15  1  0
  1 16  1  0
  2  6  1  0
  2  3  1  0
  3  4  2  0
  3 17  1  0
  4  5  1  0
  4 18  1  0
  5  6  2  0
  6  7  1  0
  7 12  1  0
  7  8  1  0
  7 19  1  6
  8  9  1  0
  8 20  1  0
  8 29  1  0
  9 13  1  0
  9 10  1  0
  9 21  1  6
 10 11  1  0
 10 22  1  0
 10 23  1  0
 11 12  1  0
 11 24  1  0
 11 25  1  0
 12 13  1  0
 12 26  1  1
 13 27  1  0
 13 28  1  0
M  CHG  1   8   1
M  END
>  <i_m_ct_stereo_status>  (279) 
1

>  <s_m_source_file>  (279) 
/var/tmp/pbs.5076255.sched01/tmptpdlle0r/921kky2sk3.sdf

>  <i_m_source_file_index>  (279) 
32

>  <i_lp_mmshare_version>  (279) 
48012

>  <i_f3d_flags>  (279) 
0

>  <s_epik_input>  (279) 
W0NIM11uMVtjSF1bY0hdbmMxW0NASF0oW05IXVtDQEBIXTIzKVtDQEBIXShbQ0gyXTMpW0NIMl1bQ0gyXTI=

>  <s_epik_cmdline>  (279) 
J2VwaWtfcHl0aG9uJywgJy1waHQnLCAnMi4wJywgJy1waCcsICc3LjAnLCAnLXRuJywgJzgnLCAnLW1hJywgJzIwMCcsICctaW1hZScsICc8aW5maWxlLm1hZT4nLCAnLW9tYWUnLCAnPG91dGZpbGUubWFlPic=

>  <r_lp_tautomer_probability>  (279) 
1

>  <r_epik_Ionization_Penalty>  (279) 
0.011013

>  <r_epik_Ionization_Penalty_Charging>  (279) 
0.011013

>  <r_epik_Ionization_Penalty_Neutral>  (279) 
8.97227e-14

>  <r_epik_State_Penalty>  (279) 
0.258951

>  <r_epik_Charging_Adjusted_Penalty>  (279) 
0.269964

>  <i_epik_Tot_Q>  (279) 
1

>  <i_epik_Tot_abs_Q>  (279) 
1

>  <s_lp_Force_Field>  (279) 
OPLS3e

>  <r_lp_Energy>  (279) 
25.6645

>  <b_lp_Chiralities_Consistent>  (279) 
1

>  <s_lp_Variant>  (279) 
77:0-1

>  <s_i_glide_gridfile>  (279) 
pfpi4k_grid

>  <i_i_glide_lignum>  (279) 
32

>  <i_i_glide_rotatable_bonds>  (279) 
1

>  <r_i_docking_score>  (279) 
-3.64125

>  <r_i_glide_ligand_efficiency>  (279) 
-0.280096

>  <r_i_glide_ligand_efficiency_sa>  (279) 
-0.6586

>  <r_i_glide_ligand_efficiency_ln>  (279) 
-1.0214

>  <r_i_glide_gscore>  (279) 
-3.64125

>  <r_i_glide_lipo>  (279) 
-0.0571755

>  <r_i_glide_hbond>  (279) 
-0.2

>  <r_i_glide_metal>  (279) 
-0

>  <r_i_glide_rewards>  (279) 
-2.19372

>  <r_i_glide_evdw>  (279) 
-12.1274

>  <r_i_glide_ecoul>  (279) 
-6.15493

>  <r_i_glide_erotb>  (279) 
0.493952

>  <r_i_glide_esite>  (279) 
-0.154693

>  <r_i_glide_emodel>  (279) 
-22.9327

>  <r_i_glide_energy>  (279) 
-18.2824

>  <r_i_glide_einternal>  (279) 
3.57714

>  <r_i_glide_intrahb_reward>  (279) 
-0

>  <i_i_glide_confnum>  (279) 
2

>  <i_i_glide_posenum>  (279) 
23

>  <r_i_glide_eff_state_penalty>  (279) 
0

>  <ligand_id>  (279) 
77

>  <original_smiles>  (279) 
Cn1ccnc1C1NC2CCC1C2

>  <smiles>  (279) 
[H]c1nc(C2([H])C3([H])C([H])([H])C([H])([H])C([H])(C3([H])[H])[N+]2([H])[H])n(C([H])([H])[H])c1[H]

$$$$
77:1:0
     RDKit          3D

 29 31  0  0  1  0  0  0  0  0999 V2000
    4.8314   -0.8490   -0.9167 C   0  0  0  0  0  0  0  0  0  0  0  0
    3.9598   -1.7253   -1.7134 N   0  0  0  0  0  0  0  0  0  0  0  0
    3.2973   -1.2940   -2.8242 C   0  0  0  0  0  0  0  0  0  0  0  0
    2.6565   -2.3494   -3.3959 C   0  0  0  0  0  0  0  0  0  0  0  0
    2.9269   -3.4406   -2.6049 N   0  0  0  0  0  0  0  0  0  0  0  0
    3.7183   -3.0669   -1.5573 C   0  0  0  0  0  0  0  0  0  0  0  0
    4.1647   -4.0215   -0.4786 C   0  0  2  0  0  0  0  0  0  0  0  0
    3.0879   -4.4148    0.4567 N   0  0  0  0  0  0  0  0  0  0  0  0
    3.5391   -3.9783    1.7907 C   0  0  1  0  0  0  0  0  0  0  0  0
    4.6857   -4.8741    2.2678 C   0  0  0  0  0  0  0  0  0  0  0  0
    5.8604   -4.4552    1.3650 C   0  0  0  0  0  0  0  0  0  0  0  0
    5.1928   -3.4191    0.4918 C   0  0  2  0  0  0  0  0  0  0  0  0
    4.2428   -2.7110    1.4642 C   0  0  0  0  0  0  0  0  0  0  0  0
    4.5711    0.1187   -1.1495 H   0  0  0  0  0  0  0  0  0  0  0  0
    5.8677   -1.0476   -1.0860 H   0  0  0  0  0  0  0  0  0  0  0  0
    4.6064   -0.8138    0.1714 H   0  0  0  0  0  0  0  0  0  0  0  0
    3.3365   -0.2417   -3.1176 H   0  0  0  0  0  0  0  0  0  0  0  0
    2.0321   -2.4100   -4.2938 H   0  0  0  0  0  0  0  0  0  0  0  0
    4.5846   -4.9139   -0.9731 H   0  0  0  0  0  0  0  0  0  0  0  0
    2.9878   -5.4222    0.4589 H   0  0  0  0  0  0  0  0  0  0  0  0
    2.7244   -3.8265    2.4946 H   0  0  0  0  0  0  0  0  0  0  0  0
    4.9207   -4.6418    3.3137 H   0  0  0  0  0  0  0  0  0  0  0  0
    4.4385   -5.9347    2.1572 H   0  0  0  0  0  0  0  0  0  0  0  0
    6.6579   -3.9791    1.9399 H   0  0  0  0  0  0  0  0  0  0  0  0
    6.2893   -5.2705    0.7834 H   0  0  0  0  0  0  0  0  0  0  0  0
    5.9861   -2.8733   -0.0046 H   0  0  0  0  0  0  0  0  0  0  0  0
    3.4402   -2.0732    1.0849 H   0  0  0  0  0  0  0  0  0  0  0  0
    4.7646   -2.1993    2.2698 H   0  0  0  0  0  0  0  0  0  0  0  0
    2.6038   -4.3911   -2.7661 H   0  0  0  0  0  0  0  0  0  0  0  0
  1  2  1  0
  1 14  1  0
  1 15  1  0
  1 16  1  0
  2  6  1  0
  2  3  1  0
  3  4  2  0
  3 17  1  0
  4  5  1  0
  4 18  1  0
  5  6  2  0
  5 29  1  0
  6  7  1  0
  7 12  1  0
  7  8  1  0
  7 19  1  6
  8  9  1  0
  8 20  1  0
  9 13  1  0
  9 10  1  0
  9 21  1  1
 10 11  1  0
 10 22  1  0
 10 23  1  0
 11 12  1  0
 11 24  1  0
 11 25  1  0
 12 13  1  0
 12 26  1  6
 13 27  1  0
 13 28  1  0
M  CHG  1   5   1
M  END
>  <i_m_ct_stereo_status>  (280) 
1

>  <s_m_source_file>  (280) 
/var/tmp/pbs.5076255.sched01/tmptpdlle0r/921kky2sk3.sdf

>  <i_m_source_file_index>  (280) 
33

>  <i_lp_mmshare_version>  (280) 
48012

>  <i_f3d_flags>  (280) 
0

>  <s_epik_input>  (280) 
W0NIM11uMVtjSF1bY0hdbmMxW0NASF0oW05IXVtDQEBIXTIzKVtDQEBIXShbQ0gyXTMpW0NIMl1bQ0gyXTI=

>  <s_epik_cmdline>  (280) 
J2VwaWtfcHl0aG9uJywgJy1waHQnLCAnMi4wJywgJy1waCcsICc3LjAnLCAnLXRuJywgJzgnLCAnLW1hJywgJzIwMCcsICctaW1hZScsICc8aW5maWxlLm1hZT4nLCAnLW9tYWUnLCAnPG91dGZpbGUubWFlPic=

>  <r_epik_Ionization_Penalty>  (280) 
1.47211

>  <r_epik_Ionization_Penalty_Charging>  (280) 
0

>  <r_epik_Ionization_Penalty_Neutral>  (280) 
1.47211

>  <r_epik_State_Penalty>  (280) 
0.62933

>  <r_epik_Charging_Adjusted_Penalty>  (280) 
0.62933

>  <i_epik_Tot_Q>  (280) 
1

>  <i_epik_Tot_abs_Q>  (280) 
1

>  <s_lp_Force_Field>  (280) 
OPLS3e

>  <r_lp_Energy>  (280) 
38.1175

>  <b_lp_Chiralities_Consistent>  (280) 
1

>  <s_lp_Variant>  (280) 
77:0-2

>  <s_i_glide_gridfile>  (280) 
pfpi4k_grid

>  <i_i_glide_lignum>  (280) 
33

>  <i_i_glide_rotatable_bonds>  (280) 
1

>  <r_i_docking_score>  (280) 
-3.67122

>  <r_i_glide_ligand_efficiency>  (280) 
-0.282401

>  <r_i_glide_ligand_efficiency_sa>  (280) 
-0.66402

>  <r_i_glide_ligand_efficiency_ln>  (280) 
-1.02981

>  <r_i_glide_gscore>  (280) 
-3.67122

>  <r_i_glide_lipo>  (280) 
-0.309054

>  <r_i_glide_hbond>  (280) 
0

>  <r_i_glide_metal>  (280) 
-0

>  <r_i_glide_rewards>  (280) 
-2.19372

>  <r_i_glide_evdw>  (280) 
-13.583

>  <r_i_glide_ecoul>  (280) 
-6.0767

>  <r_i_glide_erotb>  (280) 
0.493952

>  <r_i_glide_esite>  (280) 
-0.071741

>  <r_i_glide_emodel>  (280) 
-19.0725

>  <r_i_glide_energy>  (280) 
-19.6597

>  <r_i_glide_einternal>  (280) 
6.69779

>  <r_i_glide_intrahb_reward>  (280) 
-0

>  <i_i_glide_confnum>  (280) 
4

>  <i_i_glide_posenum>  (280) 
9

>  <r_i_glide_eff_state_penalty>  (280) 
0

>  <ligand_id>  (280) 
77

>  <original_smiles>  (280) 
Cn1ccnc1C1NC2CCC1C2

>  <smiles>  (280) 
[H]c1c([H])[n+]([H])c(C2([H])N([H])C3([H])C([H])([H])C([H])([H])C2([H])C3([H])[H])n1C([H])([H])[H]

$$$$
77:1:1
     RDKit          3D

 29 31  0  0  1  0  0  0  0  0999 V2000
    5.4113   -0.8493   -1.4350 C   0  0  0  0  0  0  0  0  0  0  0  0
    4.3347   -1.0152   -2.4735 N   0  0  0  0  0  0  0  0  0  0  0  0
    4.0295   -0.0340   -3.3521 C   0  0  0  0  0  0  0  0  0  0  0  0
    3.0860   -0.4885   -4.2126 C   0  0  0  0  0  0  0  0  0  0  0  0
    2.8149   -1.7681   -3.8227 N   0  0  0  0  0  0  0  0  0  0  0  0
    3.5584   -2.1112   -2.7399 C   0  0  0  0  0  0  0  0  0  0  0  0
    3.4790   -3.4254   -2.0162 C   0  0  2  0  0  0  0  0  0  0  0  0
    2.2454   -3.5788   -1.2222 N   0  0  0  0  0  0  0  0  0  0  0  0
    2.6953   -3.7733    0.1634 C   0  0  1  0  0  0  0  0  0  0  0  0
    3.3169   -5.1691    0.3115 C   0  0  0  0  0  0  0  0  0  0  0  0
    4.6500   -5.0278   -0.4333 C   0  0  0  0  0  0  0  0  0  0  0  0
    4.5571   -3.6059   -0.9346 C   0  0  2  0  0  0  0  0  0  0  0  0
    3.8646   -2.9044    0.2403 C   0  0  0  0  0  0  0  0  0  0  0  0
    5.6494    0.1398   -1.3001 H   0  0  0  0  0  0  0  0  0  0  0  0
    6.2744   -1.4585   -1.7009 H   0  0  0  0  0  0  0  0  0  0  0  0
    5.1279   -1.0873   -0.4401 H   0  0  0  0  0  0  0  0  0  0  0  0
    4.5284    0.9351   -3.2830 H   0  0  0  0  0  0  0  0  0  0  0  0
    2.5924   -0.0000   -5.0488 H   0  0  0  0  0  0  0  0  0  0  0  0
    3.5725   -4.2165   -2.7769 H   0  0  0  0  0  0  0  0  0  0  0  0
    1.7547   -4.4027   -1.5337 H   0  0  0  0  0  0  0  0  0  0  0  0
    1.9361   -3.5120    0.9072 H   0  0  0  0  0  0  0  0  0  0  0  0
    3.4995   -5.3800    1.3641 H   0  0  0  0  0  0  0  0  0  0  0  0
    2.6782   -5.9341   -0.1203 H   0  0  0  0  0  0  0  0  0  0  0  0
    5.5049   -5.1304    0.2405 H   0  0  0  0  0  0  0  0  0  0  0  0
    4.7776   -5.7404   -1.2497 H   0  0  0  0  0  0  0  0  0  0  0  0
    5.5407   -3.3215   -1.2555 H   0  0  0  0  0  0  0  0  0  0  0  0
    3.4388   -1.8892    0.0860 H   0  0  0  0  0  0  0  0  0  0  0  0
    4.4720   -2.8958    1.1415 H   0  0  0  0  0  0  0  0  0  0  0  0
    2.1101   -2.3582   -4.2615 H   0  0  0  0  0  0  0  0  0  0  0  0
  1  2  1  0
  1 14  1  0
  1 15  1  0
  1 16  1  0
  2  6  1  0
  2  3  1  0
  3  4  2  0
  3 17  1  0
  4  5  1  0
  4 18  1  0
  5  6  2  0
  5 29  1  0
  6  7  1  0
  7 12  1  0
  7  8  1  0
  7 19  1  6
  8  9  1  0
  8 20  1  0
  9 13  1  0
  9 10  1  0
  9 21  1  1
 10 11  1  0
 10 22  1  0
 10 23  1  0
 11 12  1  0
 11 24  1  0
 11 25  1  0
 12 13  1  0
 12 26  1  6
 13 27  1  0
 13 28  1  0
M  CHG  1   5   1
M  END
>  <i_m_ct_stereo_status>  (281) 
1

>  <s_m_source_file>  (281) 
/var/tmp/pbs.5076255.sched01/tmptpdlle0r/921kky2sk3.sdf

>  <i_m_source_file_index>  (281) 
33

>  <i_lp_mmshare_version>  (281) 
48012

>  <i_f3d_flags>  (281) 
0

>  <s_epik_input>  (281) 
W0NIM11uMVtjSF1bY0hdbmMxW0NASF0oW05IXVtDQEBIXTIzKVtDQEBIXShbQ0gyXTMpW0NIMl1bQ0gyXTI=

>  <s_epik_cmdline>  (281) 
J2VwaWtfcHl0aG9uJywgJy1waHQnLCAnMi4wJywgJy1waCcsICc3LjAnLCAnLXRuJywgJzgnLCAnLW1hJywgJzIwMCcsICctaW1hZScsICc8aW5maWxlLm1hZT4nLCAnLW9tYWUnLCAnPG91dGZpbGUubWFlPic=

>  <r_epik_Ionization_Penalty>  (281) 
1.47211

>  <r_epik_Ionization_Penalty_Charging>  (281) 
0

>  <r_epik_Ionization_Penalty_Neutral>  (281) 
1.47211

>  <r_epik_State_Penalty>  (281) 
0.62933

>  <r_epik_Charging_Adjusted_Penalty>  (281) 
0.62933

>  <i_epik_Tot_Q>  (281) 
1

>  <i_epik_Tot_abs_Q>  (281) 
1

>  <s_lp_Force_Field>  (281) 
OPLS3e

>  <r_lp_Energy>  (281) 
38.1175

>  <b_lp_Chiralities_Consistent>  (281) 
1

>  <s_lp_Variant>  (281) 
77:0-2

>  <s_i_glide_gridfile>  (281) 
pfpi4k_grid

>  <i_i_glide_lignum>  (281) 
33

>  <i_i_glide_rotatable_bonds>  (281) 
1

>  <r_i_docking_score>  (281) 
-3.19128

>  <r_i_glide_ligand_efficiency>  (281) 
-0.245483

>  <r_i_glide_ligand_efficiency_sa>  (281) 
-0.577214

>  <r_i_glide_ligand_efficiency_ln>  (281) 
-0.895183

>  <r_i_glide_gscore>  (281) 
-3.19128

>  <r_i_glide_lipo>  (281) 
-0.391262

>  <r_i_glide_hbond>  (281) 
-0.0327223

>  <r_i_glide_metal>  (281) 
-0

>  <r_i_glide_rewards>  (281) 
-2.19372

>  <r_i_glide_evdw>  (281) 
-9.64034

>  <r_i_glide_ecoul>  (281) 
-3.72787

>  <r_i_glide_erotb>  (281) 
0.493952

>  <r_i_glide_esite>  (281) 
-0.0263327

>  <r_i_glide_emodel>  (281) 
-11.3965

>  <r_i_glide_energy>  (281) 
-13.3682

>  <r_i_glide_einternal>  (281) 
6.79522

>  <r_i_glide_intrahb_reward>  (281) 
-0

>  <i_i_glide_confnum>  (281) 
4

>  <i_i_glide_posenum>  (281) 
21

>  <r_i_glide_eff_state_penalty>  (281) 
0

>  <ligand_id>  (281) 
77

>  <original_smiles>  (281) 
Cn1ccnc1C1NC2CCC1C2

>  <smiles>  (281) 
[H]c1c([H])[n+]([H])c(C2([H])N([H])C3([H])C([H])([H])C([H])([H])C2([H])C3([H])[H])n1C([H])([H])[H]

$$$$
77:1:2
     RDKit          3D

 29 31  0  0  1  0  0  0  0  0999 V2000
    3.2501    2.1256    4.3224 C   0  0  0  0  0  0  0  0  0  0  0  0
    2.7398    1.3026    3.2198 N   0  0  0  0  0  0  0  0  0  0  0  0
    3.4246    0.2802    2.6151 C   0  0  0  0  0  0  0  0  0  0  0  0
    2.6076   -0.2198    1.6424 C   0  0  0  0  0  0  0  0  0  0  0  0
    1.4557    0.5197    1.6858 N   0  0  0  0  0  0  0  0  0  0  0  0
    1.5119    1.4260    2.6698 C   0  0  0  0  0  0  0  0  0  0  0  0
    0.4069    2.3840    3.0462 C   0  0  2  0  0  0  0  0  0  0  0  0
    0.3373    2.6441    4.4916 N   0  0  0  0  0  0  0  0  0  0  0  0
   -0.9899    2.1992    4.9080 C   0  0  1  0  0  0  0  0  0  0  0  0
   -1.9997    3.2484    4.4130 C   0  0  0  0  0  0  0  0  0  0  0  0
   -2.0451    2.9601    2.9036 C   0  0  0  0  0  0  0  0  0  0  0  0
   -1.0074    1.8298    2.7546 C   0  0  2  0  0  0  0  0  0  0  0  0
   -1.2290    1.0009    4.0056 C   0  0  0  0  0  0  0  0  0  0  0  0
    4.3235    1.9634    4.4277 H   0  0  0  0  0  0  0  0  0  0  0  0
    2.7515    1.8235    5.2459 H   0  0  0  0  0  0  0  0  0  0  0  0
    3.0576    3.1802    4.1115 H   0  0  0  0  0  0  0  0  0  0  0  0
    4.4251   -0.0082    2.9147 H   0  0  0  0  0  0  0  0  0  0  0  0
    2.7488   -1.0252    0.9384 H   0  0  0  0  0  0  0  0  0  0  0  0
    0.6153    3.2990    2.4936 H   0  0  0  0  0  0  0  0  0  0  0  0
    0.4532    3.6321    4.6681 H   0  0  0  0  0  0  0  0  0  0  0  0
   -1.0446    2.0000    5.9775 H   0  0  0  0  0  0  0  0  0  0  0  0
   -2.9791    3.0925    4.8676 H   0  0  0  0  0  0  0  0  0  0  0  0
   -1.6777    4.2660    4.6348 H   0  0  0  0  0  0  0  0  0  0  0  0
   -3.0363    2.6127    2.6052 H   0  0  0  0  0  0  0  0  0  0  0  0
   -1.7925    3.8345    2.3011 H   0  0  0  0  0  0  0  0  0  0  0  0
   -1.1169    1.3027    1.8033 H   0  0  0  0  0  0  0  0  0  0  0  0
   -0.5024    0.1980    4.1417 H   0  0  0  0  0  0  0  0  0  0  0  0
   -2.2314    0.5885    4.0890 H   0  0  0  0  0  0  0  0  0  0  0  0
    0.6677    0.3735    1.0609 H   0  0  0  0  0  0  0  0  0  0  0  0
  1  2  1  0
  1 14  1  0
  1 15  1  0
  1 16  1  0
  2  6  1  0
  2  3  1  0
  3  4  2  0
  3 17  1  0
  4  5  1  0
  4 18  1  0
  5  6  2  0
  5 29  1  0
  6  7  1  0
  7 12  1  0
  7  8  1  0
  7 19  1  6
  8  9  1  0
  8 20  1  0
  9 13  1  0
  9 10  1  0
  9 21  1  1
 10 11  1  0
 10 22  1  0
 10 23  1  0
 11 12  1  0
 11 24  1  0
 11 25  1  0
 12 13  1  0
 12 26  1  6
 13 27  1  0
 13 28  1  0
M  CHG  1   5   1
M  END
>  <i_m_ct_stereo_status>  (282) 
1

>  <s_m_source_file>  (282) 
/var/tmp/pbs.5076255.sched01/tmptpdlle0r/921kky2sk3.sdf

>  <i_m_source_file_index>  (282) 
33

>  <i_lp_mmshare_version>  (282) 
48012

>  <i_f3d_flags>  (282) 
0

>  <s_epik_input>  (282) 
W0NIM11uMVtjSF1bY0hdbmMxW0NASF0oW05IXVtDQEBIXTIzKVtDQEBIXShbQ0gyXTMpW0NIMl1bQ0gyXTI=

>  <s_epik_cmdline>  (282) 
J2VwaWtfcHl0aG9uJywgJy1waHQnLCAnMi4wJywgJy1waCcsICc3LjAnLCAnLXRuJywgJzgnLCAnLW1hJywgJzIwMCcsICctaW1hZScsICc8aW5maWxlLm1hZT4nLCAnLW9tYWUnLCAnPG91dGZpbGUubWFlPic=

>  <r_epik_Ionization_Penalty>  (282) 
1.47211

>  <r_epik_Ionization_Penalty_Charging>  (282) 
0

>  <r_epik_Ionization_Penalty_Neutral>  (282) 
1.47211

>  <r_epik_State_Penalty>  (282) 
0.62933

>  <r_epik_Charging_Adjusted_Penalty>  (282) 
0.62933

>  <i_epik_Tot_Q>  (282) 
1

>  <i_epik_Tot_abs_Q>  (282) 
1

>  <s_lp_Force_Field>  (282) 
OPLS3e

>  <r_lp_Energy>  (282) 
38.1175

>  <b_lp_Chiralities_Consistent>  (282) 
1

>  <s_lp_Variant>  (282) 
77:0-2

>  <s_i_glide_gridfile>  (282) 
pfpi4k_grid

>  <i_i_glide_lignum>  (282) 
33

>  <i_i_glide_rotatable_bonds>  (282) 
1

>  <r_i_docking_score>  (282) 
-3.12644

>  <r_i_glide_ligand_efficiency>  (282) 
-0.240495

>  <r_i_glide_ligand_efficiency_sa>  (282) 
-0.565485

>  <r_i_glide_ligand_efficiency_ln>  (282) 
-0.876994

>  <r_i_glide_gscore>  (282) 
-3.12644

>  <r_i_glide_lipo>  (282) 
-0.025

>  <r_i_glide_hbond>  (282) 
-0.046471

>  <r_i_glide_metal>  (282) 
-0

>  <r_i_glide_rewards>  (282) 
-2.19372

>  <r_i_glide_evdw>  (282) 
-13.1157

>  <r_i_glide_ecoul>  (282) 
-4.01493

>  <r_i_glide_erotb>  (282) 
0.493952

>  <r_i_glide_esite>  (282) 
-0.097176

>  <r_i_glide_emodel>  (282) 
-21.4725

>  <r_i_glide_energy>  (282) 
-17.1306

>  <r_i_glide_einternal>  (282) 
0.763267

>  <r_i_glide_intrahb_reward>  (282) 
-0

>  <i_i_glide_confnum>  (282) 
3

>  <i_i_glide_posenum>  (282) 
14

>  <r_i_glide_eff_state_penalty>  (282) 
0

>  <ligand_id>  (282) 
77

>  <original_smiles>  (282) 
Cn1ccnc1C1NC2CCC1C2

>  <smiles>  (282) 
[H]c1c([H])[n+]([H])c(C2([H])N([H])C3([H])C([H])([H])C([H])([H])C2([H])C3([H])[H])n1C([H])([H])[H]

$$$$
78:0:0
     RDKit          3D

 87 92  0  0  1  0  0  0  0  0999 V2000
    3.8160   -1.4486   -0.7995 C   0  0  0  0  0  0  0  0  0  0  0  0
    3.7736   -1.1920    0.5170 C   0  0  0  0  0  0  0  0  0  0  0  0
    4.0116   -2.1893    1.6693 C   0  0  1  0  0  0  0  0  0  0  0  0
    4.2694   -3.5991    1.1009 C   0  0  0  0  0  0  0  0  0  0  0  0
    5.2095   -1.7776    2.5352 C   0  0  0  0  0  0  0  0  0  0  0  0
    4.9195   -0.6709    3.5639 C   0  0  0  0  0  0  0  0  0  0  0  0
    5.8231    0.1308    3.7983 O   0  0  0  0  0  0  0  0  0  0  0  0
    3.5634   -0.6742    4.3924 C   0  0  2  0  0  0  0  0  0  0  0  0
    2.4917   -1.3233    3.4478 C   0  0  2  0  0  0  0  0  0  0  0  0
    2.8888   -2.3704    2.5439 O   0  0  0  0  0  0  0  0  0  0  0  0
    1.7946   -0.1688    2.7439 C   0  0  0  0  0  0  0  0  0  0  0  0
    0.7374   -0.2618    2.1236 O   0  0  0  0  0  0  0  0  0  0  0  0
    2.5539    1.1220    3.0024 C   0  0  1  0  0  0  0  0  0  0  0  0
    1.8095    2.4101    2.5936 C   0  0  0  0  0  0  0  0  0  0  0  0
    3.0526    0.9053    4.4615 C   0  0  2  0  0  0  0  0  0  0  0  0
    4.0473    1.9066    4.6423 O   0  0  0  0  0  0  0  0  0  0  0  0
    1.9045    1.3603    5.4442 C   0  0  0  0  0  0  0  0  0  0  0  0
    2.2586    2.1671    6.7331 C   0  0  1  0  0  0  0  0  0  0  0  0
    2.3215    3.5409    6.4002 O   0  0  0  0  0  0  0  0  0  0  0  0
    1.3347    1.8642    7.9393 C   0  0  0  0  0  0  0  0  0  0  0  0
    1.3681    0.6552    8.5717 C   0  0  0  0  0  0  0  0  0  0  0  0
    0.5595    0.4406    9.7956 C   0  0  0  0  0  0  0  0  0  0  0  0
    0.7107   -0.5078   10.5619 O   0  0  0  0  0  0  0  0  0  0  0  0
   -0.5044    1.4732   10.1462 C   0  0  0  0  0  0  0  0  0  0  0  0
   -0.0440    2.9087    9.8560 C   0  0  0  0  0  0  0  0  0  0  0  0
   -1.2282    3.8614   10.1123 C   0  0  0  0  0  0  0  0  0  0  0  0
    1.1387    3.3128   10.7718 C   0  0  0  0  0  0  0  0  0  0  0  0
    0.3753    2.9856    8.3710 C   0  0  0  0  0  0  0  0  0  0  0  0
    2.2340   -0.5137    8.0774 C   0  0  1  0  0  0  0  0  0  0  0  0
    3.4804   -0.8525    8.9217 C   0  0  0  0  0  0  0  0  0  0  0  0
    4.4767   -1.7579    8.1279 C   0  0  1  0  0  0  0  0  0  0  0  0
    5.6940   -2.0824    9.0111 C   0  0  0  0  0  0  0  0  0  0  0  0
    3.7083   -3.0139    7.7096 C   0  0  0  0  0  0  0  0  0  0  0  0
    2.7261   -2.4606    6.6225 C   0  0  1  0  0  0  0  0  0  0  0  0
    1.5498   -1.7601    7.4230 C   0  0  0  0  0  0  0  0  0  0  0  0
    0.9296   -2.6893    8.5135 C   0  0  0  0  0  0  0  0  0  0  0  0
    0.3037   -1.5017    6.5263 C   0  0  0  0  0  0  0  0  0  0  0  0
    3.7951   -1.6434    5.7101 C   0  0  1  0  0  0  0  0  0  0  0  0
    4.3412   -2.8202    5.1095 O   0  0  0  0  0  0  0  0  0  0  0  0
    4.9062   -1.2014    6.7324 C   0  0  1  0  0  0  0  0  0  0  0  0
    5.1523    0.1853    6.8035 O   0  0  0  0  0  0  0  0  0  0  0  0
    4.0343   -2.4237   -1.2070 H   0  0  0  0  0  0  0  0  0  0  0  0
    3.6214   -0.6588   -1.5072 H   0  0  0  0  0  0  0  0  0  0  0  0
    3.5631   -0.1675    0.7778 H   0  0  0  0  0  0  0  0  0  0  0  0
    5.1441   -3.6107    0.4448 H   0  0  0  0  0  0  0  0  0  0  0  0
    3.4096   -3.9428    0.5224 H   0  0  0  0  0  0  0  0  0  0  0  0
    4.4465   -4.3357    1.8855 H   0  0  0  0  0  0  0  0  0  0  0  0
    5.6101   -2.6429    3.0628 H   0  0  0  0  0  0  0  0  0  0  0  0
    6.0193   -1.4461    1.8830 H   0  0  0  0  0  0  0  0  0  0  0  0
    1.7385   -1.8095    4.0535 H   0  0  0  0  0  0  0  0  0  0  0  0
    3.4318    1.1147    2.3584 H   0  0  0  0  0  0  0  0  0  0  0  0
    1.8090    2.5029    1.5085 H   0  0  0  0  0  0  0  0  0  0  0  0
    2.3061    3.2966    2.9834 H   0  0  0  0  0  0  0  0  0  0  0  0
    0.7626    2.4302    2.8965 H   0  0  0  0  0  0  0  0  0  0  0  0
    4.5011    2.0452    3.8154 H   0  0  0  0  0  0  0  0  0  0  0  0
    1.1454    1.9547    4.9453 H   0  0  0  0  0  0  0  0  0  0  0  0
    1.3474    0.4982    5.7061 H   0  0  0  0  0  0  0  0  0  0  0  0
    3.2676    1.9335    7.0745 H   0  0  0  0  0  0  0  0  0  0  0  0
    2.9971    3.6330    5.7391 H   0  0  0  0  0  0  0  0  0  0  0  0
   -1.3857    1.2505    9.5480 H   0  0  0  0  0  0  0  0  0  0  0  0
   -0.7950    1.3685   11.1927 H   0  0  0  0  0  0  0  0  0  0  0  0
   -0.9644    4.8968    9.8929 H   0  0  0  0  0  0  0  0  0  0  0  0
   -1.5627    3.8135   11.1502 H   0  0  0  0  0  0  0  0  0  0  0  0
   -2.0824    3.5983    9.4874 H   0  0  0  0  0  0  0  0  0  0  0  0
    1.4414    4.3464   10.5983 H   0  0  0  0  0  0  0  0  0  0  0  0
    2.0233    2.6966   10.5999 H   0  0  0  0  0  0  0  0  0  0  0  0
    0.8797    3.2141   11.8279 H   0  0  0  0  0  0  0  0  0  0  0  0
    0.7942    3.9752    8.1931 H   0  0  0  0  0  0  0  0  0  0  0  0
   -0.5093    2.9047    7.7308 H   0  0  0  0  0  0  0  0  0  0  0  0
    2.7193   -0.0885    7.2355 H   0  0  0  0  0  0  0  0  0  0  0  0
    3.9747    0.0668    9.2317 H   0  0  0  0  0  0  0  0  0  0  0  0
    3.1829   -1.3467    9.8451 H   0  0  0  0  0  0  0  0  0  0  0  0
    6.3882   -2.7626    8.5127 H   0  0  0  0  0  0  0  0  0  0  0  0
    5.3875   -2.5518    9.9480 H   0  0  0  0  0  0  0  0  0  0  0  0
    6.2451   -1.1740    9.2644 H   0  0  0  0  0  0  0  0  0  0  0  0
    4.3991   -3.7561    7.3078 H   0  0  0  0  0  0  0  0  0  0  0  0
    3.2617   -3.5290    8.5536 H   0  0  0  0  0  0  0  0  0  0  0  0
    2.2754   -3.2932    6.0765 H   0  0  0  0  0  0  0  0  0  0  0  0
    0.7764   -3.7024    8.1372 H   0  0  0  0  0  0  0  0  0  0  0  0
   -0.0459   -2.3286    8.8430 H   0  0  0  0  0  0  0  0  0  0  0  0
    1.5197   -2.7677    9.4264 H   0  0  0  0  0  0  0  0  0  0  0  0
   -0.3525   -2.3731    6.4862 H   0  0  0  0  0  0  0  0  0  0  0  0
    0.5264   -1.3128    5.4876 H   0  0  0  0  0  0  0  0  0  0  0  0
   -0.2997   -0.6716    6.8960 H   0  0  0  0  0  0  0  0  0  0  0  0
    3.6939   -3.1894    4.5231 H   0  0  0  0  0  0  0  0  0  0  0  0
    5.8588   -1.6478    6.4364 H   0  0  0  0  0  0  0  0  0  0  0  0
    5.4154    0.4900    5.9423 H   0  0  0  0  0  0  0  0  0  0  0  0
  1  2  2  0
  1 42  1  0
  1 43  1  0
  2  3  1  0
  2 44  1  0
  3 10  1  0
  3  4  1  6
  3  5  1  0
  4 45  1  0
  4 46  1  0
  4 47  1  0
  5  6  1  0
  5 48  1  0
  5 49  1  0
  6  7  2  0
  8  6  1  6
  8 15  1  0
  8 38  1  0
  8  9  1  0
  9 10  1  0
  9 11  1  0
  9 50  1  1
 11 12  2  0
 11 13  1  0
 13 14  1  0
 13 15  1  0
 13 51  1  6
 14 52  1  0
 14 53  1  0
 14 54  1  0
 15 16  1  1
 15 17  1  0
 16 55  1  0
 17 18  1  0
 17 56  1  0
 17 57  1  0
 18 19  1  0
 18 20  1  0
 18 58  1  1
 19 59  1  0
 20 28  1  0
 20 21  2  0
 21 22  1  0
 21 29  1  0
 22 23  2  0
 22 24  1  0
 24 25  1  0
 24 60  1  0
 24 61  1  0
 25 26  1  0
 25 27  1  0
 25 28  1  0
 26 62  1  0
 26 63  1  0
 26 64  1  0
 27 65  1  0
 27 66  1  0
 27 67  1  0
 28 68  1  0
 28 69  1  0
 29 35  1  0
 29 30  1  0
 29 70  1  6
 30 31  1  0
 30 71  1  0
 30 72  1  0
 31 40  1  0
 31 32  1  1
 31 33  1  0
 32 73  1  0
 32 74  1  0
 32 75  1  0
 33 34  1  0
 33 76  1  0
 33 77  1  0
 34 35  1  0
 34 38  1  0
 34 78  1  6
 35 36  1  0
 35 37  1  0
 36 79  1  0
 36 80  1  0
 36 81  1  0
 37 82  1  0
 37 83  1  0
 37 84  1  0
 38 39  1  6
 38 40  1  0
 39 85  1  0
 40 41  1  0
 40 86  1  6
 41 87  1  0
M  END
>  <i_m_ct_stereo_status>  (283) 
1

>  <s_m_source_file>  (283) 
/var/tmp/pbs.5076255.sched01/tmptpdlle0r/921kky2sk3.sdf

>  <i_m_source_file_index>  (283) 
34

>  <i_lp_mmshare_version>  (283) 
48012

>  <i_f3d_flags>  (283) 
0

>  <s_epik_input>  (283) 
Tz1DMVtDSDJdW0NAXShbQ0gzXSkoW0NIXT1bQ0gyXSlPW0NAQEhdKFtDQEBdMTIzKUMoPU8pW0NAQEhdKFtDSDNdKVtDQEBdMihbT0hdKVtDSDJdW0NAQEhdKFtPSF0pQzQ9QyhDKD1PKVtDSDJdQyhbQ0gzXSkoW0NIM10pW0NIMl00KVtDQEhdNVtDSDJdW0NAQF02KFtDSDNdKVtDSDJdW0NAQEhdKEM1KFtDSDNdKVtDSDNdKVtDQF0zKFtPSF0pW0NASF02W09IXQ==

>  <s_epik_cmdline>  (283) 
J2VwaWtfcHl0aG9uJywgJy1waHQnLCAnMi4wJywgJy1waCcsICc3LjAnLCAnLXRuJywgJzgnLCAnLW1hJywgJzIwMCcsICctaW1hZScsICc8aW5maWxlLm1hZT4nLCAnLW9tYWUnLCAnPG91dGZpbGUubWFlPic=

>  <r_lp_tautomer_probability>  (283) 
1

>  <r_epik_Ionization_Penalty>  (283) 
2.21653e-06

>  <r_epik_Ionization_Penalty_Charging>  (283) 
0

>  <r_epik_Ionization_Penalty_Neutral>  (283) 
2.21653e-06

>  <r_epik_State_Penalty>  (283) 
-0

>  <r_epik_Charging_Adjusted_Penalty>  (283) 
0

>  <i_epik_Tot_Q>  (283) 
0

>  <i_epik_Tot_abs_Q>  (283) 
0

>  <s_lp_Force_Field>  (283) 
OPLS3e

>  <r_lp_Energy>  (283) 
133.921

>  <b_lp_Chiralities_Consistent>  (283) 
1

>  <s_lp_Variant>  (283) 
78:0-1

>  <s_i_glide_gridfile>  (283) 
pfpi4k_grid

>  <i_i_glide_lignum>  (283) 
34

>  <i_i_glide_rotatable_bonds>  (283) 
5

>  <r_i_docking_score>  (283) 
-3.12003

>  <r_i_glide_ligand_efficiency>  (283) 
-0.0760984

>  <r_i_glide_ligand_efficiency_sa>  (283) 
-0.262404

>  <r_i_glide_ligand_efficiency_ln>  (283) 
-0.661925

>  <r_i_glide_gscore>  (283) 
-3.12003

>  <r_i_glide_lipo>  (283) 
-0.102008

>  <r_i_glide_hbond>  (283) 
0

>  <r_i_glide_metal>  (283) 
-0

>  <r_i_glide_rewards>  (283) 
-1.63858

>  <r_i_glide_evdw>  (283) 
-26.8125

>  <r_i_glide_ecoul>  (283) 
-0.431707

>  <r_i_glide_erotb>  (283) 
0.0640045

>  <r_i_glide_esite>  (283) 
-0.038067

>  <r_i_glide_emodel>  (283) 
-46.1709

>  <r_i_glide_energy>  (283) 
-27.2442

>  <r_i_glide_einternal>  (283) 
1.57499

>  <r_i_glide_intrahb_reward>  (283) 
-1.5

>  <i_i_glide_confnum>  (283) 
4

>  <i_i_glide_posenum>  (283) 
4

>  <r_i_glide_eff_state_penalty>  (283) 
0

>  <ligand_id>  (283) 
78

>  <original_smiles>  (283) 
C=CC1(C)CC(=O)C23C(O1)C(=O)C(C)C2(O)CC(O)C1=C(C(=O)CC(C)(C)C1)C1CC2(C)CC(C1(C)C)C3(O)C2O

>  <smiles>  (283) 
[H]OC1([H])C2=C(C(=O)C([H])([H])C(C([H])([H])[H])(C([H])([H])[H])C2([H])[H])C2([H])C([H])([H])C3(C([H])([H])[H])C([H])([H])C([H])(C(O[H])(C3([H])O[H])C34C(=O)C([H])([H])C(C([H])=C([H])[H])(C([H])([H])[H])OC3([H])C(=O)C([H])(C([H])([H])[H])C4(O[H])C1([H])[H])C2(C([H])([H])[H])C([H])([H])[H]

$$$$
78:0:1
     RDKit          3D

 87 92  0  0  1  0  0  0  0  0999 V2000
    3.9799   -1.4563   -0.5310 C   0  0  0  0  0  0  0  0  0  0  0  0
    3.9526   -1.1004    0.7632 C   0  0  0  0  0  0  0  0  0  0  0  0
    4.1829   -2.0096    1.9855 C   0  0  1  0  0  0  0  0  0  0  0  0
    4.5475   -3.4395    1.5331 C   0  0  0  0  0  0  0  0  0  0  0  0
    5.3064   -1.4801    2.8849 C   0  0  0  0  0  0  0  0  0  0  0  0
    4.9076   -0.3374    3.8378 C   0  0  0  0  0  0  0  0  0  0  0  0
    5.7769    0.4833    4.1187 O   0  0  0  0  0  0  0  0  0  0  0  0
    3.5083   -0.3598    4.5852 C   0  0  2  0  0  0  0  0  0  0  0  0
    2.5287   -1.1257    3.6283 C   0  0  2  0  0  0  0  0  0  0  0  0
    3.0240   -2.1978    2.8057 O   0  0  0  0  0  0  0  0  0  0  0  0
    1.8163   -0.0571    2.8132 C   0  0  0  0  0  0  0  0  0  0  0  0
    0.8077   -0.2537    2.1397 O   0  0  0  0  0  0  0  0  0  0  0  0
    2.4921    1.2881    3.0275 C   0  0  1  0  0  0  0  0  0  0  0  0
    1.7108    2.5066    2.4992 C   0  0  0  0  0  0  0  0  0  0  0  0
    2.9133    1.1910    4.5215 C   0  0  2  0  0  0  0  0  0  0  0  0
    3.8443    2.2537    4.6801 O   0  0  0  0  0  0  0  0  0  0  0  0
    1.6905    1.6450    5.4118 C   0  0  0  0  0  0  0  0  0  0  0  0
    1.9309    2.5490    6.6626 C   0  0  1  0  0  0  0  0  0  0  0  0
    1.9372    3.8985    6.2394 O   0  0  0  0  0  0  0  0  0  0  0  0
    0.9569    2.2701    7.8342 C   0  0  0  0  0  0  0  0  0  0  0  0
    1.0196    1.1082    8.5460 C   0  0  0  0  0  0  0  0  0  0  0  0
    0.1536    0.9299    9.7356 C   0  0  0  0  0  0  0  0  0  0  0  0
    0.3056    0.0331   10.5646 O   0  0  0  0  0  0  0  0  0  0  0  0
   -0.9806    1.9192    9.9600 C   0  0  0  0  0  0  0  0  0  0  0  0
   -0.5775    3.3571    9.6014 C   0  0  0  0  0  0  0  0  0  0  0  0
   -1.8191    4.2622    9.7322 C   0  0  0  0  0  0  0  0  0  0  0  0
    0.5296    3.8831   10.5513 C   0  0  0  0  0  0  0  0  0  0  0  0
   -0.0777    3.3645    8.1400 C   0  0  0  0  0  0  0  0  0  0  0  0
    1.9705   -0.0382    8.1757 C   0  0  1  0  0  0  0  0  0  0  0  0
    3.1814   -0.2579    9.1063 C   0  0  0  0  0  0  0  0  0  0  0  0
    4.2658   -1.1552    8.4280 C   0  0  1  0  0  0  0  0  0  0  0  0
    5.4437   -1.3627    9.3938 C   0  0  0  0  0  0  0  0  0  0  0  0
    3.5861   -2.4751    8.0521 C   0  0  0  0  0  0  0  0  0  0  0  0
    2.6434   -2.0419    6.8798 C   0  0  1  0  0  0  0  0  0  0  0  0
    1.3898   -1.3594    7.5690 C   0  0  0  0  0  0  0  0  0  0  0  0
    0.7615   -2.2538    8.6814 C   0  0  0  0  0  0  0  0  0  0  0  0
    0.1840   -1.2276    6.5926 C   0  0  0  0  0  0  0  0  0  0  0  0
    3.7162   -1.2282    5.9770 C   0  0  1  0  0  0  0  0  0  0  0  0
    4.3286   -2.4253    5.4846 O   0  0  0  0  0  0  0  0  0  0  0  0
    4.7467   -0.6622    7.0256 C   0  0  1  0  0  0  0  0  0  0  0  0
    4.9171    0.7375    7.0188 O   0  0  0  0  0  0  0  0  0  0  0  0
    4.1747   -2.4648   -0.8593 H   0  0  0  0  0  0  0  0  0  0  0  0
    3.8003   -0.7162   -1.2984 H   0  0  0  0  0  0  0  0  0  0  0  0
    3.7675   -0.0561    0.9516 H   0  0  0  0  0  0  0  0  0  0  0  0
    5.4521   -3.4440    0.9190 H   0  0  0  0  0  0  0  0  0  0  0  0
    3.7379   -3.8783    0.9457 H   0  0  0  0  0  0  0  0  0  0  0  0
    4.7239   -4.1082    2.3768 H   0  0  0  0  0  0  0  0  0  0  0  0
    5.7193   -2.2927    3.4783 H   0  0  0  0  0  0  0  0  0  0  0  0
    6.1339   -1.1436    2.2583 H   0  0  0  0  0  0  0  0  0  0  0  0
    1.7685   -1.6131    4.2208 H   0  0  0  0  0  0  0  0  0  0  0  0
    3.4074    1.2961    2.4393 H   0  0  0  0  0  0  0  0  0  0  0  0
    1.7676    2.5339    1.4111 H   0  0  0  0  0  0  0  0  0  0  0  0
    2.1360    3.4447    2.8556 H   0  0  0  0  0  0  0  0  0  0  0  0
    0.6472    2.4910    2.7416 H   0  0  0  0  0  0  0  0  0  0  0  0
    4.3673    2.3260    3.8884 H   0  0  0  0  0  0  0  0  0  0  0  0
    0.9319    2.1681    4.8372 H   0  0  0  0  0  0  0  0  0  0  0  0
    1.1621    0.7722    5.6999 H   0  0  0  0  0  0  0  0  0  0  0  0
    2.9314    2.3929    7.0678 H   0  0  0  0  0  0  0  0  0  0  0  0
    2.6333    3.9817    5.5988 H   0  0  0  0  0  0  0  0  0  0  0  0
   -1.8186    1.6144    9.3380 H   0  0  0  0  0  0  0  0  0  0  0  0
   -1.3185    1.8696   10.9970 H   0  0  0  0  0  0  0  0  0  0  0  0
   -1.5946    5.2944    9.4618 H   0  0  0  0  0  0  0  0  0  0  0  0
   -2.2063    4.2611   10.7528 H   0  0  0  0  0  0  0  0  0  0  0  0
   -2.6237    3.9165    9.0815 H   0  0  0  0  0  0  0  0  0  0  0  0
    0.7866    4.9199   10.3304 H   0  0  0  0  0  0  0  0  0  0  0  0
    1.4525    3.3063   10.4656 H   0  0  0  0  0  0  0  0  0  0  0  0
    0.2166    3.8331   11.5962 H   0  0  0  0  0  0  0  0  0  0  0  0
    0.3034    4.3616    7.9251 H   0  0  0  0  0  0  0  0  0  0  0  0
   -0.9186    3.1998    7.4593 H   0  0  0  0  0  0  0  0  0  0  0  0
    2.4800    0.3584    7.3345 H   0  0  0  0  0  0  0  0  0  0  0  0
    3.6125    0.7031    9.3805 H   0  0  0  0  0  0  0  0  0  0  0  0
    2.8556   -0.7082   10.0420 H   0  0  0  0  0  0  0  0  0  0  0  0
    6.1967   -2.0344    8.9771 H   0  0  0  0  0  0  0  0  0  0  0  0
    5.1079   -1.7884   10.3414 H   0  0  0  0  0  0  0  0  0  0  0  0
    5.9328   -0.4125    9.6158 H   0  0  0  0  0  0  0  0  0  0  0  0
    4.3320   -3.2073    7.7406 H   0  0  0  0  0  0  0  0  0  0  0  0
    3.1166   -2.9595    8.9000 H   0  0  0  0  0  0  0  0  0  0  0  0
    2.2700   -2.9259    6.3562 H   0  0  0  0  0  0  0  0  0  0  0  0
    0.6741   -3.2939    8.3621 H   0  0  0  0  0  0  0  0  0  0  0  0
   -0.2411   -1.9211    8.9412 H   0  0  0  0  0  0  0  0  0  0  0  0
    1.3007   -2.2437    9.6277 H   0  0  0  0  0  0  0  0  0  0  0  0
   -0.4203   -2.1358    6.5734 H   0  0  0  0  0  0  0  0  0  0  0  0
    0.4530   -1.0906    5.5572 H   0  0  0  0  0  0  0  0  0  0  0  0
   -0.4843   -0.4130    6.8751 H   0  0  0  0  0  0  0  0  0  0  0  0
    5.1337   -2.2022    5.0458 H   0  0  0  0  0  0  0  0  0  0  0  0
    5.7369   -1.0710    6.8156 H   0  0  0  0  0  0  0  0  0  0  0  0
    5.2058    1.0074    6.1549 H   0  0  0  0  0  0  0  0  0  0  0  0
  1  2  2  0
  1 42  1  0
  1 43  1  0
  2  3  1  0
  2 44  1  0
  3 10  1  0
  3  4  1  6
  3  5  1  0
  4 45  1  0
  4 46  1  0
  4 47  1  0
  5  6  1  0
  5 48  1  0
  5 49  1  0
  6  7  2  0
  8  6  1  6
  8 15  1  0
  8 38  1  0
  8  9  1  0
  9 10  1  0
  9 11  1  0
  9 50  1  1
 11 12  2  0
 11 13  1  0
 13 14  1  0
 13 15  1  0
 13 51  1  6
 14 52  1  0
 14 53  1  0
 14 54  1  0
 15 16  1  6
 15 17  1  0
 16 55  1  0
 17 18  1  0
 17 56  1  0
 17 57  1  0
 18 19  1  0
 18 20  1  0
 18 58  1  1
 19 59  1  0
 20 28  1  0
 20 21  2  0
 21 22  1  0
 21 29  1  0
 22 23  2  0
 22 24  1  0
 24 25  1  0
 24 60  1  0
 24 61  1  0
 25 26  1  0
 25 27  1  0
 25 28  1  0
 26 62  1  0
 26 63  1  0
 26 64  1  0
 27 65  1  0
 27 66  1  0
 27 67  1  0
 28 68  1  0
 28 69  1  0
 29 35  1  0
 29 30  1  0
 29 70  1  6
 30 31  1  0
 30 71  1  0
 30 72  1  0
 31 40  1  0
 31 32  1  1
 31 33  1  0
 32 73  1  0
 32 74  1  0
 32 75  1  0
 33 34  1  0
 33 76  1  0
 33 77  1  0
 34 35  1  0
 34 38  1  0
 34 78  1  6
 35 36  1  0
 35 37  1  0
 36 79  1  0
 36 80  1  0
 36 81  1  0
 37 82  1  0
 37 83  1  0
 37 84  1  0
 38 39  1  6
 38 40  1  0
 39 85  1  0
 40 41  1  0
 40 86  1  6
 41 87  1  0
M  END
>  <i_m_ct_stereo_status>  (284) 
1

>  <s_m_source_file>  (284) 
/var/tmp/pbs.5076255.sched01/tmptpdlle0r/921kky2sk3.sdf

>  <i_m_source_file_index>  (284) 
34

>  <i_lp_mmshare_version>  (284) 
48012

>  <i_f3d_flags>  (284) 
0

>  <s_epik_input>  (284) 
Tz1DMVtDSDJdW0NAXShbQ0gzXSkoW0NIXT1bQ0gyXSlPW0NAQEhdKFtDQEBdMTIzKUMoPU8pW0NAQEhdKFtDSDNdKVtDQEBdMihbT0hdKVtDSDJdW0NAQEhdKFtPSF0pQzQ9QyhDKD1PKVtDSDJdQyhbQ0gzXSkoW0NIM10pW0NIMl00KVtDQEhdNVtDSDJdW0NAQF02KFtDSDNdKVtDSDJdW0NAQEhdKEM1KFtDSDNdKVtDSDNdKVtDQF0zKFtPSF0pW0NASF02W09IXQ==

>  <s_epik_cmdline>  (284) 
J2VwaWtfcHl0aG9uJywgJy1waHQnLCAnMi4wJywgJy1waCcsICc3LjAnLCAnLXRuJywgJzgnLCAnLW1hJywgJzIwMCcsICctaW1hZScsICc8aW5maWxlLm1hZT4nLCAnLW9tYWUnLCAnPG91dGZpbGUubWFlPic=

>  <r_lp_tautomer_probability>  (284) 
1

>  <r_epik_Ionization_Penalty>  (284) 
2.21653e-06

>  <r_epik_Ionization_Penalty_Charging>  (284) 
0

>  <r_epik_Ionization_Penalty_Neutral>  (284) 
2.21653e-06

>  <r_epik_State_Penalty>  (284) 
-0

>  <r_epik_Charging_Adjusted_Penalty>  (284) 
0

>  <i_epik_Tot_Q>  (284) 
0

>  <i_epik_Tot_abs_Q>  (284) 
0

>  <s_lp_Force_Field>  (284) 
OPLS3e

>  <r_lp_Energy>  (284) 
133.921

>  <b_lp_Chiralities_Consistent>  (284) 
1

>  <s_lp_Variant>  (284) 
78:0-1

>  <s_i_glide_gridfile>  (284) 
pfpi4k_grid

>  <i_i_glide_lignum>  (284) 
34

>  <i_i_glide_rotatable_bonds>  (284) 
5

>  <r_i_docking_score>  (284) 
-3.05077

>  <r_i_glide_ligand_efficiency>  (284) 
-0.074409

>  <r_i_glide_ligand_efficiency_sa>  (284) 
-0.256578

>  <r_i_glide_ligand_efficiency_ln>  (284) 
-0.647231

>  <r_i_glide_gscore>  (284) 
-3.05077

>  <r_i_glide_lipo>  (284) 
-0.111455

>  <r_i_glide_hbond>  (284) 
0

>  <r_i_glide_metal>  (284) 
-0

>  <r_i_glide_rewards>  (284) 
-1.63454

>  <r_i_glide_evdw>  (284) 
-27.2329

>  <r_i_glide_ecoul>  (284) 
0.216718

>  <r_i_glide_erotb>  (284) 
0.0640045

>  <r_i_glide_esite>  (284) 
-0.0396451

>  <r_i_glide_emodel>  (284) 
-45.9486

>  <r_i_glide_energy>  (284) 
-27.0161

>  <r_i_glide_einternal>  (284) 
1.39556

>  <r_i_glide_intrahb_reward>  (284) 
-1.5

>  <i_i_glide_confnum>  (284) 
3

>  <i_i_glide_posenum>  (284) 
1

>  <r_i_glide_eff_state_penalty>  (284) 
0

>  <ligand_id>  (284) 
78

>  <original_smiles>  (284) 
C=CC1(C)CC(=O)C23C(O1)C(=O)C(C)C2(O)CC(O)C1=C(C(=O)CC(C)(C)C1)C1CC2(C)CC(C1(C)C)C3(O)C2O

>  <smiles>  (284) 
[H]OC1([H])C2=C(C(=O)C([H])([H])C(C([H])([H])[H])(C([H])([H])[H])C2([H])[H])C2([H])C([H])([H])C3(C([H])([H])[H])C([H])([H])C([H])(C(O[H])(C3([H])O[H])C34C(=O)C([H])([H])C(C([H])=C([H])[H])(C([H])([H])[H])OC3([H])C(=O)C([H])(C([H])([H])[H])C4(O[H])C1([H])[H])C2(C([H])([H])[H])C([H])([H])[H]

$$$$
78:0:2
     RDKit          3D

 87 92  0  0  1  0  0  0  0  0999 V2000
    3.8170   -1.4511   -0.7990 C   0  0  0  0  0  0  0  0  0  0  0  0
    3.7762   -1.1929    0.5175 C   0  0  0  0  0  0  0  0  0  0  0  0
    4.0127   -2.1912    1.6687 C   0  0  1  0  0  0  0  0  0  0  0  0
    4.2707   -3.6004    1.1011 C   0  0  0  0  0  0  0  0  0  0  0  0
    5.2104   -1.7814    2.5328 C   0  0  0  0  0  0  0  0  0  0  0  0
    4.9226   -0.6762    3.5611 C   0  0  0  0  0  0  0  0  0  0  0  0
    5.8322    0.1185    3.7945 O   0  0  0  0  0  0  0  0  0  0  0  0
    3.5656   -0.6781    4.3907 C   0  0  2  0  0  0  0  0  0  0  0  0
    2.4927   -1.3258    3.4473 C   0  0  2  0  0  0  0  0  0  0  0  0
    2.8887   -2.3730    2.5431 O   0  0  0  0  0  0  0  0  0  0  0  0
    1.7953   -0.1714    2.7431 C   0  0  0  0  0  0  0  0  0  0  0  0
    0.7369   -0.2646    2.1252 O   0  0  0  0  0  0  0  0  0  0  0  0
    2.5561    1.1195    3.0009 C   0  0  1  0  0  0  0  0  0  0  0  0
    1.8100    2.4078    2.5931 C   0  0  0  0  0  0  0  0  0  0  0  0
    3.0559    0.9003    4.4603 C   0  0  2  0  0  0  0  0  0  0  0  0
    4.0645    1.8831    4.6458 O   0  0  0  0  0  0  0  0  0  0  0  0
    1.9093    1.3640    5.4430 C   0  0  0  0  0  0  0  0  0  0  0  0
    2.2577    2.1763    6.7330 C   0  0  1  0  0  0  0  0  0  0  0  0
    2.3270    3.5600    6.4295 O   0  0  0  0  0  0  0  0  0  0  0  0
    1.3343    1.8645    7.9388 C   0  0  0  0  0  0  0  0  0  0  0  0
    1.3700    0.6550    8.5704 C   0  0  0  0  0  0  0  0  0  0  0  0
    0.5612    0.4406    9.7963 C   0  0  0  0  0  0  0  0  0  0  0  0
    0.7136   -0.5069   10.5633 O   0  0  0  0  0  0  0  0  0  0  0  0
   -0.5036    1.4724   10.1461 C   0  0  0  0  0  0  0  0  0  0  0  0
   -0.0441    2.9081    9.8566 C   0  0  0  0  0  0  0  0  0  0  0  0
   -1.2279    3.8609   10.1117 C   0  0  0  0  0  0  0  0  0  0  0  0
    1.1397    3.3136   10.7705 C   0  0  0  0  0  0  0  0  0  0  0  0
    0.3728    2.9841    8.3718 C   0  0  0  0  0  0  0  0  0  0  0  0
    2.2360   -0.5129    8.0768 C   0  0  1  0  0  0  0  0  0  0  0  0
    3.4826   -0.8513    8.9217 C   0  0  0  0  0  0  0  0  0  0  0  0
    4.4796   -1.7566    8.1277 C   0  0  1  0  0  0  0  0  0  0  0  0
    5.6970   -2.0800    9.0113 C   0  0  0  0  0  0  0  0  0  0  0  0
    3.7112   -3.0129    7.7106 C   0  0  0  0  0  0  0  0  0  0  0  0
    2.7284   -2.4605    6.6233 C   0  0  1  0  0  0  0  0  0  0  0  0
    1.5524   -1.7601    7.4237 C   0  0  0  0  0  0  0  0  0  0  0  0
    0.9327   -2.6889    8.5154 C   0  0  0  0  0  0  0  0  0  0  0  0
    0.3058   -1.5021    6.5273 C   0  0  0  0  0  0  0  0  0  0  0  0
    3.7973   -1.6438    5.7102 C   0  0  1  0  0  0  0  0  0  0  0  0
    4.3426   -2.8213    5.1102 O   0  0  0  0  0  0  0  0  0  0  0  0
    4.9085   -1.2012    6.7319 C   0  0  1  0  0  0  0  0  0  0  0  0
    5.1565    0.1854    6.8056 O   0  0  0  0  0  0  0  0  0  0  0  0
    4.0376   -2.4262   -1.2060 H   0  0  0  0  0  0  0  0  0  0  0  0
    3.6237   -0.6561   -1.5067 H   0  0  0  0  0  0  0  0  0  0  0  0
    3.5629   -0.1695    0.7777 H   0  0  0  0  0  0  0  0  0  0  0  0
    5.1452   -3.6112    0.4452 H   0  0  0  0  0  0  0  0  0  0  0  0
    3.4108   -3.9446    0.5231 H   0  0  0  0  0  0  0  0  0  0  0  0
    4.4487   -4.3365    1.8863 H   0  0  0  0  0  0  0  0  0  0  0  0
    5.6121   -2.6445    3.0624 H   0  0  0  0  0  0  0  0  0  0  0  0
    6.0201   -1.4473    1.8813 H   0  0  0  0  0  0  0  0  0  0  0  0
    1.7391   -1.8108    4.0537 H   0  0  0  0  0  0  0  0  0  0  0  0
    3.4330    1.1132    2.3560 H   0  0  0  0  0  0  0  0  0  0  0  0
    1.8087    2.5014    1.5080 H   0  0  0  0  0  0  0  0  0  0  0  0
    2.3072    3.2947    2.9834 H   0  0  0  0  0  0  0  0  0  0  0  0
    0.7628    2.4279    2.8950 H   0  0  0  0  0  0  0  0  0  0  0  0
    4.4862    2.0592    3.8109 H   0  0  0  0  0  0  0  0  0  0  0  0
    1.1470    1.9502    4.9397 H   0  0  0  0  0  0  0  0  0  0  0  0
    1.3529    0.5001    5.7056 H   0  0  0  0  0  0  0  0  0  0  0  0
    3.2644    1.9392    7.0746 H   0  0  0  0  0  0  0  0  0  0  0  0
    1.5729    3.7936    5.9089 H   0  0  0  0  0  0  0  0  0  0  0  0
   -1.3864    1.2498    9.5493 H   0  0  0  0  0  0  0  0  0  0  0  0
   -0.7933    1.3688   11.1933 H   0  0  0  0  0  0  0  0  0  0  0  0
   -0.9649    4.8968    9.8918 H   0  0  0  0  0  0  0  0  0  0  0  0
   -1.5623    3.8138   11.1495 H   0  0  0  0  0  0  0  0  0  0  0  0
   -2.0823    3.5976    9.4873 H   0  0  0  0  0  0  0  0  0  0  0  0
    1.4422    4.3477   10.5968 H   0  0  0  0  0  0  0  0  0  0  0  0
    2.0245    2.6982   10.5987 H   0  0  0  0  0  0  0  0  0  0  0  0
    0.8814    3.2156   11.8270 H   0  0  0  0  0  0  0  0  0  0  0  0
    0.7877    3.9758    8.2006 H   0  0  0  0  0  0  0  0  0  0  0  0
   -0.5120    2.9029    7.7325 H   0  0  0  0  0  0  0  0  0  0  0  0
    2.7214   -0.0858    7.2352 H   0  0  0  0  0  0  0  0  0  0  0  0
    3.9763    0.0686    9.2316 H   0  0  0  0  0  0  0  0  0  0  0  0
    3.1856   -1.3452    9.8455 H   0  0  0  0  0  0  0  0  0  0  0  0
    6.3912   -2.7596    8.5131 H   0  0  0  0  0  0  0  0  0  0  0  0
    5.3910   -2.5488    9.9485 H   0  0  0  0  0  0  0  0  0  0  0  0
    6.2476   -1.1710    9.2641 H   0  0  0  0  0  0  0  0  0  0  0  0
    4.4024   -3.7547    7.3092 H   0  0  0  0  0  0  0  0  0  0  0  0
    3.2652   -3.5278    8.5551 H   0  0  0  0  0  0  0  0  0  0  0  0
    2.2779   -3.2940    6.0781 H   0  0  0  0  0  0  0  0  0  0  0  0
    0.7796   -3.7026    8.1396 H   0  0  0  0  0  0  0  0  0  0  0  0
   -0.0432   -2.3287    8.8449 H   0  0  0  0  0  0  0  0  0  0  0  0
    1.5228   -2.7667    9.4278 H   0  0  0  0  0  0  0  0  0  0  0  0
   -0.3504   -2.3739    6.4876 H   0  0  0  0  0  0  0  0  0  0  0  0
    0.5282   -1.3135    5.4885 H   0  0  0  0  0  0  0  0  0  0  0  0
   -0.2980   -0.6724    6.8968 H   0  0  0  0  0  0  0  0  0  0  0  0
    3.6976   -3.1877    4.5207 H   0  0  0  0  0  0  0  0  0  0  0  0
    5.8612   -1.6472    6.4358 H   0  0  0  0  0  0  0  0  0  0  0  0
    5.4043    0.4970    5.9428 H   0  0  0  0  0  0  0  0  0  0  0  0
  1  2  2  0
  1 42  1  0
  1 43  1  0
  2  3  1  0
  2 44  1  0
  3 10  1  0
  3  4  1  6
  3  5  1  0
  4 45  1  0
  4 46  1  0
  4 47  1  0
  5  6  1  0
  5 48  1  0
  5 49  1  0
  6  7  2  0
  8  6  1  6
  8 15  1  0
  8 38  1  0
  8  9  1  0
  9 10  1  0
  9 11  1  0
  9 50  1  1
 11 12  2  0
 11 13  1  0
 13 14  1  0
 13 15  1  0
 13 51  1  6
 14 52  1  0
 14 53  1  0
 14 54  1  0
 15 16  1  1
 15 17  1  0
 16 55  1  0
 17 18  1  0
 17 56  1  0
 17 57  1  0
 18 19  1  0
 18 20  1  0
 18 58  1  1
 19 59  1  0
 20 28  1  0
 20 21  2  0
 21 22  1  0
 21 29  1  0
 22 23  2  0
 22 24  1  0
 24 25  1  0
 24 60  1  0
 24 61  1  0
 25 26  1  0
 25 27  1  0
 25 28  1  0
 26 62  1  0
 26 63  1  0
 26 64  1  0
 27 65  1  0
 27 66  1  0
 27 67  1  0
 28 68  1  0
 28 69  1  0
 29 35  1  0
 29 30  1  0
 29 70  1  6
 30 31  1  0
 30 71  1  0
 30 72  1  0
 31 40  1  0
 31 32  1  1
 31 33  1  0
 32 73  1  0
 32 74  1  0
 32 75  1  0
 33 34  1  0
 33 76  1  0
 33 77  1  0
 34 35  1  0
 34 38  1  0
 34 78  1  6
 35 36  1  0
 35 37  1  0
 36 79  1  0
 36 80  1  0
 36 81  1  0
 37 82  1  0
 37 83  1  0
 37 84  1  0
 38 39  1  6
 38 40  1  0
 39 85  1  0
 40 41  1  0
 40 86  1  6
 41 87  1  0
M  END
>  <i_m_ct_stereo_status>  (285) 
1

>  <s_m_source_file>  (285) 
/var/tmp/pbs.5076255.sched01/tmptpdlle0r/921kky2sk3.sdf

>  <i_m_source_file_index>  (285) 
34

>  <i_lp_mmshare_version>  (285) 
48012

>  <i_f3d_flags>  (285) 
0

>  <s_epik_input>  (285) 
Tz1DMVtDSDJdW0NAXShbQ0gzXSkoW0NIXT1bQ0gyXSlPW0NAQEhdKFtDQEBdMTIzKUMoPU8pW0NAQEhdKFtDSDNdKVtDQEBdMihbT0hdKVtDSDJdW0NAQEhdKFtPSF0pQzQ9QyhDKD1PKVtDSDJdQyhbQ0gzXSkoW0NIM10pW0NIMl00KVtDQEhdNVtDSDJdW0NAQF02KFtDSDNdKVtDSDJdW0NAQEhdKEM1KFtDSDNdKVtDSDNdKVtDQF0zKFtPSF0pW0NASF02W09IXQ==

>  <s_epik_cmdline>  (285) 
J2VwaWtfcHl0aG9uJywgJy1waHQnLCAnMi4wJywgJy1waCcsICc3LjAnLCAnLXRuJywgJzgnLCAnLW1hJywgJzIwMCcsICctaW1hZScsICc8aW5maWxlLm1hZT4nLCAnLW9tYWUnLCAnPG91dGZpbGUubWFlPic=

>  <r_lp_tautomer_probability>  (285) 
1

>  <r_epik_Ionization_Penalty>  (285) 
2.21653e-06

>  <r_epik_Ionization_Penalty_Charging>  (285) 
0

>  <r_epik_Ionization_Penalty_Neutral>  (285) 
2.21653e-06

>  <r_epik_State_Penalty>  (285) 
-0

>  <r_epik_Charging_Adjusted_Penalty>  (285) 
0

>  <i_epik_Tot_Q>  (285) 
0

>  <i_epik_Tot_abs_Q>  (285) 
0

>  <s_lp_Force_Field>  (285) 
OPLS3e

>  <r_lp_Energy>  (285) 
133.921

>  <b_lp_Chiralities_Consistent>  (285) 
1

>  <s_lp_Variant>  (285) 
78:0-1

>  <s_i_glide_gridfile>  (285) 
pfpi4k_grid

>  <i_i_glide_lignum>  (285) 
34

>  <i_i_glide_rotatable_bonds>  (285) 
5

>  <r_i_docking_score>  (285) 
-2.60575

>  <r_i_glide_ligand_efficiency>  (285) 
-0.0635549

>  <r_i_glide_ligand_efficiency_sa>  (285) 
-0.219151

>  <r_i_glide_ligand_efficiency_ln>  (285) 
-0.552819

>  <r_i_glide_gscore>  (285) 
-2.60575

>  <r_i_glide_lipo>  (285) 
-0.101895

>  <r_i_glide_hbond>  (285) 
0

>  <r_i_glide_metal>  (285) 
-0

>  <r_i_glide_rewards>  (285) 
-1.13887

>  <r_i_glide_evdw>  (285) 
-26.7966

>  <r_i_glide_ecoul>  (285) 
-0.340806

>  <r_i_glide_erotb>  (285) 
0.0640045

>  <r_i_glide_esite>  (285) 
-0.0380396

>  <r_i_glide_emodel>  (285) 
-40.4017

>  <r_i_glide_energy>  (285) 
-27.1374

>  <r_i_glide_einternal>  (285) 
1.14252

>  <r_i_glide_intrahb_reward>  (285) 
-1

>  <i_i_glide_confnum>  (285) 
4

>  <i_i_glide_posenum>  (285) 
25

>  <r_i_glide_eff_state_penalty>  (285) 
0

>  <ligand_id>  (285) 
78

>  <original_smiles>  (285) 
C=CC1(C)CC(=O)C23C(O1)C(=O)C(C)C2(O)CC(O)C1=C(C(=O)CC(C)(C)C1)C1CC2(C)CC(C1(C)C)C3(O)C2O

>  <smiles>  (285) 
[H]OC1([H])C2=C(C(=O)C([H])([H])C(C([H])([H])[H])(C([H])([H])[H])C2([H])[H])C2([H])C([H])([H])C3(C([H])([H])[H])C([H])([H])C([H])(C(O[H])(C3([H])O[H])C34C(=O)C([H])([H])C(C([H])=C([H])[H])(C([H])([H])[H])OC3([H])C(=O)C([H])(C([H])([H])[H])C4(O[H])C1([H])[H])C2(C([H])([H])[H])C([H])([H])[H]

$$$$
79:0:0
     RDKit          3D

 64 67  0  0  1  0  0  0  0  0999 V2000
    1.1496   -0.3721    2.4726 C   0  0  0  0  0  0  0  0  0  0  0  0
    1.9091   -0.8425    3.7237 C   0  0  0  0  0  0  0  0  0  0  0  0
    1.2906   -1.1803    4.7358 O   0  0  0  0  0  0  0  0  0  0  0  0
    3.2768   -0.9018    3.6427 O   0  0  0  0  0  0  0  0  0  0  0  0
    3.9970   -0.9252    2.4100 C   0  0  0  0  0  0  0  0  0  0  0  0
    4.2702   -2.3395    1.7295 C   0  0  2  0  0  0  0  0  0  0  0  0
    2.9888   -3.2597    1.8513 C   0  0  0  0  0  0  0  0  0  0  0  0
    3.0131   -4.7452    2.3226 C   0  0  1  0  0  0  0  0  0  0  0  0
    1.6705   -4.9573    3.0995 C   0  0  0  0  0  0  0  0  0  0  0  0
    3.0392   -5.6803    1.0837 C   0  0  1  0  0  0  0  0  0  0  0  0
    1.7678   -5.8044    0.4630 O   0  0  0  0  0  0  0  0  0  0  0  0
    4.1732   -5.5215    0.0135 C   0  0  0  0  0  0  0  0  0  0  0  0
    4.4962   -4.2624   -0.8863 C   0  0  2  0  0  0  0  0  0  0  0  0
    5.5316   -3.2312   -0.3894 C   0  0  2  0  0  0  0  0  0  0  0  0
    6.6872   -3.7355    0.4780 C   0  0  1  0  0  0  0  0  0  0  0  0
    7.9514   -2.8648    0.5352 C   0  0  0  0  0  0  0  0  0  0  0  0
    6.2251   -4.0191    1.7768 O   0  0  0  0  0  0  0  0  0  0  0  0
    5.4707   -3.0175    2.4963 C   0  0  2  0  0  0  0  0  0  0  0  0
    5.0511   -3.8400    3.7381 C   0  0  1  0  0  0  0  0  0  0  0  0
    4.4685   -3.1099    4.8069 O   0  0  0  0  0  0  0  0  0  0  0  0
    4.2077   -5.0602    3.3090 C   0  0  1  0  0  0  0  0  0  0  0  0
    3.9022   -5.9527    4.5233 C   0  0  0  0  0  0  0  0  0  0  0  0
    4.7113   -2.0680    0.2077 C   0  0  2  0  0  0  0  0  0  0  0  0
    5.5127   -0.7405    0.0548 C   0  0  0  0  0  0  0  0  0  0  0  0
    3.5731   -2.0009   -0.8401 C   0  0  0  0  0  0  0  0  0  0  0  0
    3.4041   -3.3580   -1.5328 C   0  0  1  0  0  0  0  0  0  0  0  0
    3.6046   -3.2348   -3.0667 C   0  0  0  0  0  0  0  0  0  0  0  0
    2.0814   -3.7951   -1.4346 O   0  0  0  0  0  0  0  0  0  0  0  0
    1.7887   -0.1325    1.6272 H   0  0  0  0  0  0  0  0  0  0  0  0
    0.5704    0.5224    2.7352 H   0  0  0  0  0  0  0  0  0  0  0  0
    0.4813   -1.1768    2.1559 H   0  0  0  0  0  0  0  0  0  0  0  0
    3.5704   -0.2574    1.6806 H   0  0  0  0  0  0  0  0  0  0  0  0
    4.9647   -0.5063    2.6739 H   0  0  0  0  0  0  0  0  0  0  0  0
    2.4758   -2.8625    2.6789 H   0  0  0  0  0  0  0  0  0  0  0  0
    2.2637   -3.1113    1.0443 H   0  0  0  0  0  0  0  0  0  0  0  0
    1.4792   -5.9997    3.3405 H   0  0  0  0  0  0  0  0  0  0  0  0
    0.8138   -4.5935    2.5393 H   0  0  0  0  0  0  0  0  0  0  0  0
    1.6607   -4.3948    4.0306 H   0  0  0  0  0  0  0  0  0  0  0  0
    3.1733   -6.6799    1.4942 H   0  0  0  0  0  0  0  0  0  0  0  0
    1.9181   -5.8292   -0.4536 H   0  0  0  0  0  0  0  0  0  0  0  0
    5.0957   -5.8706    0.4690 H   0  0  0  0  0  0  0  0  0  0  0  0
    3.9741   -6.3217   -0.6926 H   0  0  0  0  0  0  0  0  0  0  0  0
    5.0132   -4.7381   -1.7174 H   0  0  0  0  0  0  0  0  0  0  0  0
    6.0057   -2.8604   -1.3036 H   0  0  0  0  0  0  0  0  0  0  0  0
    7.0135   -4.6818    0.0623 H   0  0  0  0  0  0  0  0  0  0  0  0
    8.3087   -2.5272   -0.4334 H   0  0  0  0  0  0  0  0  0  0  0  0
    8.7516   -3.4392    1.0024 H   0  0  0  0  0  0  0  0  0  0  0  0
    7.8025   -1.9945    1.1655 H   0  0  0  0  0  0  0  0  0  0  0  0
    6.1778   -2.2339    2.7705 H   0  0  0  0  0  0  0  0  0  0  0  0
    5.9786   -4.2224    4.1714 H   0  0  0  0  0  0  0  0  0  0  0  0
    5.0364   -2.3923    5.0194 H   0  0  0  0  0  0  0  0  0  0  0  0
    4.8929   -5.6781    2.7320 H   0  0  0  0  0  0  0  0  0  0  0  0
    3.2737   -5.4578    5.2643 H   0  0  0  0  0  0  0  0  0  0  0  0
    4.8292   -6.2163    5.0268 H   0  0  0  0  0  0  0  0  0  0  0  0
    3.4236   -6.8802    4.2230 H   0  0  0  0  0  0  0  0  0  0  0  0
    6.0025   -0.6713   -0.9163 H   0  0  0  0  0  0  0  0  0  0  0  0
    6.2757   -0.6059    0.8201 H   0  0  0  0  0  0  0  0  0  0  0  0
    4.8618    0.1379    0.0957 H   0  0  0  0  0  0  0  0  0  0  0  0
    2.6321   -1.6322   -0.3807 H   0  0  0  0  0  0  0  0  0  0  0  0
    3.7544   -1.2506   -1.6049 H   0  0  0  0  0  0  0  0  0  0  0  0
    4.5927   -2.8481   -3.3191 H   0  0  0  0  0  0  0  0  0  0  0  0
    2.8552   -2.5822   -3.5230 H   0  0  0  0  0  0  0  0  0  0  0  0
    3.5150   -4.2013   -3.5686 H   0  0  0  0  0  0  0  0  0  0  0  0
    2.0133   -4.5551   -2.0208 H   0  0  0  0  0  0  0  0  0  0  0  0
  1  2  1  0
  1 29  1  0
  1 30  1  0
  1 31  1  0
  2  3  2  0
  2  4  1  0
  4  5  1  0
  6  5  1  1
  5 32  1  0
  5 33  1  0
  6 18  1  0
  6 23  1  0
  6  7  1  0
  7  8  1  0
  7 34  1  0
  7 35  1  0
  8 21  1  0
  8  9  1  1
  8 10  1  0
  9 36  1  0
  9 37  1  0
  9 38  1  0
 10 11  1  0
 10 12  1  0
 10 39  1  1
 11 40  1  0
 12 13  1  0
 12 41  1  0
 12 42  1  0
 13 26  1  0
 13 14  1  0
 13 43  1  6
 14 15  1  0
 14 23  1  0
 14 44  1  6
 15 16  1  0
 15 17  1  0
 15 45  1  6
 16 46  1  0
 16 47  1  0
 16 48  1  0
 17 18  1  0
 18 19  1  0
 18 49  1  1
 19 20  1  0
 19 21  1  0
 19 50  1  1
 20 51  1  0
 21 22  1  0
 21 52  1  6
 22 53  1  0
 22 54  1  0
 22 55  1  0
 23 24  1  1
 23 25  1  0
 24 56  1  0
 24 57  1  0
 24 58  1  0
 25 26  1  0
 25 59  1  0
 25 60  1  0
 26 27  1  0
 26 28  1  6
 27 61  1  0
 27 62  1  0
 27 63  1  0
 28 64  1  0
M  END
>  <i_m_ct_stereo_status>  (286) 
1

>  <s_m_source_file>  (286) 
/var/tmp/pbs.5076255.sched01/tmptpdlle0r/921kky2sk3.sdf

>  <i_m_source_file_index>  (286) 
35

>  <i_lp_mmshare_version>  (286) 
48012

>  <i_f3d_flags>  (286) 
0

>  <s_epik_input>  (286) 
W0NIM11DKD1PKU9bQ0gyXVtDQEBdMTJbQ0BASF0zT1tDQEhdKFtDSDNdKVtDQEhdNFtDQEhdKFtDQEBdKFtDSDNdKShbT0hdKVtDSDJdW0NAQF0yNFtDSDNdKVtDSDJdW0NASF0oW09IXSlbQ0BAXShbQ0gyXTEpKFtDSDNdKVtDQEhdKFtDSDNdKVtDQEBIXTNbT0hd

>  <s_epik_cmdline>  (286) 
J2VwaWtfcHl0aG9uJywgJy1waHQnLCAnMi4wJywgJy1waCcsICc3LjAnLCAnLXRuJywgJzgnLCAnLW1hJywgJzIwMCcsICctaW1hZScsICc8aW5maWxlLm1hZT4nLCAnLW9tYWUnLCAnPG91dGZpbGUubWFlPic=

>  <r_lp_tautomer_probability>  (286) 
1

>  <r_epik_Ionization_Penalty>  (286) 
1.37863e-06

>  <r_epik_Ionization_Penalty_Charging>  (286) 
0

>  <r_epik_Ionization_Penalty_Neutral>  (286) 
1.37863e-06

>  <r_epik_State_Penalty>  (286) 
-0

>  <r_epik_Charging_Adjusted_Penalty>  (286) 
0

>  <i_epik_Tot_Q>  (286) 
0

>  <i_epik_Tot_abs_Q>  (286) 
0

>  <s_epik_Chemistry_Notes>  (286) 
This compound has an ester and may undergo hydrolysis at high or low pH.

>  <s_lp_Force_Field>  (286) 
OPLS3e

>  <r_lp_Energy>  (286) 
85.3945

>  <b_lp_Chiralities_Consistent>  (286) 
1

>  <s_lp_Variant>  (286) 
79:0-1

>  <s_i_glide_gridfile>  (286) 
pfpi4k_grid

>  <i_i_glide_lignum>  (286) 
35

>  <i_i_glide_rotatable_bonds>  (286) 
6

>  <r_i_docking_score>  (286) 
-3.15151

>  <r_i_glide_ligand_efficiency>  (286) 
-0.112554

>  <r_i_glide_ligand_efficiency_sa>  (286) 
-0.34178

>  <r_i_glide_ligand_efficiency_ln>  (286) 
-0.727461

>  <r_i_glide_gscore>  (286) 
-3.15151

>  <r_i_glide_lipo>  (286) 
-0.582111

>  <r_i_glide_hbond>  (286) 
0

>  <r_i_glide_metal>  (286) 
-0

>  <r_i_glide_rewards>  (286) 
-0.705562

>  <r_i_glide_evdw>  (286) 
-22.9809

>  <r_i_glide_ecoul>  (286) 
-6.41283

>  <r_i_glide_erotb>  (286) 
0.248885

>  <r_i_glide_esite>  (286) 
-0.00175071

>  <r_i_glide_emodel>  (286) 
-25.2001

>  <r_i_glide_energy>  (286) 
-29.3938

>  <r_i_glide_einternal>  (286) 
15.8663

>  <r_i_glide_intrahb_reward>  (286) 
-0

>  <i_i_glide_confnum>  (286) 
2

>  <i_i_glide_posenum>  (286) 
18

>  <r_i_glide_eff_state_penalty>  (286) 
0

>  <ligand_id>  (286) 
79

>  <original_smiles>  (286) 
CC(=O)OCC12CC3(C)C(O)CC4C(C(C)OC1C(O)C3C)C2(C)CC4(C)O

>  <smiles>  (286) 
[H]OC1([H])C2([H])OC([H])(C([H])([H])[H])C3([H])C4([H])C([H])([H])C([H])(O[H])C(C([H])([H])[H])(C([H])([H])C2(C([H])([H])OC(=O)C([H])([H])[H])C3(C([H])([H])[H])C([H])([H])C4(O[H])C([H])([H])[H])C1([H])C([H])([H])[H]

$$$$
79:0:1
     RDKit          3D

 64 67  0  0  1  0  0  0  0  0999 V2000
    1.1337   -0.9400    2.6053 C   0  0  0  0  0  0  0  0  0  0  0  0
    1.9327   -1.1919    3.8875 C   0  0  0  0  0  0  0  0  0  0  0  0
    1.3693   -1.5937    4.8902 O   0  0  0  0  0  0  0  0  0  0  0  0
    3.2849   -1.0860    3.7855 O   0  0  0  0  0  0  0  0  0  0  0  0
    4.0080   -0.9590    2.5486 C   0  0  0  0  0  0  0  0  0  0  0  0
    4.3629   -2.2890    1.7173 C   0  0  2  0  0  0  0  0  0  0  0  0
    3.1483   -3.2853    1.7832 C   0  0  0  0  0  0  0  0  0  0  0  0
    3.2638   -4.7977    2.0909 C   0  0  1  0  0  0  0  0  0  0  0  0
    1.9499   -5.1752    2.8618 C   0  0  0  0  0  0  0  0  0  0  0  0
    3.3138   -5.6034    0.7638 C   0  0  1  0  0  0  0  0  0  0  0  0
    2.0437   -5.7235    0.1409 O   0  0  0  0  0  0  0  0  0  0  0  0
    4.4168   -5.2679   -0.3028 C   0  0  0  0  0  0  0  0  0  0  0  0
    4.6413   -3.9091   -1.0785 C   0  0  2  0  0  0  0  0  0  0  0  0
    5.6166   -2.8645   -0.4815 C   0  0  2  0  0  0  0  0  0  0  0  0
    6.8274   -3.3901    0.3052 C   0  0  1  0  0  0  0  0  0  0  0  0
    8.0413   -2.4475    0.4739 C   0  0  0  0  0  0  0  0  0  0  0  0
    6.4001   -3.8262    1.5717 O   0  0  0  0  0  0  0  0  0  0  0  0
    5.6026   -2.9488    2.3901 C   0  0  2  0  0  0  0  0  0  0  0  0
    5.2529   -3.9117    3.5520 C   0  0  1  0  0  0  0  0  0  0  0  0
    4.6743   -3.2787    4.6746 O   0  0  0  0  0  0  0  0  0  0  0  0
    4.4844   -5.1433    3.0099 C   0  0  1  0  0  0  0  0  0  0  0  0
    4.2707   -6.1722    4.1475 C   0  0  0  0  0  0  0  0  0  0  0  0
    4.7445   -1.8297    0.2490 C   0  0  2  0  0  0  0  0  0  0  0  0
    5.4653   -0.4686    0.2338 C   0  0  0  0  0  0  0  0  0  0  0  0
    3.5676   -1.7099   -0.7645 C   0  0  0  0  0  0  0  0  0  0  0  0
    3.4709   -3.0086   -1.6033 C   0  0  1  0  0  0  0  0  0  0  0  0
    3.6238   -2.7290   -3.1182 C   0  0  0  0  0  0  0  0  0  0  0  0
    2.1681   -3.5188   -1.4784 O   0  0  0  0  0  0  0  0  0  0  0  0
    1.7488   -0.6930    1.7518 H   0  0  0  0  0  0  0  0  0  0  0  0
    0.4173   -0.1330    2.7668 H   0  0  0  0  0  0  0  0  0  0  0  0
    0.5689   -1.8406    2.3643 H   0  0  0  0  0  0  0  0  0  0  0  0
    3.4968   -0.2171    1.9418 H   0  0  0  0  0  0  0  0  0  0  0  0
    4.9588   -0.5109    2.8540 H   0  0  0  0  0  0  0  0  0  0  0  0
    2.6887   -3.0163    2.6663 H   0  0  0  0  0  0  0  0  0  0  0  0
    2.3925   -3.1180    1.0059 H   0  0  0  0  0  0  0  0  0  0  0  0
    1.8214   -6.2556    3.0010 H   0  0  0  0  0  0  0  0  0  0  0  0
    1.0574   -4.8004    2.3665 H   0  0  0  0  0  0  0  0  0  0  0  0
    1.9377   -4.7132    3.8497 H   0  0  0  0  0  0  0  0  0  0  0  0
    3.5142   -6.6381    1.0508 H   0  0  0  0  0  0  0  0  0  0  0  0
    2.1888   -5.7922   -0.8023 H   0  0  0  0  0  0  0  0  0  0  0  0
    5.3713   -5.5849    0.1093 H   0  0  0  0  0  0  0  0  0  0  0  0
    4.2761   -6.0140   -1.0787 H   0  0  0  0  0  0  0  0  0  0  0  0
    5.1589   -4.2653   -1.9706 H   0  0  0  0  0  0  0  0  0  0  0  0
    6.0476   -2.3847   -1.3646 H   0  0  0  0  0  0  0  0  0  0  0  0
    7.1994   -4.2610   -0.2259 H   0  0  0  0  0  0  0  0  0  0  0  0
    8.3460   -2.0182   -0.4908 H   0  0  0  0  0  0  0  0  0  0  0  0
    8.8956   -3.0209    0.8303 H   0  0  0  0  0  0  0  0  0  0  0  0
    7.8669   -1.6271    1.1504 H   0  0  0  0  0  0  0  0  0  0  0  0
    6.2521   -2.1557    2.7467 H   0  0  0  0  0  0  0  0  0  0  0  0
    6.1716   -4.3178    3.9448 H   0  0  0  0  0  0  0  0  0  0  0  0
    4.6067   -3.9404    5.3520 H   0  0  0  0  0  0  0  0  0  0  0  0
    5.2048   -5.6640    2.3757 H   0  0  0  0  0  0  0  0  0  0  0  0
    3.6267   -5.7927    4.9421 H   0  0  0  0  0  0  0  0  0  0  0  0
    5.2263   -6.4298    4.6061 H   0  0  0  0  0  0  0  0  0  0  0  0
    3.8394   -7.0957    3.7594 H   0  0  0  0  0  0  0  0  0  0  0  0
    5.9251   -0.2897   -0.7385 H   0  0  0  0  0  0  0  0  0  0  0  0
    6.2360   -0.3579    0.9868 H   0  0  0  0  0  0  0  0  0  0  0  0
    4.7707    0.3600    0.3778 H   0  0  0  0  0  0  0  0  0  0  0  0
    2.6377   -1.4529   -0.2661 H   0  0  0  0  0  0  0  0  0  0  0  0
    3.7219   -0.8799   -1.4618 H   0  0  0  0  0  0  0  0  0  0  0  0
    4.5781   -2.2586   -3.3516 H   0  0  0  0  0  0  0  0  0  0  0  0
    2.8360   -2.0711   -3.4916 H   0  0  0  0  0  0  0  0  0  0  0  0
    3.5678   -3.6525   -3.6999 H   0  0  0  0  0  0  0  0  0  0  0  0
    1.5596   -2.8562   -1.7788 H   0  0  0  0  0  0  0  0  0  0  0  0
  1  2  1  0
  1 29  1  0
  1 30  1  0
  1 31  1  0
  2  3  2  0
  2  4  1  0
  4  5  1  0
  6  5  1  1
  5 32  1  0
  5 33  1  0
  6 18  1  0
  6 23  1  0
  6  7  1  0
  7  8  1  0
  7 34  1  0
  7 35  1  0
  8 21  1  0
  8  9  1  1
  8 10  1  0
  9 36  1  0
  9 37  1  0
  9 38  1  0
 10 11  1  0
 10 12  1  0
 10 39  1  1
 11 40  1  0
 12 13  1  0
 12 41  1  0
 12 42  1  0
 13 26  1  0
 13 14  1  0
 13 43  1  6
 14 15  1  0
 14 23  1  0
 14 44  1  6
 15 16  1  0
 15 17  1  0
 15 45  1  6
 16 46  1  0
 16 47  1  0
 16 48  1  0
 17 18  1  0
 18 19  1  0
 18 49  1  1
 19 20  1  0
 19 21  1  0
 19 50  1  1
 20 51  1  0
 21 22  1  0
 21 52  1  6
 22 53  1  0
 22 54  1  0
 22 55  1  0
 23 24  1  1
 23 25  1  0
 24 56  1  0
 24 57  1  0
 24 58  1  0
 25 26  1  0
 25 59  1  0
 25 60  1  0
 26 27  1  0
 26 28  1  6
 27 61  1  0
 27 62  1  0
 27 63  1  0
 28 64  1  0
M  END
>  <i_m_ct_stereo_status>  (287) 
1

>  <s_m_source_file>  (287) 
/var/tmp/pbs.5076255.sched01/tmptpdlle0r/921kky2sk3.sdf

>  <i_m_source_file_index>  (287) 
35

>  <i_lp_mmshare_version>  (287) 
48012

>  <i_f3d_flags>  (287) 
0

>  <s_epik_input>  (287) 
W0NIM11DKD1PKU9bQ0gyXVtDQEBdMTJbQ0BASF0zT1tDQEhdKFtDSDNdKVtDQEhdNFtDQEhdKFtDQEBdKFtDSDNdKShbT0hdKVtDSDJdW0NAQF0yNFtDSDNdKVtDSDJdW0NASF0oW09IXSlbQ0BAXShbQ0gyXTEpKFtDSDNdKVtDQEhdKFtDSDNdKVtDQEBIXTNbT0hd

>  <s_epik_cmdline>  (287) 
J2VwaWtfcHl0aG9uJywgJy1waHQnLCAnMi4wJywgJy1waCcsICc3LjAnLCAnLXRuJywgJzgnLCAnLW1hJywgJzIwMCcsICctaW1hZScsICc8aW5maWxlLm1hZT4nLCAnLW9tYWUnLCAnPG91dGZpbGUubWFlPic=

>  <r_lp_tautomer_probability>  (287) 
1

>  <r_epik_Ionization_Penalty>  (287) 
1.37863e-06

>  <r_epik_Ionization_Penalty_Charging>  (287) 
0

>  <r_epik_Ionization_Penalty_Neutral>  (287) 
1.37863e-06

>  <r_epik_State_Penalty>  (287) 
-0

>  <r_epik_Charging_Adjusted_Penalty>  (287) 
0

>  <i_epik_Tot_Q>  (287) 
0

>  <i_epik_Tot_abs_Q>  (287) 
0

>  <s_epik_Chemistry_Notes>  (287) 
This compound has an ester and may undergo hydrolysis at high or low pH.

>  <s_lp_Force_Field>  (287) 
OPLS3e

>  <r_lp_Energy>  (287) 
85.3945

>  <b_lp_Chiralities_Consistent>  (287) 
1

>  <s_lp_Variant>  (287) 
79:0-1

>  <s_i_glide_gridfile>  (287) 
pfpi4k_grid

>  <i_i_glide_lignum>  (287) 
35

>  <i_i_glide_rotatable_bonds>  (287) 
6

>  <r_i_docking_score>  (287) 
-2.85059

>  <r_i_glide_ligand_efficiency>  (287) 
-0.101807

>  <r_i_glide_ligand_efficiency_sa>  (287) 
-0.309145

>  <r_i_glide_ligand_efficiency_ln>  (287) 
-0.657999

>  <r_i_glide_gscore>  (287) 
-2.85059

>  <r_i_glide_lipo>  (287) 
-0.629254

>  <r_i_glide_hbond>  (287) 
0

>  <r_i_glide_metal>  (287) 
-0

>  <r_i_glide_rewards>  (287) 
-0.705562

>  <r_i_glide_evdw>  (287) 
-21.852

>  <r_i_glide_ecoul>  (287) 
-4.47421

>  <r_i_glide_erotb>  (287) 
0.248885

>  <r_i_glide_esite>  (287) 
-0.00092404

>  <r_i_glide_emodel>  (287) 
-21.556

>  <r_i_glide_energy>  (287) 
-26.3262

>  <r_i_glide_einternal>  (287) 
15.2991

>  <r_i_glide_intrahb_reward>  (287) 
-0

>  <i_i_glide_confnum>  (287) 
1

>  <i_i_glide_posenum>  (287) 
8

>  <r_i_glide_eff_state_penalty>  (287) 
0

>  <ligand_id>  (287) 
79

>  <original_smiles>  (287) 
CC(=O)OCC12CC3(C)C(O)CC4C(C(C)OC1C(O)C3C)C2(C)CC4(C)O

>  <smiles>  (287) 
[H]OC1([H])C2([H])OC([H])(C([H])([H])[H])C3([H])C4([H])C([H])([H])C([H])(O[H])C(C([H])([H])[H])(C([H])([H])C2(C([H])([H])OC(=O)C([H])([H])[H])C3(C([H])([H])[H])C([H])([H])C4(O[H])C([H])([H])[H])C1([H])C([H])([H])[H]

$$$$
79:0:2
     RDKit          3D

 64 67  0  0  1  0  0  0  0  0999 V2000
    1.1227   -0.9348    2.5722 C   0  0  0  0  0  0  0  0  0  0  0  0
    1.9254   -1.1955    3.8445 C   0  0  0  0  0  0  0  0  0  0  0  0
    1.3635   -1.5819    4.8729 O   0  0  0  0  0  0  0  0  0  0  0  0
    3.2833   -1.0816    3.7721 O   0  0  0  0  0  0  0  0  0  0  0  0
    4.0041   -0.9515    2.5351 C   0  0  0  0  0  0  0  0  0  0  0  0
    4.3573   -2.2938    1.7206 C   0  0  2  0  0  0  0  0  0  0  0  0
    3.1475   -3.2961    1.7852 C   0  0  0  0  0  0  0  0  0  0  0  0
    3.2695   -4.8102    2.0918 C   0  0  1  0  0  0  0  0  0  0  0  0
    1.9542   -5.1835    2.8599 C   0  0  0  0  0  0  0  0  0  0  0  0
    3.3202   -5.6179    0.7650 C   0  0  1  0  0  0  0  0  0  0  0  0
    2.0477   -5.7346    0.1430 O   0  0  0  0  0  0  0  0  0  0  0  0
    4.4233   -5.2792   -0.2955 C   0  0  0  0  0  0  0  0  0  0  0  0
    4.6410   -3.9258   -1.0788 C   0  0  2  0  0  0  0  0  0  0  0  0
    5.6191   -2.8833   -0.4885 C   0  0  2  0  0  0  0  0  0  0  0  0
    6.8303   -3.3985    0.2998 C   0  0  1  0  0  0  0  0  0  0  0  0
    8.0386   -2.4527    0.4751 C   0  0  0  0  0  0  0  0  0  0  0  0
    6.4165   -3.8239    1.5731 O   0  0  0  0  0  0  0  0  0  0  0  0
    5.6058   -2.9570    2.3952 C   0  0  2  0  0  0  0  0  0  0  0  0
    5.2730   -3.9275    3.5503 C   0  0  1  0  0  0  0  0  0  0  0  0
    4.6631   -3.3192    4.6797 O   0  0  0  0  0  0  0  0  0  0  0  0
    4.5004   -5.1526    3.0159 C   0  0  1  0  0  0  0  0  0  0  0  0
    4.2747   -6.1716    4.1503 C   0  0  0  0  0  0  0  0  0  0  0  0
    4.7451   -1.8457    0.2442 C   0  0  2  0  0  0  0  0  0  0  0  0
    5.4630   -0.4806    0.2231 C   0  0  0  0  0  0  0  0  0  0  0  0
    3.5702   -1.7281   -0.7714 C   0  0  0  0  0  0  0  0  0  0  0  0
    3.4752   -3.0256   -1.6035 C   0  0  1  0  0  0  0  0  0  0  0  0
    3.6279   -2.7531   -3.1230 C   0  0  0  0  0  0  0  0  0  0  0  0
    2.1685   -3.5277   -1.4605 O   0  0  0  0  0  0  0  0  0  0  0  0
    1.7485   -0.6910    1.7261 H   0  0  0  0  0  0  0  0  0  0  0  0
    0.3867   -0.1292    2.7322 H   0  0  0  0  0  0  0  0  0  0  0  0
    0.5552   -1.8446    2.3540 H   0  0  0  0  0  0  0  0  0  0  0  0
    3.4875   -0.2238    1.9239 H   0  0  0  0  0  0  0  0  0  0  0  0
    4.9708   -0.5302    2.8481 H   0  0  0  0  0  0  0  0  0  0  0  0
    2.6969   -3.0230    2.6738 H   0  0  0  0  0  0  0  0  0  0  0  0
    2.4061   -3.1400    0.9914 H   0  0  0  0  0  0  0  0  0  0  0  0
    1.8262   -6.2610    3.0068 H   0  0  0  0  0  0  0  0  0  0  0  0
    1.0616   -4.8088    2.3645 H   0  0  0  0  0  0  0  0  0  0  0  0
    1.9451   -4.7192    3.8427 H   0  0  0  0  0  0  0  0  0  0  0  0
    3.5185   -6.6516    1.0606 H   0  0  0  0  0  0  0  0  0  0  0  0
    2.1944   -5.7725   -0.7972 H   0  0  0  0  0  0  0  0  0  0  0  0
    5.3763   -5.5960    0.1185 H   0  0  0  0  0  0  0  0  0  0  0  0
    4.2857   -6.0284   -1.0654 H   0  0  0  0  0  0  0  0  0  0  0  0
    5.1615   -4.2814   -1.9677 H   0  0  0  0  0  0  0  0  0  0  0  0
    6.0469   -2.4012   -1.3735 H   0  0  0  0  0  0  0  0  0  0  0  0
    7.1979   -4.2778   -0.2259 H   0  0  0  0  0  0  0  0  0  0  0  0
    8.3477   -2.0214   -0.5131 H   0  0  0  0  0  0  0  0  0  0  0  0
    8.8874   -3.0200    0.8145 H   0  0  0  0  0  0  0  0  0  0  0  0
    7.8577   -1.6321    1.1228 H   0  0  0  0  0  0  0  0  0  0  0  0
    6.2428   -2.1446    2.7346 H   0  0  0  0  0  0  0  0  0  0  0  0
    6.2282   -4.3139    3.9229 H   0  0  0  0  0  0  0  0  0  0  0  0
    5.1576   -2.5479    4.9109 H   0  0  0  0  0  0  0  0  0  0  0  0
    5.2177   -5.6675    2.3739 H   0  0  0  0  0  0  0  0  0  0  0  0
    3.6345   -5.7835    4.9451 H   0  0  0  0  0  0  0  0  0  0  0  0
    5.2298   -6.4214    4.6085 H   0  0  0  0  0  0  0  0  0  0  0  0
    3.8422   -7.0936    3.7666 H   0  0  0  0  0  0  0  0  0  0  0  0
    5.9130   -0.2907   -0.7516 H   0  0  0  0  0  0  0  0  0  0  0  0
    6.2352   -0.3655    0.9753 H   0  0  0  0  0  0  0  0  0  0  0  0
    4.7630    0.3445    0.3657 H   0  0  0  0  0  0  0  0  0  0  0  0
    2.6374   -1.4755   -0.2753 H   0  0  0  0  0  0  0  0  0  0  0  0
    3.7171   -0.8990   -1.4709 H   0  0  0  0  0  0  0  0  0  0  0  0
    4.5853   -2.2826   -3.3583 H   0  0  0  0  0  0  0  0  0  0  0  0
    2.8397   -2.0966   -3.4990 H   0  0  0  0  0  0  0  0  0  0  0  0
    3.5737   -3.6789   -3.6994 H   0  0  0  0  0  0  0  0  0  0  0  0
    1.5636   -2.8645   -1.7576 H   0  0  0  0  0  0  0  0  0  0  0  0
  1  2  1  0
  1 29  1  0
  1 30  1  0
  1 31  1  0
  2  3  2  0
  2  4  1  0
  4  5  1  0
  6  5  1  1
  5 32  1  0
  5 33  1  0
  6 18  1  0
  6 23  1  0
  6  7  1  0
  7  8  1  0
  7 34  1  0
  7 35  1  0
  8 21  1  0
  8  9  1  1
  8 10  1  0
  9 36  1  0
  9 37  1  0
  9 38  1  0
 10 11  1  0
 10 12  1  0
 10 39  1  1
 11 40  1  0
 12 13  1  0
 12 41  1  0
 12 42  1  0
 13 26  1  0
 13 14  1  0
 13 43  1  6
 14 15  1  0
 14 23  1  0
 14 44  1  6
 15 16  1  0
 15 17  1  0
 15 45  1  6
 16 46  1  0
 16 47  1  0
 16 48  1  0
 17 18  1  0
 18 19  1  0
 18 49  1  1
 19 20  1  0
 19 21  1  0
 19 50  1  1
 20 51  1  0
 21 22  1  0
 21 52  1  6
 22 53  1  0
 22 54  1  0
 22 55  1  0
 23 24  1  1
 23 25  1  0
 24 56  1  0
 24 57  1  0
 24 58  1  0
 25 26  1  0
 25 59  1  0
 25 60  1  0
 26 27  1  0
 26 28  1  6
 27 61  1  0
 27 62  1  0
 27 63  1  0
 28 64  1  0
M  END
>  <i_m_ct_stereo_status>  (288) 
1

>  <s_m_source_file>  (288) 
/var/tmp/pbs.5076255.sched01/tmptpdlle0r/921kky2sk3.sdf

>  <i_m_source_file_index>  (288) 
35

>  <i_lp_mmshare_version>  (288) 
48012

>  <i_f3d_flags>  (288) 
0

>  <s_epik_input>  (288) 
W0NIM11DKD1PKU9bQ0gyXVtDQEBdMTJbQ0BASF0zT1tDQEhdKFtDSDNdKVtDQEhdNFtDQEhdKFtDQEBdKFtDSDNdKShbT0hdKVtDSDJdW0NAQF0yNFtDSDNdKVtDSDJdW0NASF0oW09IXSlbQ0BAXShbQ0gyXTEpKFtDSDNdKVtDQEhdKFtDSDNdKVtDQEBIXTNbT0hd

>  <s_epik_cmdline>  (288) 
J2VwaWtfcHl0aG9uJywgJy1waHQnLCAnMi4wJywgJy1waCcsICc3LjAnLCAnLXRuJywgJzgnLCAnLW1hJywgJzIwMCcsICctaW1hZScsICc8aW5maWxlLm1hZT4nLCAnLW9tYWUnLCAnPG91dGZpbGUubWFlPic=

>  <r_lp_tautomer_probability>  (288) 
1

>  <r_epik_Ionization_Penalty>  (288) 
1.37863e-06

>  <r_epik_Ionization_Penalty_Charging>  (288) 
0

>  <r_epik_Ionization_Penalty_Neutral>  (288) 
1.37863e-06

>  <r_epik_State_Penalty>  (288) 
-0

>  <r_epik_Charging_Adjusted_Penalty>  (288) 
0

>  <i_epik_Tot_Q>  (288) 
0

>  <i_epik_Tot_abs_Q>  (288) 
0

>  <s_epik_Chemistry_Notes>  (288) 
This compound has an ester and may undergo hydrolysis at high or low pH.

>  <s_lp_Force_Field>  (288) 
OPLS3e

>  <r_lp_Energy>  (288) 
85.3945

>  <b_lp_Chiralities_Consistent>  (288) 
1

>  <s_lp_Variant>  (288) 
79:0-1

>  <s_i_glide_gridfile>  (288) 
pfpi4k_grid

>  <i_i_glide_lignum>  (288) 
35

>  <i_i_glide_rotatable_bonds>  (288) 
6

>  <r_i_docking_score>  (288) 
-2.82178

>  <r_i_glide_ligand_efficiency>  (288) 
-0.100778

>  <r_i_glide_ligand_efficiency_sa>  (288) 
-0.306021

>  <r_i_glide_ligand_efficiency_ln>  (288) 
-0.65135

>  <r_i_glide_gscore>  (288) 
-2.82178

>  <r_i_glide_lipo>  (288) 
-0.625192

>  <r_i_glide_hbond>  (288) 
0

>  <r_i_glide_metal>  (288) 
-0

>  <r_i_glide_rewards>  (288) 
-0.705562

>  <r_i_glide_evdw>  (288) 
-21.7894

>  <r_i_glide_ecoul>  (288) 
-4.32941

>  <r_i_glide_erotb>  (288) 
0.248885

>  <r_i_glide_esite>  (288) 
-0.00103461

>  <r_i_glide_emodel>  (288) 
-19.8716

>  <r_i_glide_energy>  (288) 
-26.1188

>  <r_i_glide_einternal>  (288) 
15.4369

>  <r_i_glide_intrahb_reward>  (288) 
-0

>  <i_i_glide_confnum>  (288) 
2

>  <i_i_glide_posenum>  (288) 
1

>  <r_i_glide_eff_state_penalty>  (288) 
0

>  <ligand_id>  (288) 
79

>  <original_smiles>  (288) 
CC(=O)OCC12CC3(C)C(O)CC4C(C(C)OC1C(O)C3C)C2(C)CC4(C)O

>  <smiles>  (288) 
[H]OC1([H])C2([H])OC([H])(C([H])([H])[H])C3([H])C4([H])C([H])([H])C([H])(O[H])C(C([H])([H])[H])(C([H])([H])C2(C([H])([H])OC(=O)C([H])([H])[H])C3(C([H])([H])[H])C([H])([H])C4(O[H])C([H])([H])[H])C1([H])C([H])([H])[H]

$$$$
80:0:0
     RDKit          3D

 80 86  0  0  1  0  0  0  0  0999 V2000
   -0.2566    1.2777    2.1000 C   0  0  0  0  0  0  0  0  0  0  0  0
    0.3731    0.6909    3.4008 C   0  0  0  0  0  0  0  0  0  0  0  0
   -0.8331    0.3907    4.3150 C   0  0  0  0  0  0  0  0  0  0  0  0
    1.2345   -0.5443    3.1170 C   0  0  0  0  0  0  0  0  0  0  0  0
    2.1671   -0.7434    4.3273 C   0  0  1  0  0  0  0  0  0  0  0  0
    1.5975   -1.6785    5.4368 C   0  0  0  0  0  0  0  0  0  0  0  0
    1.2648   -3.0606    4.9162 C   0  0  0  0  0  0  0  0  0  0  0  0
    2.3309   -3.6819    4.0263 C   0  0  2  0  0  0  0  0  0  0  0  0
    1.7192   -4.9210    3.3598 C   0  0  0  0  0  0  0  0  0  0  0  0
    3.7205   -3.8842    4.5007 C   0  0  0  0  0  0  0  0  0  0  0  0
    3.4908   -2.7932    3.4392 C   0  0  1  0  0  0  0  0  0  0  0  0
    3.8538   -3.0260    1.8935 C   0  0  2  0  0  0  0  0  0  0  0  0
    2.5958   -2.8954    1.0193 C   0  0  0  0  0  0  0  0  0  0  0  0
    4.5686   -4.3488    1.5609 C   0  0  0  0  0  0  0  0  0  0  0  0
    5.4938   -4.1178    0.3629 C   0  0  1  0  0  0  0  0  0  0  0  0
    4.9932   -4.6652   -0.9618 C   0  0  0  0  0  0  0  0  0  0  0  0
    5.5073   -3.6778   -2.0008 C   0  0  1  0  0  0  0  0  0  0  0  0
    4.9700   -3.8505   -3.2925 O   0  0  0  0  0  0  0  0  0  0  0  0
    5.3574   -2.2896   -1.3258 C   0  0  1  0  0  0  0  0  0  0  0  0
    4.1198   -1.4117   -1.7102 C   0  0  2  0  0  0  0  0  0  0  0  0
    2.9740   -2.1185   -2.3593 C   0  0  0  0  0  0  0  0  0  0  0  0
    2.7398   -1.6013   -3.5834 C   0  0  0  0  0  0  0  0  0  0  0  0
    3.7037   -0.5471   -3.7849 C   0  0  0  0  0  0  0  0  0  0  0  0
    3.7967    0.1905   -4.7845 O   0  0  0  0  0  0  0  0  0  0  0  0
    4.4991   -0.4718   -2.7119 O   0  0  0  0  0  0  0  0  0  0  0  0
    5.7145   -2.6028    0.1690 C   0  0  2  0  0  0  0  0  0  0  0  0
    7.2178   -2.2735    0.3417 C   0  0  0  0  0  0  0  0  0  0  0  0
    4.9522   -2.0449    1.4099 C   0  0  1  0  0  0  0  0  0  0  0  0
    4.5661   -0.5803    1.5399 C   0  0  0  0  0  0  0  0  0  0  0  0
    4.4907   -0.3262    3.0486 C   0  0  0  0  0  0  0  0  0  0  0  0
    3.6303   -1.2908    3.9647 C   0  0  1  0  0  0  0  0  0  0  0  0
    4.5316   -1.2000    5.2279 C   0  0  0  0  0  0  0  0  0  0  0  0
    2.2788    0.6011    4.8433 O   0  0  0  0  0  0  0  0  0  0  0  0
    1.4197    1.5634    4.1464 C   0  0  1  0  0  0  0  0  0  0  0  0
    2.2337    2.5502    3.2410 C   0  0  0  0  0  0  0  0  0  0  0  0
    2.4761    3.7001    3.7297 O   0  0  0  0  0  0  0  0  0  0  0  0
    2.5775    2.1725    2.1002 O   0  0  0  0  0  0  0  0  0  0  0  0
   -0.8873    0.5263    1.5886 H   0  0  0  0  0  0  0  0  0  0  0  0
    0.4002    1.6429    1.2768 H   0  0  0  0  0  0  0  0  0  0  0  0
   -0.8769    2.1340    2.3645 H   0  0  0  0  0  0  0  0  0  0  0  0
   -0.5981    0.0767    5.3142 H   0  0  0  0  0  0  0  0  0  0  0  0
   -1.4696   -0.3594    3.8563 H   0  0  0  0  0  0  0  0  0  0  0  0
   -1.4421    1.2762    4.4144 H   0  0  0  0  0  0  0  0  0  0  0  0
    0.6204   -1.4048    2.8854 H   0  0  0  0  0  0  0  0  0  0  0  0
    1.8160   -0.3689    2.1891 H   0  0  0  0  0  0  0  0  0  0  0  0
    2.2475   -1.7735    6.3086 H   0  0  0  0  0  0  0  0  0  0  0  0
    0.7128   -1.3428    5.9158 H   0  0  0  0  0  0  0  0  0  0  0  0
    1.0415   -3.7596    5.7283 H   0  0  0  0  0  0  0  0  0  0  0  0
    0.3432   -3.0286    4.3276 H   0  0  0  0  0  0  0  0  0  0  0  0
    2.4849   -5.5648    2.9131 H   0  0  0  0  0  0  0  0  0  0  0  0
    1.0129   -4.6325    2.5792 H   0  0  0  0  0  0  0  0  0  0  0  0
    1.1768   -5.5245    4.1016 H   0  0  0  0  0  0  0  0  0  0  0  0
    3.8455   -3.6332    5.5523 H   0  0  0  0  0  0  0  0  0  0  0  0
    4.2135   -4.8235    4.2376 H   0  0  0  0  0  0  0  0  0  0  0  0
    2.4316   -3.7591    0.3888 H   0  0  0  0  0  0  0  0  0  0  0  0
    2.5730   -2.0173    0.3771 H   0  0  0  0  0  0  0  0  0  0  0  0
    1.7008   -2.7998    1.6319 H   0  0  0  0  0  0  0  0  0  0  0  0
    5.2079   -4.6476    2.3990 H   0  0  0  0  0  0  0  0  0  0  0  0
    3.8743   -5.1721    1.3809 H   0  0  0  0  0  0  0  0  0  0  0  0
    6.4332   -4.6113    0.5842 H   0  0  0  0  0  0  0  0  0  0  0  0
    5.3224   -5.6907   -1.1011 H   0  0  0  0  0  0  0  0  0  0  0  0
    3.8972   -4.6934   -0.9770 H   0  0  0  0  0  0  0  0  0  0  0  0
    6.5812   -3.8472   -2.1302 H   0  0  0  0  0  0  0  0  0  0  0  0
    4.0647   -4.1136   -3.1990 H   0  0  0  0  0  0  0  0  0  0  0  0
    6.1849   -1.7062   -1.7175 H   0  0  0  0  0  0  0  0  0  0  0  0
    2.3819   -2.8767   -1.8900 H   0  0  0  0  0  0  0  0  0  0  0  0
    1.9405   -1.8678   -4.2510 H   0  0  0  0  0  0  0  0  0  0  0  0
    3.7498   -0.8282   -0.8741 H   0  0  0  0  0  0  0  0  0  0  0  0
    7.3928   -1.1995    0.3634 H   0  0  0  0  0  0  0  0  0  0  0  0
    7.8225   -2.7270   -0.4390 H   0  0  0  0  0  0  0  0  0  0  0  0
    7.6010   -2.6983    1.2771 H   0  0  0  0  0  0  0  0  0  0  0  0
    5.6812   -2.1677    2.2033 H   0  0  0  0  0  0  0  0  0  0  0  0
    5.3471    0.0720    1.0895 H   0  0  0  0  0  0  0  0  0  0  0  0
    3.6311   -0.3039    1.0614 H   0  0  0  0  0  0  0  0  0  0  0  0
    5.5611   -0.2560    3.3788 H   0  0  0  0  0  0  0  0  0  0  0  0
    4.1693    0.6930    3.2284 H   0  0  0  0  0  0  0  0  0  0  0  0
    5.5357   -1.6246    5.0647 H   0  0  0  0  0  0  0  0  0  0  0  0
    4.1784   -1.6691    6.1430 H   0  0  0  0  0  0  0  0  0  0  0  0
    4.6662   -0.1515    5.5152 H   0  0  0  0  0  0  0  0  0  0  0  0
    0.9223    2.1890    4.9019 H   0  0  0  0  0  0  0  0  0  0  0  0
  1  2  1  0
  1 38  1  0
  1 39  1  0
  1 40  1  0
  2 34  1  0
  2  3  1  0
  2  4  1  0
  3 41  1  0
  3 42  1  0
  3 43  1  0
  4  5  1  0
  4 44  1  0
  4 45  1  0
  5 31  1  0
  5  6  1  0
  5 33  1  1
  6  7  1  0
  6 46  1  0
  6 47  1  0
  7  8  1  0
  7 48  1  0
  7 49  1  0
  8 11  1  0
  8  9  1  6
  8 10  1  0
  9 50  1  0
  9 51  1  0
  9 52  1  0
 11 10  1  1
 10 53  1  0
 10 54  1  0
 11 31  1  0
 11 12  1  0
 12 28  1  0
 12 13  1  6
 12 14  1  0
 13 55  1  0
 13 56  1  0
 13 57  1  0
 14 15  1  0
 14 58  1  0
 14 59  1  0
 15 26  1  0
 15 16  1  0
 15 60  1  1
 16 17  1  0
 16 61  1  0
 16 62  1  0
 17 18  1  0
 17 19  1  0
 17 63  1  6
 18 64  1  0
 19 26  1  0
 19 65  1  6
 19 20  1  0
 20 25  1  0
 20 21  1  0
 20 68  1  1
 21 66  1  0
 21 22  2  0
 22 67  1  0
 22 23  1  0
 23 24  2  0
 23 25  1  0
 26 27  1  1
 26 28  1  0
 27 69  1  0
 27 70  1  0
 27 71  1  0
 28 29  1  0
 28 72  1  1
 29 30  1  0
 29 73  1  0
 29 74  1  0
 30 31  1  0
 30 75  1  0
 30 76  1  0
 31 32  1  1
 32 77  1  0
 32 78  1  0
 32 79  1  0
 33 34  1  0
 34 35  1  0
 34 80  1  1
 35 36  2  0
 35 37  1  0
M  CHG  1  37  -1
M  END
>  <i_m_ct_stereo_status>  (289) 
1

>  <s_m_source_file>  (289) 
/var/tmp/pbs.5076255.sched01/tmptpdlle0r/921kky2sk3.sdf

>  <i_m_source_file_index>  (289) 
36

>  <i_lp_mmshare_version>  (289) 
48012

>  <i_f3d_flags>  (289) 
0

>  <s_epik_input>  (289) 
Tz1DKFtPSF0pW0NASF0oTzEpQyhbQ0gzXSkoW0NIM10pW0NIMl1bQ0BAXTEyW0NAQF0zKFtDSDNdKVtDQEBdNChDKFtDSDNdKShbQ0gyXTQpW0NIMl1bQ0gyXTIpW0NAQF01KFtDSDNdKVtDQEhdKFtDSDJdW0NIMl0zKVtDQEBdNihbQ0gzXSlbQ0BASF0oW0NIMl01KVtDSDJdW0NAQEhdKFtPSF0pW0NASF02YzdbY0hdW2NIXWMobzcpW09IXQ==

>  <s_epik_cmdline>  (289) 
J2VwaWtfcHl0aG9uJywgJy1waHQnLCAnMi4wJywgJy1waCcsICc3LjAnLCAnLXRuJywgJzgnLCAnLW1hJywgJzIwMCcsICctaW1hZScsICc8aW5maWxlLm1hZT4nLCAnLW9tYWUnLCAnPG91dGZpbGUubWFlPic=

>  <r_lp_tautomer_probability>  (289) 
0.999841

>  <r_epik_Ionization_Penalty>  (289) 
0.000829641

>  <r_epik_Ionization_Penalty_Charging>  (289) 
0.000829488

>  <r_epik_Ionization_Penalty_Neutral>  (289) 
1.52874e-07

>  <r_epik_State_Penalty>  (289) 
0.00053395

>  <r_epik_Charging_Adjusted_Penalty>  (289) 
0.00136344

>  <i_epik_Tot_Q>  (289) 
-1

>  <i_epik_Tot_abs_Q>  (289) 
1

>  <s_epik_Chemistry_Notes>  (289) 
This compound has an ester and may undergo hydrolysis at high or low pH.

>  <s_lp_Force_Field>  (289) 
OPLS3e

>  <r_lp_Energy>  (289) 
92.8928

>  <b_lp_Chiralities_Consistent>  (289) 
1

>  <s_lp_Variant>  (289) 
80:0-1

>  <s_i_glide_gridfile>  (289) 
pfpi4k_grid

>  <i_i_glide_lignum>  (289) 
36

>  <i_i_glide_rotatable_bonds>  (289) 
3

>  <r_i_docking_score>  (289) 
-3.39873

>  <r_i_glide_ligand_efficiency>  (289) 
-0.0918575

>  <r_i_glide_ligand_efficiency_sa>  (289) 
-0.30609

>  <r_i_glide_ligand_efficiency_ln>  (289) 
-0.737104

>  <r_i_glide_gscore>  (289) 
-3.39873

>  <r_i_glide_lipo>  (289) 
-0.744736

>  <r_i_glide_hbond>  (289) 
0

>  <r_i_glide_metal>  (289) 
-0

>  <r_i_glide_rewards>  (289) 
-0.343453

>  <r_i_glide_evdw>  (289) 
-40.9638

>  <r_i_glide_ecoul>  (289) 
-2.09382

>  <r_i_glide_erotb>  (289) 
0.0782816

>  <r_i_glide_esite>  (289) 
-0.0265572

>  <r_i_glide_emodel>  (289) 
-46.5501

>  <r_i_glide_energy>  (289) 
-43.0576

>  <r_i_glide_einternal>  (289) 
4.22989

>  <r_i_glide_intrahb_reward>  (289) 
-0

>  <i_i_glide_confnum>  (289) 
1

>  <i_i_glide_posenum>  (289) 
2

>  <r_i_glide_eff_state_penalty>  (289) 
0

>  <ligand_id>  (289) 
80

>  <original_smiles>  (289) 
CC1(C)CC2(CCC3(C)CC34C3(C)CC5CC(O)C(c6ccc(O)o6)C5(C)C3CCC24C)OC1C(=O)O

>  <smiles>  (289) 
[H]OC1([H])C([H])([H])C2([H])C([H])([H])C3(C([H])([H])[H])C([H])(C([H])([H])C([H])([H])C4(C([H])([H])[H])C5(OC([H])(C(=O)[O-])C(C([H])([H])[H])(C([H])([H])[H])C5([H])[H])C([H])([H])C([H])([H])C5(C([H])([H])[H])C([H])([H])C534)C2(C([H])([H])[H])C1([H])C1([H])OC(=O)C([H])=C1[H]

$$$$
80:0:1
     RDKit          3D

 80 86  0  0  1  0  0  0  0  0999 V2000
    0.5400   -4.5343    4.8075 C   0  0  0  0  0  0  0  0  0  0  0  0
    0.2865   -5.7918    5.6685 C   0  0  0  0  0  0  0  0  0  0  0  0
   -0.8866   -6.5833    5.0787 C   0  0  0  0  0  0  0  0  0  0  0  0
    1.5380   -6.6632    5.6190 C   0  0  0  0  0  0  0  0  0  0  0  0
    2.0157   -6.8414    7.0818 C   0  0  1  0  0  0  0  0  0  0  0  0
    1.4600   -8.1558    7.6983 C   0  0  0  0  0  0  0  0  0  0  0  0
    1.9644   -9.4253    7.0176 C   0  0  0  0  0  0  0  0  0  0  0  0
    3.4303   -9.4315    6.6212 C   0  0  2  0  0  0  0  0  0  0  0  0
    3.6288  -10.6207    5.6879 C   0  0  0  0  0  0  0  0  0  0  0  0
    4.5180   -9.2491    7.6117 C   0  0  0  0  0  0  0  0  0  0  0  0
    4.2470   -8.0908    6.6165 C   0  0  1  0  0  0  0  0  0  0  0  0
    5.1769   -7.8428    5.3552 C   0  0  2  0  0  0  0  0  0  0  0  0
    4.3351   -7.9692    4.0623 C   0  0  0  0  0  0  0  0  0  0  0  0
    6.4409   -8.7513    5.2409 C   0  0  0  0  0  0  0  0  0  0  0  0
    7.5609   -7.9629    4.5398 C   0  0  1  0  0  0  0  0  0  0  0  0
    7.8298   -8.3438    3.0878 C   0  0  0  0  0  0  0  0  0  0  0  0
    8.2014   -7.0250    2.4513 C   0  0  1  0  0  0  0  0  0  0  0  0
    8.2267   -7.1135    1.0488 O   0  0  0  0  0  0  0  0  0  0  0  0
    7.2937   -5.9666    3.0876 C   0  0  1  0  0  0  0  0  0  0  0  0
    6.0378   -5.4696    2.3037 C   0  0  2  0  0  0  0  0  0  0  0  0
    5.4071   -6.3975    1.2892 C   0  0  0  0  0  0  0  0  0  0  0  0
    5.3571   -5.8222    0.1006 C   0  0  0  0  0  0  0  0  0  0  0  0
    5.9927   -4.5120    0.2090 C   0  0  0  0  0  0  0  0  0  0  0  0
    6.1779   -3.7073   -0.6962 O   0  0  0  0  0  0  0  0  0  0  0  0
    6.3854   -4.3542    1.4837 O   0  0  0  0  0  0  0  0  0  0  0  0
    7.2063   -6.4635    4.5862 C   0  0  2  0  0  0  0  0  0  0  0  0
    8.2855   -5.7213    5.4095 C   0  0  0  0  0  0  0  0  0  0  0  0
    5.8926   -6.4867    5.4266 C   0  0  1  0  0  0  0  0  0  0  0  0
    4.9513   -5.2895    5.4830 C   0  0  0  0  0  0  0  0  0  0  0  0
    4.1866   -5.3937    6.8023 C   0  0  0  0  0  0  0  0  0  0  0  0
    3.5829   -6.7880    7.2586 C   0  0  1  0  0  0  0  0  0  0  0  0
    3.8909   -6.7018    8.7956 C   0  0  0  0  0  0  0  0  0  0  0  0
    1.3836   -5.7466    7.7557 O   0  0  0  0  0  0  0  0  0  0  0  0
    0.0895   -5.4989    7.1931 C   0  0  1  0  0  0  0  0  0  0  0  0
   -0.5069   -4.1048    7.5387 C   0  0  0  0  0  0  0  0  0  0  0  0
   -1.6944   -3.8636    7.2219 O   0  0  0  0  0  0  0  0  0  0  0  0
    0.1777   -3.2995    8.2148 O   0  0  0  0  0  0  0  0  0  0  0  0
    0.8235   -4.7726    3.7844 H   0  0  0  0  0  0  0  0  0  0  0  0
    1.3376   -3.9328    5.2421 H   0  0  0  0  0  0  0  0  0  0  0  0
   -0.3454   -3.9017    4.7385 H   0  0  0  0  0  0  0  0  0  0  0  0
   -0.9377   -7.5611    5.5571 H   0  0  0  0  0  0  0  0  0  0  0  0
   -0.8084   -6.7891    4.0065 H   0  0  0  0  0  0  0  0  0  0  0  0
   -1.8174   -6.0536    5.2781 H   0  0  0  0  0  0  0  0  0  0  0  0
    1.3309   -7.6091    5.1281 H   0  0  0  0  0  0  0  0  0  0  0  0
    2.3046   -6.2092    4.9992 H   0  0  0  0  0  0  0  0  0  0  0  0
    1.6394   -8.2172    8.7672 H   0  0  0  0  0  0  0  0  0  0  0  0
    0.3868   -8.2027    7.6264 H   0  0  0  0  0  0  0  0  0  0  0  0
    1.7762  -10.2677    7.6780 H   0  0  0  0  0  0  0  0  0  0  0  0
    1.3767   -9.6259    6.1197 H   0  0  0  0  0  0  0  0  0  0  0  0
    4.6832  -10.8491    5.5537 H   0  0  0  0  0  0  0  0  0  0  0  0
    3.1771  -10.4303    4.7160 H   0  0  0  0  0  0  0  0  0  0  0  0
    3.1532  -11.5116    6.1057 H   0  0  0  0  0  0  0  0  0  0  0  0
    4.1701   -9.2309    8.6365 H   0  0  0  0  0  0  0  0  0  0  0  0
    5.3930   -9.8842    7.4988 H   0  0  0  0  0  0  0  0  0  0  0  0
    4.7810   -8.6733    3.3660 H   0  0  0  0  0  0  0  0  0  0  0  0
    4.2068   -7.0303    3.5405 H   0  0  0  0  0  0  0  0  0  0  0  0
    3.3226   -8.3165    4.2478 H   0  0  0  0  0  0  0  0  0  0  0  0
    6.8235   -8.9791    6.2325 H   0  0  0  0  0  0  0  0  0  0  0  0
    6.2526   -9.6934    4.7328 H   0  0  0  0  0  0  0  0  0  0  0  0
    8.4830   -8.1420    5.0878 H   0  0  0  0  0  0  0  0  0  0  0  0
    8.6461   -9.0599    3.0121 H   0  0  0  0  0  0  0  0  0  0  0  0
    6.9542   -8.7668    2.6017 H   0  0  0  0  0  0  0  0  0  0  0  0
    9.2288   -6.7827    2.7264 H   0  0  0  0  0  0  0  0  0  0  0  0
    9.0714   -7.4513    0.8250 H   0  0  0  0  0  0  0  0  0  0  0  0
    7.9368   -5.0885    3.0782 H   0  0  0  0  0  0  0  0  0  0  0  0
    5.0690   -7.3995    1.5052 H   0  0  0  0  0  0  0  0  0  0  0  0
    4.9688   -6.2455   -0.8145 H   0  0  0  0  0  0  0  0  0  0  0  0
    5.2702   -5.1238    2.9786 H   0  0  0  0  0  0  0  0  0  0  0  0
    8.0064   -4.6748    5.5376 H   0  0  0  0  0  0  0  0  0  0  0  0
    9.2549   -5.7553    4.9095 H   0  0  0  0  0  0  0  0  0  0  0  0
    8.4294   -6.1488    6.4049 H   0  0  0  0  0  0  0  0  0  0  0  0
    6.2810   -6.5098    6.4431 H   0  0  0  0  0  0  0  0  0  0  0  0
    5.5056   -4.3459    5.4424 H   0  0  0  0  0  0  0  0  0  0  0  0
    4.2190   -5.2566    4.6839 H   0  0  0  0  0  0  0  0  0  0  0  0
    4.8786   -5.0003    7.5563 H   0  0  0  0  0  0  0  0  0  0  0  0
    3.3868   -4.6651    6.7566 H   0  0  0  0  0  0  0  0  0  0  0  0
    4.9669   -6.7192    8.9913 H   0  0  0  0  0  0  0  0  0  0  0  0
    3.4315   -7.4660    9.4070 H   0  0  0  0  0  0  0  0  0  0  0  0
    3.4967   -5.7635    9.1769 H   0  0  0  0  0  0  0  0  0  0  0  0
   -0.5906   -6.2323    7.6517 H   0  0  0  0  0  0  0  0  0  0  0  0
  1  2  1  0
  1 38  1  0
  1 39  1  0
  1 40  1  0
  2 34  1  0
  2  3  1  0
  2  4  1  0
  3 41  1  0
  3 42  1  0
  3 43  1  0
  4  5  1  0
  4 44  1  0
  4 45  1  0
  5 31  1  0
  5  6  1  0
  5 33  1  1
  6  7  1  0
  6 46  1  0
  6 47  1  0
  7  8  1  0
  7 48  1  0
  7 49  1  0
  8 11  1  0
  8  9  1  6
  8 10  1  0
  9 50  1  0
  9 51  1  0
  9 52  1  0
 11 10  1  1
 10 53  1  0
 10 54  1  0
 11 31  1  0
 11 12  1  0
 12 28  1  0
 12 13  1  6
 12 14  1  0
 13 55  1  0
 13 56  1  0
 13 57  1  0
 14 15  1  0
 14 58  1  0
 14 59  1  0
 15 26  1  0
 15 16  1  0
 15 60  1  1
 16 17  1  0
 16 61  1  0
 16 62  1  0
 17 18  1  0
 17 19  1  0
 17 63  1  1
 18 64  1  0
 19 26  1  0
 19 65  1  1
 19 20  1  0
 20 25  1  0
 20 21  1  0
 20 68  1  1
 21 66  1  0
 21 22  2  0
 22 67  1  0
 22 23  1  0
 23 24  2  0
 23 25  1  0
 26 27  1  1
 26 28  1  0
 27 69  1  0
 27 70  1  0
 27 71  1  0
 28 29  1  0
 28 72  1  1
 29 30  1  0
 29 73  1  0
 29 74  1  0
 30 31  1  0
 30 75  1  0
 30 76  1  0
 31 32  1  1
 32 77  1  0
 32 78  1  0
 32 79  1  0
 33 34  1  0
 34 35  1  0
 34 80  1  1
 35 36  2  0
 35 37  1  0
M  CHG  1  37  -1
M  END
>  <i_m_ct_stereo_status>  (290) 
1

>  <s_m_source_file>  (290) 
/var/tmp/pbs.5076255.sched01/tmptpdlle0r/921kky2sk3.sdf

>  <i_m_source_file_index>  (290) 
36

>  <i_lp_mmshare_version>  (290) 
48012

>  <i_f3d_flags>  (290) 
0

>  <s_epik_input>  (290) 
Tz1DKFtPSF0pW0NASF0oTzEpQyhbQ0gzXSkoW0NIM10pW0NIMl1bQ0BAXTEyW0NAQF0zKFtDSDNdKVtDQEBdNChDKFtDSDNdKShbQ0gyXTQpW0NIMl1bQ0gyXTIpW0NAQF01KFtDSDNdKVtDQEhdKFtDSDJdW0NIMl0zKVtDQEBdNihbQ0gzXSlbQ0BASF0oW0NIMl01KVtDSDJdW0NAQEhdKFtPSF0pW0NASF02YzdbY0hdW2NIXWMobzcpW09IXQ==

>  <s_epik_cmdline>  (290) 
J2VwaWtfcHl0aG9uJywgJy1waHQnLCAnMi4wJywgJy1waCcsICc3LjAnLCAnLXRuJywgJzgnLCAnLW1hJywgJzIwMCcsICctaW1hZScsICc8aW5maWxlLm1hZT4nLCAnLW9tYWUnLCAnPG91dGZpbGUubWFlPic=

>  <r_lp_tautomer_probability>  (290) 
0.999841

>  <r_epik_Ionization_Penalty>  (290) 
0.000829641

>  <r_epik_Ionization_Penalty_Charging>  (290) 
0.000829488

>  <r_epik_Ionization_Penalty_Neutral>  (290) 
1.52874e-07

>  <r_epik_State_Penalty>  (290) 
0.00053395

>  <r_epik_Charging_Adjusted_Penalty>  (290) 
0.00136344

>  <i_epik_Tot_Q>  (290) 
-1

>  <i_epik_Tot_abs_Q>  (290) 
1

>  <s_epik_Chemistry_Notes>  (290) 
This compound has an ester and may undergo hydrolysis at high or low pH.

>  <s_lp_Force_Field>  (290) 
OPLS3e

>  <r_lp_Energy>  (290) 
92.8928

>  <b_lp_Chiralities_Consistent>  (290) 
1

>  <s_lp_Variant>  (290) 
80:0-1

>  <s_i_glide_gridfile>  (290) 
pfpi4k_grid

>  <i_i_glide_lignum>  (290) 
36

>  <i_i_glide_rotatable_bonds>  (290) 
3

>  <r_i_docking_score>  (290) 
-2.1357

>  <r_i_glide_ligand_efficiency>  (290) 
-0.0577215

>  <r_i_glide_ligand_efficiency_sa>  (290) 
-0.192341

>  <r_i_glide_ligand_efficiency_ln>  (290) 
-0.463183

>  <r_i_glide_gscore>  (290) 
-2.1357

>  <r_i_glide_lipo>  (290) 
-0.227753

>  <r_i_glide_hbond>  (290) 
0

>  <r_i_glide_metal>  (290) 
-0

>  <r_i_glide_rewards>  (290) 
-0.115726

>  <r_i_glide_evdw>  (290) 
-18.5431

>  <r_i_glide_ecoul>  (290) 
-6.12806

>  <r_i_glide_erotb>  (290) 
0.0782816

>  <r_i_glide_esite>  (290) 
-0.0241381

>  <r_i_glide_emodel>  (290) 
-27.2589

>  <r_i_glide_energy>  (290) 
-24.6711

>  <r_i_glide_einternal>  (290) 
2.42521

>  <r_i_glide_intrahb_reward>  (290) 
-0

>  <i_i_glide_confnum>  (290) 
5

>  <i_i_glide_posenum>  (290) 
33

>  <r_i_glide_eff_state_penalty>  (290) 
0

>  <ligand_id>  (290) 
80

>  <original_smiles>  (290) 
CC1(C)CC2(CCC3(C)CC34C3(C)CC5CC(O)C(c6ccc(O)o6)C5(C)C3CCC24C)OC1C(=O)O

>  <smiles>  (290) 
[H]OC1([H])C([H])([H])C2([H])C([H])([H])C3(C([H])([H])[H])C([H])(C([H])([H])C([H])([H])C4(C([H])([H])[H])C5(OC([H])(C(=O)[O-])C(C([H])([H])[H])(C([H])([H])[H])C5([H])[H])C([H])([H])C([H])([H])C5(C([H])([H])[H])C([H])([H])C534)C2(C([H])([H])[H])C1([H])C1([H])OC(=O)C([H])=C1[H]

$$$$
80:0:2
     RDKit          3D

 80 86  0  0  1  0  0  0  0  0999 V2000
    0.1920   -3.0764    6.7998 C   0  0  0  0  0  0  0  0  0  0  0  0
   -0.1552   -4.3501    7.6021 C   0  0  0  0  0  0  0  0  0  0  0  0
   -1.6780   -4.5705    7.5555 C   0  0  0  0  0  0  0  0  0  0  0  0
    0.6063   -5.5315    6.9904 C   0  0  0  0  0  0  0  0  0  0  0  0
    1.5079   -6.1180    8.1040 C   0  0  1  0  0  0  0  0  0  0  0  0
    0.7928   -7.2866    8.8338 C   0  0  0  0  0  0  0  0  0  0  0  0
    0.5390   -8.5032    7.9374 C   0  0  0  0  0  0  0  0  0  0  0  0
    1.6566   -8.8638    6.9625 C   0  0  2  0  0  0  0  0  0  0  0  0
    1.0699   -9.8452    5.9443 C   0  0  0  0  0  0  0  0  0  0  0  0
    3.0225   -9.2016    7.4228 C   0  0  0  0  0  0  0  0  0  0  0  0
    2.8298   -7.8496    6.7012 C   0  0  1  0  0  0  0  0  0  0  0  0
    3.2513   -7.6463    5.1844 C   0  0  2  0  0  0  0  0  0  0  0  0
    1.9989   -7.2697    4.3434 C   0  0  0  0  0  0  0  0  0  0  0  0
    3.9835   -8.8465    4.5102 C   0  0  0  0  0  0  0  0  0  0  0  0
    4.9797   -8.3030    3.4572 C   0  0  1  0  0  0  0  0  0  0  0  0
    4.5539   -8.4557    1.9964 C   0  0  0  0  0  0  0  0  0  0  0  0
    5.1207   -7.2090    1.3416 C   0  0  1  0  0  0  0  0  0  0  0  0
    4.5651   -7.0318    0.0754 O   0  0  0  0  0  0  0  0  0  0  0  0
    4.9565   -6.0489    2.3521 C   0  0  1  0  0  0  0  0  0  0  0  0
    3.7143   -5.1093    2.1720 C   0  0  2  0  0  0  0  0  0  0  0  0
    3.5748   -4.4019    0.8403 C   0  0  0  0  0  0  0  0  0  0  0  0
    3.5743   -3.0780    0.9834 C   0  0  0  0  0  0  0  0  0  0  0  0
    3.7416   -2.7947    2.4013 C   0  0  0  0  0  0  0  0  0  0  0  0
    3.7698   -1.6847    2.9285 O   0  0  0  0  0  0  0  0  0  0  0  0
    3.8323   -3.9820    3.0379 O   0  0  0  0  0  0  0  0  0  0  0  0
    5.2203   -6.7957    3.7291 C   0  0  2  0  0  0  0  0  0  0  0  0
    6.7169   -6.5734    4.0710 C   0  0  0  0  0  0  0  0  0  0  0  0
    4.3806   -6.6068    5.0460 C   0  0  1  0  0  0  0  0  0  0  0  0
    3.9866   -5.2334    5.5639 C   0  0  0  0  0  0  0  0  0  0  0  0
    3.7702   -5.3320    7.0613 C   0  0  0  0  0  0  0  0  0  0  0  0
    2.9486   -6.5574    7.6341 C   0  0  1  0  0  0  0  0  0  0  0  0
    3.8066   -6.8506    8.9184 C   0  0  0  0  0  0  0  0  0  0  0  0
    1.6140   -5.0258    9.0216 O   0  0  0  0  0  0  0  0  0  0  0  0
    0.3694   -4.3233    9.0675 C   0  0  1  0  0  0  0  0  0  0  0  0
    0.4814   -2.9206    9.6856 C   0  0  0  0  0  0  0  0  0  0  0  0
   -0.5791   -2.2624    9.7558 O   0  0  0  0  0  0  0  0  0  0  0  0
    1.6053   -2.5250   10.0692 O   0  0  0  0  0  0  0  0  0  0  0  0
   -0.0102   -3.1871    5.7374 H   0  0  0  0  0  0  0  0  0  0  0  0
    1.2489   -2.8300    6.9063 H   0  0  0  0  0  0  0  0  0  0  0  0
   -0.3790   -2.2109    7.1371 H   0  0  0  0  0  0  0  0  0  0  0  0
   -1.9777   -5.4561    8.1017 H   0  0  0  0  0  0  0  0  0  0  0  0
   -2.0393   -4.6821    6.5340 H   0  0  0  0  0  0  0  0  0  0  0  0
   -2.2169   -3.7404    8.0056 H   0  0  0  0  0  0  0  0  0  0  0  0
   -0.0785   -6.2654    6.5754 H   0  0  0  0  0  0  0  0  0  0  0  0
    1.2030   -5.1982    6.1462 H   0  0  0  0  0  0  0  0  0  0  0  0
    1.3304   -7.5903    9.7273 H   0  0  0  0  0  0  0  0  0  0  0  0
   -0.1755   -6.9715    9.2071 H   0  0  0  0  0  0  0  0  0  0  0  0
    0.2923   -9.3732    8.5483 H   0  0  0  0  0  0  0  0  0  0  0  0
   -0.3546   -8.3138    7.3476 H   0  0  0  0  0  0  0  0  0  0  0  0
    1.8469  -10.3549    5.3808 H   0  0  0  0  0  0  0  0  0  0  0  0
    0.3895   -9.3564    5.2490 H   0  0  0  0  0  0  0  0  0  0  0  0
    0.4974  -10.6222    6.4529 H   0  0  0  0  0  0  0  0  0  0  0  0
    3.1158   -9.2795    8.4982 H   0  0  0  0  0  0  0  0  0  0  0  0
    3.5141  -10.0267    6.9226 H   0  0  0  0  0  0  0  0  0  0  0  0
    1.8875   -7.8982    3.4604 H   0  0  0  0  0  0  0  0  0  0  0  0
    1.9916   -6.2397    4.0172 H   0  0  0  0  0  0  0  0  0  0  0  0
    1.0768   -7.3628    4.9081 H   0  0  0  0  0  0  0  0  0  0  0  0
    4.5975   -9.3803    5.2361 H   0  0  0  0  0  0  0  0  0  0  0  0
    3.3145   -9.5827    4.0652 H   0  0  0  0  0  0  0  0  0  0  0  0
    5.9129   -8.8612    3.5666 H   0  0  0  0  0  0  0  0  0  0  0  0
    4.9591   -9.3646    1.5458 H   0  0  0  0  0  0  0  0  0  0  0  0
    3.4715   -8.5078    1.8895 H   0  0  0  0  0  0  0  0  0  0  0  0
    6.1903   -7.3740    1.1952 H   0  0  0  0  0  0  0  0  0  0  0  0
    4.9899   -6.2904   -0.3402 H   0  0  0  0  0  0  0  0  0  0  0  0
    5.7933   -5.3753    2.1589 H   0  0  0  0  0  0  0  0  0  0  0  0
    3.4142   -4.9062   -0.0954 H   0  0  0  0  0  0  0  0  0  0  0  0
    3.4342   -2.3316    0.2162 H   0  0  0  0  0  0  0  0  0  0  0  0
    2.7795   -5.6379    2.3156 H   0  0  0  0  0  0  0  0  0  0  0  0
    6.8986   -5.5334    4.3455 H   0  0  0  0  0  0  0  0  0  0  0  0
    7.3599   -6.8077    3.2210 H   0  0  0  0  0  0  0  0  0  0  0  0
    7.0564   -7.1998    4.8988 H   0  0  0  0  0  0  0  0  0  0  0  0
    5.0841   -6.9494    5.8077 H   0  0  0  0  0  0  0  0  0  0  0  0
    4.7799   -4.5133    5.3672 H   0  0  0  0  0  0  0  0  0  0  0  0
    3.0851   -4.8385    5.1154 H   0  0  0  0  0  0  0  0  0  0  0  0
    4.7903   -5.3304    7.4596 H   0  0  0  0  0  0  0  0  0  0  0  0
    3.3575   -4.3902    7.4124 H   0  0  0  0  0  0  0  0  0  0  0  0
    4.7996   -7.2251    8.6533 H   0  0  0  0  0  0  0  0  0  0  0  0
    3.3820   -7.5548    9.6259 H   0  0  0  0  0  0  0  0  0  0  0  0
    3.9526   -5.9335    9.4943 H   0  0  0  0  0  0  0  0  0  0  0  0
   -0.2979   -4.8848    9.7336 H   0  0  0  0  0  0  0  0  0  0  0  0
  1  2  1  0
  1 38  1  0
  1 39  1  0
  1 40  1  0
  2 34  1  0
  2  3  1  0
  2  4  1  0
  3 41  1  0
  3 42  1  0
  3 43  1  0
  4  5  1  0
  4 44  1  0
  4 45  1  0
  5 31  1  0
  5  6  1  0
  5 33  1  1
  6  7  1  0
  6 46  1  0
  6 47  1  0
  7  8  1  0
  7 48  1  0
  7 49  1  0
  8 11  1  0
  8  9  1  6
  8 10  1  0
  9 50  1  0
  9 51  1  0
  9 52  1  0
 11 10  1  1
 10 53  1  0
 10 54  1  0
 11 31  1  0
 11 12  1  0
 12 28  1  0
 12 13  1  6
 12 14  1  0
 13 55  1  0
 13 56  1  0
 13 57  1  0
 14 15  1  0
 14 58  1  0
 14 59  1  0
 15 26  1  0
 15 16  1  0
 15 60  1  6
 16 17  1  0
 16 61  1  0
 16 62  1  0
 17 18  1  0
 17 19  1  0
 17 63  1  6
 18 64  1  0
 19 26  1  0
 19 65  1  6
 19 20  1  0
 20 25  1  0
 20 21  1  0
 20 68  1  1
 21 66  1  0
 21 22  2  0
 22 67  1  0
 22 23  1  0
 23 24  2  0
 23 25  1  0
 26 27  1  1
 26 28  1  0
 27 69  1  0
 27 70  1  0
 27 71  1  0
 28 29  1  0
 28 72  1  1
 29 30  1  0
 29 73  1  0
 29 74  1  0
 30 31  1  0
 30 75  1  0
 30 76  1  0
 31 32  1  1
 32 77  1  0
 32 78  1  0
 32 79  1  0
 33 34  1  0
 34 35  1  0
 34 80  1  1
 35 36  2  0
 35 37  1  0
M  CHG  1  37  -1
M  END
>  <i_m_ct_stereo_status>  (291) 
1

>  <s_m_source_file>  (291) 
/var/tmp/pbs.5076255.sched01/tmptpdlle0r/921kky2sk3.sdf

>  <i_m_source_file_index>  (291) 
36

>  <i_lp_mmshare_version>  (291) 
48012

>  <i_f3d_flags>  (291) 
0

>  <s_epik_input>  (291) 
Tz1DKFtPSF0pW0NASF0oTzEpQyhbQ0gzXSkoW0NIM10pW0NIMl1bQ0BAXTEyW0NAQF0zKFtDSDNdKVtDQEBdNChDKFtDSDNdKShbQ0gyXTQpW0NIMl1bQ0gyXTIpW0NAQF01KFtDSDNdKVtDQEhdKFtDSDJdW0NIMl0zKVtDQEBdNihbQ0gzXSlbQ0BASF0oW0NIMl01KVtDSDJdW0NAQEhdKFtPSF0pW0NASF02YzdbY0hdW2NIXWMobzcpW09IXQ==

>  <s_epik_cmdline>  (291) 
J2VwaWtfcHl0aG9uJywgJy1waHQnLCAnMi4wJywgJy1waCcsICc3LjAnLCAnLXRuJywgJzgnLCAnLW1hJywgJzIwMCcsICctaW1hZScsICc8aW5maWxlLm1hZT4nLCAnLW9tYWUnLCAnPG91dGZpbGUubWFlPic=

>  <r_lp_tautomer_probability>  (291) 
0.999841

>  <r_epik_Ionization_Penalty>  (291) 
0.000829641

>  <r_epik_Ionization_Penalty_Charging>  (291) 
0.000829488

>  <r_epik_Ionization_Penalty_Neutral>  (291) 
1.52874e-07

>  <r_epik_State_Penalty>  (291) 
0.00053395

>  <r_epik_Charging_Adjusted_Penalty>  (291) 
0.00136344

>  <i_epik_Tot_Q>  (291) 
-1

>  <i_epik_Tot_abs_Q>  (291) 
1

>  <s_epik_Chemistry_Notes>  (291) 
This compound has an ester and may undergo hydrolysis at high or low pH.

>  <s_lp_Force_Field>  (291) 
OPLS3e

>  <r_lp_Energy>  (291) 
92.8928

>  <b_lp_Chiralities_Consistent>  (291) 
1

>  <s_lp_Variant>  (291) 
80:0-1

>  <s_i_glide_gridfile>  (291) 
pfpi4k_grid

>  <i_i_glide_lignum>  (291) 
36

>  <i_i_glide_rotatable_bonds>  (291) 
3

>  <r_i_docking_score>  (291) 
-1.99721

>  <r_i_glide_ligand_efficiency>  (291) 
-0.0539786

>  <r_i_glide_ligand_efficiency_sa>  (291) 
-0.179869

>  <r_i_glide_ligand_efficiency_ln>  (291) 
-0.433148

>  <r_i_glide_gscore>  (291) 
-1.99721

>  <r_i_glide_lipo>  (291) 
-0.152636

>  <r_i_glide_hbond>  (291) 
-0.2

>  <r_i_glide_metal>  (291) 
-0

>  <r_i_glide_rewards>  (291) 
-0.00102832

>  <r_i_glide_evdw>  (291) 
-22.5622

>  <r_i_glide_ecoul>  (291) 
-3.79355

>  <r_i_glide_erotb>  (291) 
0.0782816

>  <r_i_glide_esite>  (291) 
-0.0246879

>  <r_i_glide_emodel>  (291) 
-29.6526

>  <r_i_glide_energy>  (291) 
-26.3557

>  <r_i_glide_einternal>  (291) 
1.1014

>  <r_i_glide_intrahb_reward>  (291) 
-0

>  <i_i_glide_confnum>  (291) 
2

>  <i_i_glide_posenum>  (291) 
3

>  <r_i_glide_eff_state_penalty>  (291) 
0

>  <ligand_id>  (291) 
80

>  <original_smiles>  (291) 
CC1(C)CC2(CCC3(C)CC34C3(C)CC5CC(O)C(c6ccc(O)o6)C5(C)C3CCC24C)OC1C(=O)O

>  <smiles>  (291) 
[H]OC1([H])C([H])([H])C2([H])C([H])([H])C3(C([H])([H])[H])C([H])(C([H])([H])C([H])([H])C4(C([H])([H])[H])C5(OC([H])(C(=O)[O-])C(C([H])([H])[H])(C([H])([H])[H])C5([H])[H])C([H])([H])C([H])([H])C5(C([H])([H])[H])C([H])([H])C534)C2(C([H])([H])[H])C1([H])C1([H])OC(=O)C([H])=C1[H]

$$$$
80:1:0
     RDKit          3D

 80 86  0  0  1  0  0  0  0  0999 V2000
    1.4246   -2.7846    7.6441 C   0  0  0  0  0  0  0  0  0  0  0  0
    0.4820   -3.5445    6.6854 C   0  0  0  0  0  0  0  0  0  0  0  0
   -0.4524   -2.5388    6.0006 C   0  0  0  0  0  0  0  0  0  0  0  0
    1.3496   -4.2561    5.6528 C   0  0  0  0  0  0  0  0  0  0  0  0
    1.0819   -5.7876    5.7870 C   0  0  1  0  0  0  0  0  0  0  0  0
   -0.0588   -6.2261    4.7726 C   0  0  0  0  0  0  0  0  0  0  0  0
    0.0278   -7.5830    4.0311 C   0  0  0  0  0  0  0  0  0  0  0  0
    1.0374   -8.4393    4.7150 C   0  0  1  0  0  0  0  0  0  0  0  0
    0.3419   -9.1345    5.8858 C   0  0  0  0  0  0  0  0  0  0  0  0
    2.2630   -9.1609    4.3603 C   0  0  0  0  0  0  0  0  0  0  0  0
    2.4148   -7.6573    4.5614 C   0  0  1  0  0  0  0  0  0  0  0  0
    3.1191   -7.0097    3.2538 C   0  0  2  0  0  0  0  0  0  0  0  0
    2.2784   -5.9171    2.5330 C   0  0  0  0  0  0  0  0  0  0  0  0
    3.6113   -7.9946    2.1548 C   0  0  0  0  0  0  0  0  0  0  0  0
    4.7702   -7.3088    1.3979 C   0  0  1  0  0  0  0  0  0  0  0  0
    4.3253   -6.6004    0.1134 C   0  0  0  0  0  0  0  0  0  0  0  0
    4.9892   -5.2293    0.0817 C   0  0  1  0  0  0  0  0  0  0  0  0
    4.1074   -4.2972   -0.5118 O   0  0  0  0  0  0  0  0  0  0  0  0
    5.4922   -4.9297    1.5290 C   0  0  1  0  0  0  0  0  0  0  0  0
    5.2120   -3.5328    2.1778 C   0  0  2  0  0  0  0  0  0  0  0  0
    3.7725   -3.0679    2.1636 C   0  0  0  0  0  0  0  0  0  0  0  0
    3.6456   -1.9616    1.4302 C   0  0  0  0  0  0  0  0  0  0  0  0
    4.9709   -1.6023    0.9329 C   0  0  0  0  0  0  0  0  0  0  0  0
    5.2696   -0.6614    0.1987 O   0  0  0  0  0  0  0  0  0  0  0  0
    5.8404   -2.5074    1.4120 O   0  0  0  0  0  0  0  0  0  0  0  0
    5.4127   -6.2764    2.3626 C   0  0  2  0  0  0  0  0  0  0  0  0
    6.8481   -6.7400    2.7367 C   0  0  0  0  0  0  0  0  0  0  0  0
    4.4997   -6.4397    3.6344 C   0  0  1  0  0  0  0  0  0  0  0  0
    4.4320   -5.3448    4.7008 C   0  0  0  0  0  0  0  0  0  0  0  0
    3.8233   -5.9591    5.9578 C   0  0  0  0  0  0  0  0  0  0  0  0
    2.4356   -6.7169    5.8359 C   0  0  1  0  0  0  0  0  0  0  0  0
    2.5494   -7.5494    7.1779 C   0  0  0  0  0  0  0  0  0  0  0  0
    0.5147   -5.8480    7.0927 O   0  0  0  0  0  0  0  0  0  0  0  0
   -0.2951   -4.7034    7.3548 C   0  0  1  0  0  0  0  0  0  0  0  0
   -0.5842   -4.5385    8.8552 C   0  0  0  0  0  0  0  0  0  0  0  0
   -1.0742   -3.4264    9.2107 O   0  0  0  0  0  0  0  0  0  0  0  0
   -0.3969   -5.4998    9.6179 O   0  0  0  0  0  0  0  0  0  0  0  0
    2.1112   -2.1237    7.1022 H   0  0  0  0  0  0  0  0  0  0  0  0
    2.0527   -3.4896    8.1935 H   0  0  0  0  0  0  0  0  0  0  0  0
    0.8672   -2.1888    8.3749 H   0  0  0  0  0  0  0  0  0  0  0  0
   -1.1262   -3.0262    5.2923 H   0  0  0  0  0  0  0  0  0  0  0  0
    0.1038   -1.7926    5.4266 H   0  0  0  0  0  0  0  0  0  0  0  0
   -1.0646   -2.0045    6.7253 H   0  0  0  0  0  0  0  0  0  0  0  0
    1.1379   -3.8985    4.6500 H   0  0  0  0  0  0  0  0  0  0  0  0
    2.3960   -3.9798    5.8377 H   0  0  0  0  0  0  0  0  0  0  0  0
   -1.0032   -6.2479    5.2847 H   0  0  0  0  0  0  0  0  0  0  0  0
   -0.1911   -5.4636    4.0196 H   0  0  0  0  0  0  0  0  0  0  0  0
   -0.9547   -8.0806    4.0172 H   0  0  0  0  0  0  0  0  0  0  0  0
    0.2722   -7.4883    2.9782 H   0  0  0  0  0  0  0  0  0  0  0  0
    1.0449   -9.7099    6.4927 H   0  0  0  0  0  0  0  0  0  0  0  0
   -0.3823   -9.8435    5.4970 H   0  0  0  0  0  0  0  0  0  0  0  0
   -0.1875   -8.4207    6.5162 H   0  0  0  0  0  0  0  0  0  0  0  0
    2.7717   -9.7839    5.1010 H   0  0  0  0  0  0  0  0  0  0  0  0
    2.1774   -9.6465    3.3870 H   0  0  0  0  0  0  0  0  0  0  0  0
    2.8883   -5.2603    1.9344 H   0  0  0  0  0  0  0  0  0  0  0  0
    1.8196   -5.2337    3.2310 H   0  0  0  0  0  0  0  0  0  0  0  0
    1.5100   -6.3427    1.8819 H   0  0  0  0  0  0  0  0  0  0  0  0
    4.0426   -8.8962    2.5938 H   0  0  0  0  0  0  0  0  0  0  0  0
    2.8012   -8.3044    1.4962 H   0  0  0  0  0  0  0  0  0  0  0  0
    5.4927   -8.0756    1.1136 H   0  0  0  0  0  0  0  0  0  0  0  0
    4.6021   -7.1883   -0.7624 H   0  0  0  0  0  0  0  0  0  0  0  0
    3.2427   -6.4960    0.0803 H   0  0  0  0  0  0  0  0  0  0  0  0
    5.8510   -5.3006   -0.5879 H   0  0  0  0  0  0  0  0  0  0  0  0
    3.8141   -4.6555   -1.3413 H   0  0  0  0  0  0  0  0  0  0  0  0
    6.5579   -4.8339    1.3530 H   0  0  0  0  0  0  0  0  0  0  0  0
    2.9627   -3.5988    2.6578 H   0  0  0  0  0  0  0  0  0  0  0  0
    2.7340   -1.4306    1.1912 H   0  0  0  0  0  0  0  0  0  0  0  0
    5.6152   -3.5115    3.1916 H   0  0  0  0  0  0  0  0  0  0  0  0
    7.3133   -6.0539    3.4454 H   0  0  0  0  0  0  0  0  0  0  0  0
    7.4977   -6.8009    1.8639 H   0  0  0  0  0  0  0  0  0  0  0  0
    6.8601   -7.7331    3.1902 H   0  0  0  0  0  0  0  0  0  0  0  0
    4.9660   -7.2662    4.1762 H   0  0  0  0  0  0  0  0  0  0  0  0
    5.4328   -4.9672    4.9270 H   0  0  0  0  0  0  0  0  0  0  0  0
    3.8433   -4.4993    4.3799 H   0  0  0  0  0  0  0  0  0  0  0  0
    4.5840   -6.6583    6.3149 H   0  0  0  0  0  0  0  0  0  0  0  0
    3.7636   -5.2187    6.7448 H   0  0  0  0  0  0  0  0  0  0  0  0
    3.2197   -8.3992    7.0815 H   0  0  0  0  0  0  0  0  0  0  0  0
    1.6132   -7.8975    7.5779 H   0  0  0  0  0  0  0  0  0  0  0  0
    2.9301   -6.9220    7.9742 H   0  0  0  0  0  0  0  0  0  0  0  0
   -1.2686   -4.8422    6.8600 H   0  0  0  0  0  0  0  0  0  0  0  0
  1  2  1  0
  1 38  1  0
  1 39  1  0
  1 40  1  0
  2 34  1  0
  2  3  1  0
  2  4  1  0
  3 41  1  0
  3 42  1  0
  3 43  1  0
  4  5  1  0
  4 44  1  0
  4 45  1  0
  5 31  1  0
  5  6  1  0
  5 33  1  1
  6  7  1  0
  6 46  1  0
  6 47  1  0
  7  8  1  0
  7 48  1  0
  7 49  1  0
  8 11  1  0
  8  9  1  1
  8 10  1  0
  9 50  1  0
  9 51  1  0
  9 52  1  0
 11 10  1  1
 10 53  1  0
 10 54  1  0
 11 31  1  0
 11 12  1  0
 12 28  1  0
 12 13  1  6
 12 14  1  0
 13 55  1  0
 13 56  1  0
 13 57  1  0
 14 15  1  0
 14 58  1  0
 14 59  1  0
 15 26  1  0
 15 16  1  0
 15 60  1  6
 16 17  1  0
 16 61  1  0
 16 62  1  0
 17 18  1  0
 17 19  1  0
 17 63  1  6
 18 64  1  0
 19 26  1  0
 19 65  1  6
 19 20  1  0
 20 25  1  0
 20 21  1  0
 20 68  1  1
 21 66  1  0
 21 22  2  0
 22 67  1  0
 22 23  1  0
 23 24  2  0
 23 25  1  0
 26 27  1  1
 26 28  1  0
 27 69  1  0
 27 70  1  0
 27 71  1  0
 28 29  1  0
 28 72  1  1
 29 30  1  0
 29 73  1  0
 29 74  1  0
 30 31  1  0
 30 75  1  0
 30 76  1  0
 31 32  1  1
 32 77  1  0
 32 78  1  0
 32 79  1  0
 33 34  1  0
 34 35  1  0
 34 80  1  6
 35 36  2  0
 35 37  1  0
M  CHG  1  37  -1
M  END
>  <i_m_ct_stereo_status>  (292) 
1

>  <s_m_source_file>  (292) 
/var/tmp/pbs.5076255.sched01/tmptpdlle0r/921kky2sk3.sdf

>  <i_m_source_file_index>  (292) 
37

>  <i_lp_mmshare_version>  (292) 
48012

>  <i_f3d_flags>  (292) 
0

>  <s_epik_input>  (292) 
Tz1DKFtPSF0pW0NASF0oTzEpQyhbQ0gzXSkoW0NIM10pW0NIMl1bQ0BAXTEyW0NAQF0zKFtDSDNdKVtDQEBdNChDKFtDSDNdKShbQ0gyXTQpW0NIMl1bQ0gyXTIpW0NAQF01KFtDSDNdKVtDQEhdKFtDSDJdW0NIMl0zKVtDQEBdNihbQ0gzXSlbQ0BASF0oW0NIMl01KVtDSDJdW0NAQEhdKFtPSF0pW0NASF02YzdbY0hdW2NIXWMobzcpW09IXQ==

>  <s_epik_cmdline>  (292) 
J2VwaWtfcHl0aG9uJywgJy1waHQnLCAnMi4wJywgJy1waCcsICc3LjAnLCAnLXRuJywgJzgnLCAnLW1hJywgJzIwMCcsICctaW1hZScsICc8aW5maWxlLm1hZT4nLCAnLW9tYWUnLCAnPG91dGZpbGUubWFlPic=

>  <r_lp_tautomer_probability>  (292) 
0.999841

>  <r_epik_Ionization_Penalty>  (292) 
0.000829641

>  <r_epik_Ionization_Penalty_Charging>  (292) 
0.000829488

>  <r_epik_Ionization_Penalty_Neutral>  (292) 
1.52874e-07

>  <r_epik_State_Penalty>  (292) 
0.00053395

>  <r_epik_Charging_Adjusted_Penalty>  (292) 
0.00136344

>  <i_epik_Tot_Q>  (292) 
-1

>  <i_epik_Tot_abs_Q>  (292) 
1

>  <s_epik_Chemistry_Notes>  (292) 
This compound has an ester and may undergo hydrolysis at high or low pH.

>  <s_lp_Force_Field>  (292) 
OPLS3e

>  <r_lp_Energy>  (292) 
133.63

>  <b_lp_Chiralities_Consistent>  (292) 
1

>  <s_lp_Variant>  (292) 
80:0-2

>  <s_i_glide_gridfile>  (292) 
pfpi4k_grid

>  <i_i_glide_lignum>  (292) 
37

>  <i_i_glide_rotatable_bonds>  (292) 
3

>  <r_i_docking_score>  (292) 
-3.09203

>  <r_i_glide_ligand_efficiency>  (292) 
-0.0835685

>  <r_i_glide_ligand_efficiency_sa>  (292) 
-0.278469

>  <r_i_glide_ligand_efficiency_ln>  (292) 
-0.670589

>  <r_i_glide_gscore>  (292) 
-3.09203

>  <r_i_glide_lipo>  (292) 
-0.321819

>  <r_i_glide_hbond>  (292) 
-0.268162

>  <r_i_glide_metal>  (292) 
-0

>  <r_i_glide_rewards>  (292) 
-0.0701584

>  <r_i_glide_evdw>  (292) 
-28.8223

>  <r_i_glide_ecoul>  (292) 
-7.03034

>  <r_i_glide_erotb>  (292) 
0.0782816

>  <r_i_glide_esite>  (292) 
-0.0145083

>  <r_i_glide_emodel>  (292) 
-41.6552

>  <r_i_glide_energy>  (292) 
-35.8527

>  <r_i_glide_einternal>  (292) 
2.93082

>  <r_i_glide_intrahb_reward>  (292) 
-0

>  <i_i_glide_confnum>  (292) 
4

>  <i_i_glide_posenum>  (292) 
36

>  <r_i_glide_eff_state_penalty>  (292) 
0

>  <ligand_id>  (292) 
80

>  <original_smiles>  (292) 
CC1(C)CC2(CCC3(C)CC34C3(C)CC5CC(O)C(c6ccc(O)o6)C5(C)C3CCC24C)OC1C(=O)O

>  <smiles>  (292) 
[H]OC1([H])C([H])([H])C2([H])C([H])([H])C3(C([H])([H])[H])C([H])(C([H])([H])C([H])([H])C4(C([H])([H])[H])C5(OC([H])(C(=O)[O-])C(C([H])([H])[H])(C([H])([H])[H])C5([H])[H])C([H])([H])C([H])([H])C5(C([H])([H])[H])C([H])([H])C534)C2(C([H])([H])[H])C1([H])C1([H])OC(=O)C([H])=C1[H]

$$$$
80:1:1
     RDKit          3D

 80 86  0  0  1  0  0  0  0  0999 V2000
    1.4326   -2.8430    7.7724 C   0  0  0  0  0  0  0  0  0  0  0  0
    0.5275   -3.5270    6.7266 C   0  0  0  0  0  0  0  0  0  0  0  0
   -0.3835   -2.4745    6.0841 C   0  0  0  0  0  0  0  0  0  0  0  0
    1.4291   -4.1702    5.6778 C   0  0  0  0  0  0  0  0  0  0  0  0
    1.1542   -5.7055    5.7045 C   0  0  1  0  0  0  0  0  0  0  0  0
    0.0435   -6.0650    4.6201 C   0  0  0  0  0  0  0  0  0  0  0  0
    0.1530   -7.3654    3.7869 C   0  0  0  0  0  0  0  0  0  0  0  0
    1.1385   -8.2739    4.4384 C   0  0  1  0  0  0  0  0  0  0  0  0
    0.4025   -9.0497    5.5321 C   0  0  0  0  0  0  0  0  0  0  0  0
    2.3741   -8.9729    4.0732 C   0  0  0  0  0  0  0  0  0  0  0  0
    2.5204   -7.4881    4.3867 C   0  0  1  0  0  0  0  0  0  0  0  0
    3.2674   -6.7514    3.1495 C   0  0  2  0  0  0  0  0  0  0  0  0
    2.4487   -5.6107    2.4812 C   0  0  0  0  0  0  0  0  0  0  0  0
    3.7922   -7.6601    1.9974 C   0  0  0  0  0  0  0  0  0  0  0  0
    4.9745   -6.9277    1.3277 C   0  0  1  0  0  0  0  0  0  0  0  0
    4.5693   -6.1287    0.0812 C   0  0  0  0  0  0  0  0  0  0  0  0
    5.2564   -4.7724    0.1716 C   0  0  1  0  0  0  0  0  0  0  0  0
    4.4018   -3.7994   -0.3865 O   0  0  0  0  0  0  0  0  0  0  0  0
    5.7017   -4.5718    1.6529 C   0  0  1  0  0  0  0  0  0  0  0  0
    5.3917   -3.2281    2.3911 C   0  0  2  0  0  0  0  0  0  0  0  0
    3.9449   -2.7812    2.4009 C   0  0  0  0  0  0  0  0  0  0  0  0
    3.8015   -1.6368    1.7529 C   0  0  0  0  0  0  0  0  0  0  0  0
    5.1234   -1.2317    1.2629 C   0  0  0  0  0  0  0  0  0  0  0  0
    5.4000   -0.2730    0.5572 O   0  0  0  0  0  0  0  0  0  0  0  0
    6.0025   -2.1539    1.6871 O   0  0  0  0  0  0  0  0  0  0  0  0
    5.5904   -5.9717    2.3854 C   0  0  2  0  0  0  0  0  0  0  0  0
    7.0128   -6.4641    2.7693 C   0  0  0  0  0  0  0  0  0  0  0  0
    4.6364   -6.2181    3.6128 C   0  0  1  0  0  0  0  0  0  0  0  0
    4.5408   -5.2016    4.7552 C   0  0  0  0  0  0  0  0  0  0  0  0
    3.8888   -5.9017    5.9461 C   0  0  0  0  0  0  0  0  0  0  0  0
    2.4998   -6.6383    5.7257 C   0  0  1  0  0  0  0  0  0  0  0  0
    2.5725   -7.5670    7.0076 C   0  0  0  0  0  0  0  0  0  0  0  0
    0.5438   -5.8473    6.9889 O   0  0  0  0  0  0  0  0  0  0  0  0
   -0.2757   -4.7206    7.2839 C   0  0  1  0  0  0  0  0  0  0  0  0
   -0.6413   -4.6274    8.7807 C   0  0  0  0  0  0  0  0  0  0  0  0
   -1.1449   -3.5313    9.1503 O   0  0  0  0  0  0  0  0  0  0  0  0
   -0.4595   -5.6100    9.4990 O   0  0  0  0  0  0  0  0  0  0  0  0
    2.1371   -2.1486    7.3044 H   0  0  0  0  0  0  0  0  0  0  0  0
    2.0458   -3.5874    8.2874 H   0  0  0  0  0  0  0  0  0  0  0  0
    0.8352   -2.3190    8.5308 H   0  0  0  0  0  0  0  0  0  0  0  0
   -1.0375   -2.9088    5.3245 H   0  0  0  0  0  0  0  0  0  0  0  0
    0.1911   -1.6914    5.5856 H   0  0  0  0  0  0  0  0  0  0  0  0
   -1.0124   -1.9912    6.8293 H   0  0  0  0  0  0  0  0  0  0  0  0
    1.2519   -3.7453    4.6948 H   0  0  0  0  0  0  0  0  0  0  0  0
    2.4693   -3.9168    5.9174 H   0  0  0  0  0  0  0  0  0  0  0  0
   -0.9157   -6.1140    5.0977 H   0  0  0  0  0  0  0  0  0  0  0  0
   -0.0600   -5.2516    3.9214 H   0  0  0  0  0  0  0  0  0  0  0  0
   -0.8284   -7.8552    3.7045 H   0  0  0  0  0  0  0  0  0  0  0  0
    0.4307   -7.1974    2.7498 H   0  0  0  0  0  0  0  0  0  0  0  0
    1.0847   -9.6667    6.1238 H   0  0  0  0  0  0  0  0  0  0  0  0
   -0.3063   -9.7287    5.0663 H   0  0  0  0  0  0  0  0  0  0  0  0
   -0.1521   -8.3835    6.1928 H   0  0  0  0  0  0  0  0  0  0  0  0
    2.8587   -9.6478    4.7823 H   0  0  0  0  0  0  0  0  0  0  0  0
    2.3190   -9.3884    3.0653 H   0  0  0  0  0  0  0  0  0  0  0  0
    3.0821   -4.9183    1.9507 H   0  0  0  0  0  0  0  0  0  0  0  0
    1.9667   -4.9774    3.2103 H   0  0  0  0  0  0  0  0  0  0  0  0
    1.7048   -5.9860    1.7750 H   0  0  0  0  0  0  0  0  0  0  0  0
    4.2087   -8.5909    2.3852 H   0  0  0  0  0  0  0  0  0  0  0  0
    3.0026   -7.9190    1.2938 H   0  0  0  0  0  0  0  0  0  0  0  0
    5.7049   -7.6729    1.0111 H   0  0  0  0  0  0  0  0  0  0  0  0
    4.8527   -6.6487   -0.8321 H   0  0  0  0  0  0  0  0  0  0  0  0
    3.4883   -6.0121    0.0141 H   0  0  0  0  0  0  0  0  0  0  0  0
    6.1484   -4.7957   -0.4609 H   0  0  0  0  0  0  0  0  0  0  0  0
    4.8401   -2.9633   -0.3503 H   0  0  0  0  0  0  0  0  0  0  0  0
    6.7743   -4.4598    1.5212 H   0  0  0  0  0  0  0  0  0  0  0  0
    3.1345   -3.3514    2.8553 H   0  0  0  0  0  0  0  0  0  0  0  0
    2.8835   -1.0977    1.5506 H   0  0  0  0  0  0  0  0  0  0  0  0
    5.8020   -3.2538    3.4027 H   0  0  0  0  0  0  0  0  0  0  0  0
    7.4567   -5.8320    3.5391 H   0  0  0  0  0  0  0  0  0  0  0  0
    7.6887   -6.4643    1.9145 H   0  0  0  0  0  0  0  0  0  0  0  0
    7.0086   -7.4862    3.1509 H   0  0  0  0  0  0  0  0  0  0  0  0
    5.0836   -7.0839    4.1064 H   0  0  0  0  0  0  0  0  0  0  0  0
    5.5369   -4.8504    5.0393 H   0  0  0  0  0  0  0  0  0  0  0  0
    3.9639   -4.3302    4.4841 H   0  0  0  0  0  0  0  0  0  0  0  0
    4.6360   -6.6264    6.2760 H   0  0  0  0  0  0  0  0  0  0  0  0
    3.8060   -5.2150    6.7796 H   0  0  0  0  0  0  0  0  0  0  0  0
    3.2455   -8.4101    6.8704 H   0  0  0  0  0  0  0  0  0  0  0  0
    1.6233   -7.9386    7.3501 H   0  0  0  0  0  0  0  0  0  0  0  0
    2.9298   -6.9991    7.8576 H   0  0  0  0  0  0  0  0  0  0  0  0
   -1.2292   -4.8267    6.7495 H   0  0  0  0  0  0  0  0  0  0  0  0
  1  2  1  0
  1 38  1  0
  1 39  1  0
  1 40  1  0
  2 34  1  0
  2  3  1  0
  2  4  1  0
  3 41  1  0
  3 42  1  0
  3 43  1  0
  4  5  1  0
  4 44  1  0
  4 45  1  0
  5 31  1  0
  5  6  1  0
  5 33  1  1
  6  7  1  0
  6 46  1  0
  6 47  1  0
  7  8  1  0
  7 48  1  0
  7 49  1  0
  8 11  1  0
  8  9  1  1
  8 10  1  0
  9 50  1  0
  9 51  1  0
  9 52  1  0
 11 10  1  1
 10 53  1  0
 10 54  1  0
 11 31  1  0
 11 12  1  0
 12 28  1  0
 12 13  1  6
 12 14  1  0
 13 55  1  0
 13 56  1  0
 13 57  1  0
 14 15  1  0
 14 58  1  0
 14 59  1  0
 15 26  1  0
 15 16  1  0
 15 60  1  6
 16 17  1  0
 16 61  1  0
 16 62  1  0
 17 18  1  0
 17 19  1  0
 17 63  1  6
 18 64  1  0
 19 26  1  0
 19 65  1  6
 19 20  1  0
 20 25  1  0
 20 21  1  0
 20 68  1  1
 21 66  1  0
 21 22  2  0
 22 67  1  0
 22 23  1  0
 23 24  2  0
 23 25  1  0
 26 27  1  1
 26 28  1  0
 27 69  1  0
 27 70  1  0
 27 71  1  0
 28 29  1  0
 28 72  1  1
 29 30  1  0
 29 73  1  0
 29 74  1  0
 30 31  1  0
 30 75  1  0
 30 76  1  0
 31 32  1  1
 32 77  1  0
 32 78  1  0
 32 79  1  0
 33 34  1  0
 34 35  1  0
 34 80  1  6
 35 36  2  0
 35 37  1  0
M  CHG  1  37  -1
M  END
>  <i_m_ct_stereo_status>  (293) 
1

>  <s_m_source_file>  (293) 
/var/tmp/pbs.5076255.sched01/tmptpdlle0r/921kky2sk3.sdf

>  <i_m_source_file_index>  (293) 
37

>  <i_lp_mmshare_version>  (293) 
48012

>  <i_f3d_flags>  (293) 
0

>  <s_epik_input>  (293) 
Tz1DKFtPSF0pW0NASF0oTzEpQyhbQ0gzXSkoW0NIM10pW0NIMl1bQ0BAXTEyW0NAQF0zKFtDSDNdKVtDQEBdNChDKFtDSDNdKShbQ0gyXTQpW0NIMl1bQ0gyXTIpW0NAQF01KFtDSDNdKVtDQEhdKFtDSDJdW0NIMl0zKVtDQEBdNihbQ0gzXSlbQ0BASF0oW0NIMl01KVtDSDJdW0NAQEhdKFtPSF0pW0NASF02YzdbY0hdW2NIXWMobzcpW09IXQ==

>  <s_epik_cmdline>  (293) 
J2VwaWtfcHl0aG9uJywgJy1waHQnLCAnMi4wJywgJy1waCcsICc3LjAnLCAnLXRuJywgJzgnLCAnLW1hJywgJzIwMCcsICctaW1hZScsICc8aW5maWxlLm1hZT4nLCAnLW9tYWUnLCAnPG91dGZpbGUubWFlPic=

>  <r_lp_tautomer_probability>  (293) 
0.999841

>  <r_epik_Ionization_Penalty>  (293) 
0.000829641

>  <r_epik_Ionization_Penalty_Charging>  (293) 
0.000829488

>  <r_epik_Ionization_Penalty_Neutral>  (293) 
1.52874e-07

>  <r_epik_State_Penalty>  (293) 
0.00053395

>  <r_epik_Charging_Adjusted_Penalty>  (293) 
0.00136344

>  <i_epik_Tot_Q>  (293) 
-1

>  <i_epik_Tot_abs_Q>  (293) 
1

>  <s_epik_Chemistry_Notes>  (293) 
This compound has an ester and may undergo hydrolysis at high or low pH.

>  <s_lp_Force_Field>  (293) 
OPLS3e

>  <r_lp_Energy>  (293) 
133.63

>  <b_lp_Chiralities_Consistent>  (293) 
1

>  <s_lp_Variant>  (293) 
80:0-2

>  <s_i_glide_gridfile>  (293) 
pfpi4k_grid

>  <i_i_glide_lignum>  (293) 
37

>  <i_i_glide_rotatable_bonds>  (293) 
3

>  <r_i_docking_score>  (293) 
-2.72756

>  <r_i_glide_ligand_efficiency>  (293) 
-0.0737179

>  <r_i_glide_ligand_efficiency_sa>  (293) 
-0.245645

>  <r_i_glide_ligand_efficiency_ln>  (293) 
-0.591545

>  <r_i_glide_gscore>  (293) 
-2.72756

>  <r_i_glide_lipo>  (293) 
-0.338143

>  <r_i_glide_hbond>  (293) 
-0.277865

>  <r_i_glide_metal>  (293) 
-0

>  <r_i_glide_rewards>  (293) 
-0.134162

>  <r_i_glide_evdw>  (293) 
-28.884

>  <r_i_glide_ecoul>  (293) 
-3.99385

>  <r_i_glide_erotb>  (293) 
0.0782816

>  <r_i_glide_esite>  (293) 
-0.0124

>  <r_i_glide_emodel>  (293) 
-37.9997

>  <r_i_glide_energy>  (293) 
-32.8778

>  <r_i_glide_einternal>  (293) 
2.78213

>  <r_i_glide_intrahb_reward>  (293) 
-0

>  <i_i_glide_confnum>  (293) 
4

>  <i_i_glide_posenum>  (293) 
10

>  <r_i_glide_eff_state_penalty>  (293) 
0

>  <ligand_id>  (293) 
80

>  <original_smiles>  (293) 
CC1(C)CC2(CCC3(C)CC34C3(C)CC5CC(O)C(c6ccc(O)o6)C5(C)C3CCC24C)OC1C(=O)O

>  <smiles>  (293) 
[H]OC1([H])C([H])([H])C2([H])C([H])([H])C3(C([H])([H])[H])C([H])(C([H])([H])C([H])([H])C4(C([H])([H])[H])C5(OC([H])(C(=O)[O-])C(C([H])([H])[H])(C([H])([H])[H])C5([H])[H])C([H])([H])C([H])([H])C5(C([H])([H])[H])C([H])([H])C534)C2(C([H])([H])[H])C1([H])C1([H])OC(=O)C([H])=C1[H]

$$$$
80:1:2
     RDKit          3D

 80 86  0  0  1  0  0  0  0  0999 V2000
    1.5277   -0.6235    5.9686 C   0  0  0  0  0  0  0  0  0  0  0  0
    0.9173   -2.0439    6.0406 C   0  0  0  0  0  0  0  0  0  0  0  0
   -0.4976   -1.9846    5.4252 C   0  0  0  0  0  0  0  0  0  0  0  0
    1.8210   -3.0094    5.3078 C   0  0  0  0  0  0  0  0  0  0  0  0
    1.5099   -4.4191    5.9089 C   0  0  1  0  0  0  0  0  0  0  0  0
    0.2660   -5.0815    5.1164 C   0  0  0  0  0  0  0  0  0  0  0  0
    0.2740   -6.5814    4.7272 C   0  0  0  0  0  0  0  0  0  0  0  0
    1.2995   -7.2644    5.5627 C   0  0  1  0  0  0  0  0  0  0  0  0
    0.6470   -7.6136    6.9055 C   0  0  0  0  0  0  0  0  0  0  0  0
    2.4969   -8.0893    5.3488 C   0  0  0  0  0  0  0  0  0  0  0  0
    2.6699   -6.5859    5.1404 C   0  0  1  0  0  0  0  0  0  0  0  0
    3.3079   -6.3161    3.6849 C   0  0  2  0  0  0  0  0  0  0  0  0
    2.4330   -5.4468    2.7386 C   0  0  0  0  0  0  0  0  0  0  0  0
    3.7297   -7.5712    2.8521 C   0  0  0  0  0  0  0  0  0  0  0  0
    4.8564   -7.1394    1.8768 C   0  0  1  0  0  0  0  0  0  0  0  0
    4.3438   -6.7719    0.4769 C   0  0  0  0  0  0  0  0  0  0  0  0
    5.0170   -5.4645    0.0697 C   0  0  1  0  0  0  0  0  0  0  0  0
    4.1543   -4.6680   -0.7168 O   0  0  0  0  0  0  0  0  0  0  0  0
    5.6190   -4.8223    1.3574 C   0  0  1  0  0  0  0  0  0  0  0  0
    5.3916   -3.2990    1.6428 C   0  0  2  0  0  0  0  0  0  0  0  0
    3.9733   -2.7888    1.5625 C   0  0  0  0  0  0  0  0  0  0  0  0
    3.8373   -1.9253    0.5521 C   0  0  0  0  0  0  0  0  0  0  0  0
    5.1543   -1.7631   -0.0686 C   0  0  0  0  0  0  0  0  0  0  0  0
    5.4432   -1.0618   -1.0366 O   0  0  0  0  0  0  0  0  0  0  0  0
    6.0219   -2.5306    0.6162 O   0  0  0  0  0  0  0  0  0  0  0  0
    5.5647   -5.9096    2.5093 C   0  0  2  0  0  0  0  0  0  0  0  0
    7.0136   -6.2923    2.9271 C   0  0  0  0  0  0  0  0  0  0  0  0
    4.7176   -5.7136    3.8204 C   0  0  1  0  0  0  0  0  0  0  0  0
    4.7284   -4.3814    4.5664 C   0  0  0  0  0  0  0  0  0  0  0  0
    4.2004   -4.6424    5.9794 C   0  0  0  0  0  0  0  0  0  0  0  0
    2.7959   -5.3569    6.1195 C   0  0  1  0  0  0  0  0  0  0  0  0
    2.9592   -5.8264    7.6315 C   0  0  0  0  0  0  0  0  0  0  0  0
    0.9897   -4.0828    7.2059 O   0  0  0  0  0  0  0  0  0  0  0  0
    0.8807   -2.6769    7.4463 C   0  0  1  0  0  0  0  0  0  0  0  0
    2.0040   -2.1701    8.3891 C   0  0  0  0  0  0  0  0  0  0  0  0
    1.6924   -1.1994    9.1324 O   0  0  0  0  0  0  0  0  0  0  0  0
    3.1162   -2.6975    8.3675 O   0  0  0  0  0  0  0  0  0  0  0  0
    1.6392   -0.3041    4.9385 H   0  0  0  0  0  0  0  0  0  0  0  0
    2.5216   -0.5589    6.4124 H   0  0  0  0  0  0  0  0  0  0  0  0
    0.8915    0.0989    6.4809 H   0  0  0  0  0  0  0  0  0  0  0  0
   -1.0129   -2.9401    5.4428 H   0  0  0  0  0  0  0  0  0  0  0  0
   -0.4359   -1.6575    4.3859 H   0  0  0  0  0  0  0  0  0  0  0  0
   -1.1200   -1.2544    5.9502 H   0  0  0  0  0  0  0  0  0  0  0  0
    1.6469   -2.9365    4.2325 H   0  0  0  0  0  0  0  0  0  0  0  0
    2.8467   -2.7133    5.5216 H   0  0  0  0  0  0  0  0  0  0  0  0
   -0.6271   -4.9275    5.7143 H   0  0  0  0  0  0  0  0  0  0  0  0
    0.0766   -4.5303    4.2071 H   0  0  0  0  0  0  0  0  0  0  0  0
   -0.7108   -7.0209    4.8808 H   0  0  0  0  0  0  0  0  0  0  0  0
    0.4573   -6.7638    3.6691 H   0  0  0  0  0  0  0  0  0  0  0  0
    1.3712   -8.0258    7.6150 H   0  0  0  0  0  0  0  0  0  0  0  0
   -0.1177   -8.3770    6.7591 H   0  0  0  0  0  0  0  0  0  0  0  0
    0.1632   -6.7442    7.3553 H   0  0  0  0  0  0  0  0  0  0  0  0
    3.0344   -8.5092    6.1973 H   0  0  0  0  0  0  0  0  0  0  0  0
    2.3474   -8.8059    4.5414 H   0  0  0  0  0  0  0  0  0  0  0  0
    3.0284   -5.0425    1.9315 H   0  0  0  0  0  0  0  0  0  0  0  0
    2.0351   -4.5829    3.2251 H   0  0  0  0  0  0  0  0  0  0  0  0
    1.6417   -6.0068    2.2425 H   0  0  0  0  0  0  0  0  0  0  0  0
    4.1729   -8.3403    3.4880 H   0  0  0  0  0  0  0  0  0  0  0  0
    2.8797   -8.0196    2.3342 H   0  0  0  0  0  0  0  0  0  0  0  0
    5.5563   -7.9758    1.7725 H   0  0  0  0  0  0  0  0  0  0  0  0
    4.5608   -7.5746   -0.2352 H   0  0  0  0  0  0  0  0  0  0  0  0
    3.2586   -6.6641    0.4677 H   0  0  0  0  0  0  0  0  0  0  0  0
    5.8276   -5.7353   -0.5930 H   0  0  0  0  0  0  0  0  0  0  0  0
    3.7929   -5.2131   -1.4198 H   0  0  0  0  0  0  0  0  0  0  0  0
    6.6784   -4.8077    1.0987 H   0  0  0  0  0  0  0  0  0  0  0  0
    3.1702   -3.0842    2.2216 H   0  0  0  0  0  0  0  0  0  0  0  0
    2.9387   -1.4319    0.2238 H   0  0  0  0  0  0  0  0  0  0  0  0
    5.8366   -3.0261    2.6046 H   0  0  0  0  0  0  0  0  0  0  0  0
    7.5227   -5.4571    3.4066 H   0  0  0  0  0  0  0  0  0  0  0  0
    7.6157   -6.5942    2.0696 H   0  0  0  0  0  0  0  0  0  0  0  0
    7.0392   -7.1309    3.6240 H   0  0  0  0  0  0  0  0  0  0  0  0
    5.2064   -6.3847    4.5373 H   0  0  0  0  0  0  0  0  0  0  0  0
    5.7375   -3.9830    4.6358 H   0  0  0  0  0  0  0  0  0  0  0  0
    4.1263   -3.6296    4.0675 H   0  0  0  0  0  0  0  0  0  0  0  0
    4.9679   -5.2565    6.4424 H   0  0  0  0  0  0  0  0  0  0  0  0
    4.2399   -3.7091    6.5428 H   0  0  0  0  0  0  0  0  0  0  0  0
    3.6016   -6.7115    7.7316 H   0  0  0  0  0  0  0  0  0  0  0  0
    2.0336   -6.0159    8.1582 H   0  0  0  0  0  0  0  0  0  0  0  0
    3.4234   -5.0515    8.2400 H   0  0  0  0  0  0  0  0  0  0  0  0
   -0.0667   -2.4670    7.9489 H   0  0  0  0  0  0  0  0  0  0  0  0
  1  2  1  0
  1 38  1  0
  1 39  1  0
  1 40  1  0
  2 34  1  0
  2  3  1  0
  2  4  1  0
  3 41  1  0
  3 42  1  0
  3 43  1  0
  4  5  1  0
  4 44  1  0
  4 45  1  0
  5 31  1  0
  5  6  1  0
  5 33  1  1
  6  7  1  0
  6 46  1  0
  6 47  1  0
  7  8  1  0
  7 48  1  0
  7 49  1  0
  8 11  1  0
  8  9  1  1
  8 10  1  0
  9 50  1  0
  9 51  1  0
  9 52  1  0
 11 10  1  1
 10 53  1  0
 10 54  1  0
 11 31  1  0
 11 12  1  0
 12 28  1  0
 12 13  1  6
 12 14  1  0
 13 55  1  0
 13 56  1  0
 13 57  1  0
 14 15  1  0
 14 58  1  0
 14 59  1  0
 15 26  1  0
 15 16  1  0
 15 60  1  6
 16 17  1  0
 16 61  1  0
 16 62  1  0
 17 18  1  0
 17 19  1  0
 17 63  1  6
 18 64  1  0
 19 26  1  0
 19 65  1  6
 19 20  1  0
 20 25  1  0
 20 21  1  0
 20 68  1  1
 21 66  1  0
 21 22  2  0
 22 67  1  0
 22 23  1  0
 23 24  2  0
 23 25  1  0
 26 27  1  1
 26 28  1  0
 27 69  1  0
 27 70  1  0
 27 71  1  0
 28 29  1  0
 28 72  1  1
 29 30  1  0
 29 73  1  0
 29 74  1  0
 30 31  1  0
 30 75  1  0
 30 76  1  0
 31 32  1  1
 32 77  1  0
 32 78  1  0
 32 79  1  0
 33 34  1  0
 34 35  1  0
 34 80  1  1
 35 36  2  0
 35 37  1  0
M  CHG  1  37  -1
M  END
>  <i_m_ct_stereo_status>  (294) 
1

>  <s_m_source_file>  (294) 
/var/tmp/pbs.5076255.sched01/tmptpdlle0r/921kky2sk3.sdf

>  <i_m_source_file_index>  (294) 
37

>  <i_lp_mmshare_version>  (294) 
48012

>  <i_f3d_flags>  (294) 
0

>  <s_epik_input>  (294) 
Tz1DKFtPSF0pW0NASF0oTzEpQyhbQ0gzXSkoW0NIM10pW0NIMl1bQ0BAXTEyW0NAQF0zKFtDSDNdKVtDQEBdNChDKFtDSDNdKShbQ0gyXTQpW0NIMl1bQ0gyXTIpW0NAQF01KFtDSDNdKVtDQEhdKFtDSDJdW0NIMl0zKVtDQEBdNihbQ0gzXSlbQ0BASF0oW0NIMl01KVtDSDJdW0NAQEhdKFtPSF0pW0NASF02YzdbY0hdW2NIXWMobzcpW09IXQ==

>  <s_epik_cmdline>  (294) 
J2VwaWtfcHl0aG9uJywgJy1waHQnLCAnMi4wJywgJy1waCcsICc3LjAnLCAnLXRuJywgJzgnLCAnLW1hJywgJzIwMCcsICctaW1hZScsICc8aW5maWxlLm1hZT4nLCAnLW9tYWUnLCAnPG91dGZpbGUubWFlPic=

>  <r_lp_tautomer_probability>  (294) 
0.999841

>  <r_epik_Ionization_Penalty>  (294) 
0.000829641

>  <r_epik_Ionization_Penalty_Charging>  (294) 
0.000829488

>  <r_epik_Ionization_Penalty_Neutral>  (294) 
1.52874e-07

>  <r_epik_State_Penalty>  (294) 
0.00053395

>  <r_epik_Charging_Adjusted_Penalty>  (294) 
0.00136344

>  <i_epik_Tot_Q>  (294) 
-1

>  <i_epik_Tot_abs_Q>  (294) 
1

>  <s_epik_Chemistry_Notes>  (294) 
This compound has an ester and may undergo hydrolysis at high or low pH.

>  <s_lp_Force_Field>  (294) 
OPLS3e

>  <r_lp_Energy>  (294) 
133.63

>  <b_lp_Chiralities_Consistent>  (294) 
1

>  <s_lp_Variant>  (294) 
80:0-2

>  <s_i_glide_gridfile>  (294) 
pfpi4k_grid

>  <i_i_glide_lignum>  (294) 
37

>  <i_i_glide_rotatable_bonds>  (294) 
3

>  <r_i_docking_score>  (294) 
-2.28123

>  <r_i_glide_ligand_efficiency>  (294) 
-0.0616549

>  <r_i_glide_ligand_efficiency_sa>  (294) 
-0.205448

>  <r_i_glide_ligand_efficiency_ln>  (294) 
-0.494746

>  <r_i_glide_gscore>  (294) 
-2.28123

>  <r_i_glide_lipo>  (294) 
-0.361754

>  <r_i_glide_hbond>  (294) 
-0.000306004

>  <r_i_glide_metal>  (294) 
-0

>  <r_i_glide_rewards>  (294) 
0

>  <r_i_glide_evdw>  (294) 
-25.5336

>  <r_i_glide_ecoul>  (294) 
-4.77918

>  <r_i_glide_erotb>  (294) 
0.0782816

>  <r_i_glide_esite>  (294) 
-0.00389418

>  <r_i_glide_emodel>  (294) 
-34.4845

>  <r_i_glide_energy>  (294) 
-30.3128

>  <r_i_glide_einternal>  (294) 
2.52662

>  <r_i_glide_intrahb_reward>  (294) 
-0

>  <i_i_glide_confnum>  (294) 
5

>  <i_i_glide_posenum>  (294) 
13

>  <r_i_glide_eff_state_penalty>  (294) 
0

>  <ligand_id>  (294) 
80

>  <original_smiles>  (294) 
CC1(C)CC2(CCC3(C)CC34C3(C)CC5CC(O)C(c6ccc(O)o6)C5(C)C3CCC24C)OC1C(=O)O

>  <smiles>  (294) 
[H]OC1([H])C([H])([H])C2([H])C([H])([H])C3(C([H])([H])[H])C([H])(C([H])([H])C([H])([H])C4(C([H])([H])[H])C5(OC([H])(C(=O)[O-])C(C([H])([H])[H])(C([H])([H])[H])C5([H])[H])C([H])([H])C([H])([H])C5(C([H])([H])[H])C([H])([H])C534)C2(C([H])([H])[H])C1([H])C1([H])OC(=O)C([H])=C1[H]

$$$$
81:0:0
     RDKit          3D

 25 27  0  0  1  0  0  0  0  0999 V2000
    5.8057   -5.6411    0.6349 C   0  0  0  0  0  0  0  0  0  0  0  0
    5.0481   -6.5450    1.3025 N   0  0  0  0  0  0  0  0  0  0  0  0
    3.7470   -6.3228    1.1274 N   0  0  0  0  0  0  0  0  0  0  0  0
    2.7670   -7.0750    1.6804 C   0  0  0  0  0  0  0  0  0  0  0  0
    1.5830   -6.5736    1.3069 N   0  0  0  0  0  0  0  0  0  0  0  0
    1.8139   -5.4642    0.4898 N   0  0  0  0  0  0  0  0  0  0  0  0
    3.1384   -5.3132    0.3903 C   0  0  0  0  0  0  0  0  0  0  0  0
    4.0499   -4.4340   -0.2517 C   0  0  0  0  0  0  0  0  0  0  0  0
    3.5529   -3.3439   -0.9710 N   0  0  0  0  0  0  0  0  0  0  0  0
    4.3212   -2.7101   -2.0328 C   0  0  2  0  0  0  0  0  0  0  0  0
    3.8579   -1.2740   -2.2514 C   0  0  0  0  0  0  0  0  0  0  0  0
    3.4858   -1.2059   -3.7312 C   0  0  0  0  0  0  0  0  0  0  0  0
    4.2114   -2.2674   -4.3151 O   0  0  0  0  0  0  0  0  0  0  0  0
    4.1314   -3.3620   -3.4138 C   0  0  0  0  0  0  0  0  0  0  0  0
    5.3895   -4.6045   -0.1353 N   0  0  0  0  0  0  0  0  0  0  0  0
    6.8754   -5.7562    0.7351 H   0  0  0  0  0  0  0  0  0  0  0  0
    2.9172   -7.9368    2.3152 H   0  0  0  0  0  0  0  0  0  0  0  0
    5.3900   -2.6880   -1.7986 H   0  0  0  0  0  0  0  0  0  0  0  0
    3.0144   -0.9929   -1.6149 H   0  0  0  0  0  0  0  0  0  0  0  0
    4.6767   -0.5925   -2.0198 H   0  0  0  0  0  0  0  0  0  0  0  0
    2.4206   -1.3875   -3.8651 H   0  0  0  0  0  0  0  0  0  0  0  0
    3.7321   -0.2418   -4.1744 H   0  0  0  0  0  0  0  0  0  0  0  0
    4.8858   -4.1206   -3.6325 H   0  0  0  0  0  0  0  0  0  0  0  0
    3.1497   -3.8224   -3.5180 H   0  0  0  0  0  0  0  0  0  0  0  0
    2.5522   -3.2264   -1.0066 H   0  0  0  0  0  0  0  0  0  0  0  0
  1 15  1  0
  1  2  2  0
  1 16  1  0
  2  3  1  0
  3  7  1  0
  3  4  1  0
  4  5  2  0
  4 17  1  0
  5  6  1  0
  6  7  2  0
  7  8  1  0
  8  9  1  0
  8 15  2  0
  9 10  1  0
  9 25  1  0
 10 14  1  0
 10 11  1  0
 10 18  1  1
 11 12  1  0
 11 19  1  0
 11 20  1  0
 12 13  1  0
 12 21  1  0
 12 22  1  0
 13 14  1  0
 14 23  1  0
 14 24  1  0
M  END
>  <i_m_ct_stereo_status>  (295) 
1

>  <s_m_source_file>  (295) 
/var/tmp/pbs.5076255.sched01/tmptpdlle0r/921kky2sk3.sdf

>  <i_m_source_file_index>  (295) 
38

>  <i_lp_mmshare_version>  (295) 
48012

>  <i_f3d_flags>  (295) 
0

>  <s_epik_input>  (295) 
W2NIXTFubmMobjEyKS9jKFtuSF1bY0hdbjIpPU5cW0NAQEhdM1tDSDJdW0NIMl1PW0NIMl0z

>  <s_epik_cmdline>  (295) 
J2VwaWtfcHl0aG9uJywgJy1waHQnLCAnMi4wJywgJy1waCcsICc3LjAnLCAnLXRuJywgJzgnLCAnLW1hJywgJzIwMCcsICctaW1hZScsICc8aW5maWxlLm1hZT4nLCAnLW9tYWUnLCAnPG91dGZpbGUubWFlPic=

>  <r_lp_tautomer_probability>  (295) 
1

>  <r_epik_Ionization_Penalty>  (295) 
6.17489e-06

>  <r_epik_Ionization_Penalty_Charging>  (295) 
0

>  <r_epik_Ionization_Penalty_Neutral>  (295) 
6.17489e-06

>  <r_epik_State_Penalty>  (295) 
-0

>  <r_epik_Charging_Adjusted_Penalty>  (295) 
0

>  <i_epik_Tot_Q>  (295) 
0

>  <i_epik_Tot_abs_Q>  (295) 
0

>  <s_lp_Force_Field>  (295) 
OPLS3e

>  <r_lp_Energy>  (295) 
8.3302

>  <b_lp_Chiralities_Consistent>  (295) 
1

>  <s_lp_Variant>  (295) 
81:0-1

>  <s_i_glide_gridfile>  (295) 
pfpi4k_grid

>  <i_i_glide_lignum>  (295) 
38

>  <i_i_glide_rotatable_bonds>  (295) 
2

>  <r_i_docking_score>  (295) 
-4.36816

>  <r_i_glide_ligand_efficiency>  (295) 
-0.291211

>  <r_i_glide_ligand_efficiency_sa>  (295) 
-0.718187

>  <r_i_glide_ligand_efficiency_ln>  (295) 
-1.17802

>  <r_i_glide_gscore>  (295) 
-4.36816

>  <r_i_glide_lipo>  (295) 
-0.346265

>  <r_i_glide_hbond>  (295) 
-0.32

>  <r_i_glide_metal>  (295) 
-0

>  <r_i_glide_rewards>  (295) 
-2.23763

>  <r_i_glide_evdw>  (295) 
-22.382

>  <r_i_glide_ecoul>  (295) 
-6.32324

>  <r_i_glide_erotb>  (295) 
0.776043

>  <r_i_glide_esite>  (295) 
-0.172726

>  <r_i_glide_emodel>  (295) 
-36.4987

>  <r_i_glide_energy>  (295) 
-28.7052

>  <r_i_glide_einternal>  (295) 
1.07553

>  <r_i_glide_intrahb_reward>  (295) 
-0

>  <i_i_glide_confnum>  (295) 
6

>  <i_i_glide_posenum>  (295) 
22

>  <r_i_glide_eff_state_penalty>  (295) 
0

>  <ligand_id>  (295) 
81

>  <original_smiles>  (295) 
c1nn2cnnc2c(=NC2CCOC2)[nH]1

>  <smiles>  (295) 
[H]c1nc(N([H])C2([H])C([H])([H])OC([H])([H])C2([H])[H])c2nnc([H])n2n1

$$$$
81:0:1
     RDKit          3D

 25 27  0  0  1  0  0  0  0  0999 V2000
    5.8817   -1.0580    2.0279 C   0  0  0  0  0  0  0  0  0  0  0  0
    5.2155   -1.1428    3.2047 N   0  0  0  0  0  0  0  0  0  0  0  0
    3.9043   -1.2050    3.0114 N   0  0  0  0  0  0  0  0  0  0  0  0
    3.0108   -1.3109    4.0190 C   0  0  0  0  0  0  0  0  0  0  0  0
    1.7837   -1.3625    3.4963 N   0  0  0  0  0  0  0  0  0  0  0  0
    1.8954   -1.2825    2.1038 N   0  0  0  0  0  0  0  0  0  0  0  0
    3.2011   -1.1870    1.8151 C   0  0  0  0  0  0  0  0  0  0  0  0
    4.0235   -1.0912    0.6729 C   0  0  0  0  0  0  0  0  0  0  0  0
    3.4147   -1.0725   -0.5846 N   0  0  0  0  0  0  0  0  0  0  0  0
    4.1879   -1.1899   -1.8156 C   0  0  2  0  0  0  0  0  0  0  0  0
    3.3399   -0.8198   -3.0249 C   0  0  0  0  0  0  0  0  0  0  0  0
    3.3707   -2.0626   -3.9062 C   0  0  0  0  0  0  0  0  0  0  0  0
    4.5480   -2.7406   -3.5081 O   0  0  0  0  0  0  0  0  0  0  0  0
    4.5987   -2.6382   -2.0957 C   0  0  0  0  0  0  0  0  0  0  0  0
    5.3762   -1.0327    0.7679 N   0  0  0  0  0  0  0  0  0  0  0  0
    6.9574   -1.0001    2.1016 H   0  0  0  0  0  0  0  0  0  0  0  0
    3.2325   -1.3564    5.0796 H   0  0  0  0  0  0  0  0  0  0  0  0
    5.0655   -0.5393   -1.8002 H   0  0  0  0  0  0  0  0  0  0  0  0
    2.3192   -0.5247   -2.7764 H   0  0  0  0  0  0  0  0  0  0  0  0
    3.7906    0.0247   -3.5393 H   0  0  0  0  0  0  0  0  0  0  0  0
    2.4933   -2.6855   -3.7161 H   0  0  0  0  0  0  0  0  0  0  0  0
    3.4100   -1.8190   -4.9654 H   0  0  0  0  0  0  0  0  0  0  0  0
    5.5855   -2.8756   -1.6989 H   0  0  0  0  0  0  0  0  0  0  0  0
    3.8824   -3.3445   -1.6637 H   0  0  0  0  0  0  0  0  0  0  0  0
    2.3881   -1.0536   -0.6370 H   0  0  0  0  0  0  0  0  0  0  0  0
  1 15  1  0
  1  2  2  0
  1 16  1  0
  2  3  1  0
  3  7  1  0
  3  4  1  0
  4  5  2  0
  4 17  1  0
  5  6  1  0
  6  7  2  0
  7  8  1  0
  8  9  1  0
  8 15  2  0
  9 10  1  0
  9 25  1  0
 10 14  1  0
 10 11  1  0
 10 18  1  1
 11 12  1  0
 11 19  1  0
 11 20  1  0
 12 13  1  0
 12 21  1  0
 12 22  1  0
 13 14  1  0
 14 23  1  0
 14 24  1  0
M  END
>  <i_m_ct_stereo_status>  (296) 
1

>  <s_m_source_file>  (296) 
/var/tmp/pbs.5076255.sched01/tmptpdlle0r/921kky2sk3.sdf

>  <i_m_source_file_index>  (296) 
38

>  <i_lp_mmshare_version>  (296) 
48012

>  <i_f3d_flags>  (296) 
0

>  <s_epik_input>  (296) 
W2NIXTFubmMobjEyKS9jKFtuSF1bY0hdbjIpPU5cW0NAQEhdM1tDSDJdW0NIMl1PW0NIMl0z

>  <s_epik_cmdline>  (296) 
J2VwaWtfcHl0aG9uJywgJy1waHQnLCAnMi4wJywgJy1waCcsICc3LjAnLCAnLXRuJywgJzgnLCAnLW1hJywgJzIwMCcsICctaW1hZScsICc8aW5maWxlLm1hZT4nLCAnLW9tYWUnLCAnPG91dGZpbGUubWFlPic=

>  <r_lp_tautomer_probability>  (296) 
1

>  <r_epik_Ionization_Penalty>  (296) 
6.17489e-06

>  <r_epik_Ionization_Penalty_Charging>  (296) 
0

>  <r_epik_Ionization_Penalty_Neutral>  (296) 
6.17489e-06

>  <r_epik_State_Penalty>  (296) 
-0

>  <r_epik_Charging_Adjusted_Penalty>  (296) 
0

>  <i_epik_Tot_Q>  (296) 
0

>  <i_epik_Tot_abs_Q>  (296) 
0

>  <s_lp_Force_Field>  (296) 
OPLS3e

>  <r_lp_Energy>  (296) 
8.3302

>  <b_lp_Chiralities_Consistent>  (296) 
1

>  <s_lp_Variant>  (296) 
81:0-1

>  <s_i_glide_gridfile>  (296) 
pfpi4k_grid

>  <i_i_glide_lignum>  (296) 
38

>  <i_i_glide_rotatable_bonds>  (296) 
2

>  <r_i_docking_score>  (296) 
-3.34794

>  <r_i_glide_ligand_efficiency>  (296) 
-0.223196

>  <r_i_glide_ligand_efficiency_sa>  (296) 
-0.550449

>  <r_i_glide_ligand_efficiency_ln>  (296) 
-0.902884

>  <r_i_glide_gscore>  (296) 
-3.34794

>  <r_i_glide_lipo>  (296) 
-0.135224

>  <r_i_glide_hbond>  (296) 
-0.16

>  <r_i_glide_metal>  (296) 
-0

>  <r_i_glide_rewards>  (296) 
-2.16392

>  <r_i_glide_evdw>  (296) 
-19.6048

>  <r_i_glide_ecoul>  (296) 
-3.45679

>  <r_i_glide_erotb>  (296) 
0.776043

>  <r_i_glide_esite>  (296) 
-0.166079

>  <r_i_glide_emodel>  (296) 
-29.4005

>  <r_i_glide_energy>  (296) 
-23.0616

>  <r_i_glide_einternal>  (296) 
0.0993606

>  <r_i_glide_intrahb_reward>  (296) 
-0

>  <i_i_glide_confnum>  (296) 
6

>  <i_i_glide_posenum>  (296) 
2

>  <r_i_glide_eff_state_penalty>  (296) 
0

>  <ligand_id>  (296) 
81

>  <original_smiles>  (296) 
c1nn2cnnc2c(=NC2CCOC2)[nH]1

>  <smiles>  (296) 
[H]c1nc(N([H])C2([H])C([H])([H])OC([H])([H])C2([H])[H])c2nnc([H])n2n1

$$$$
81:0:2
     RDKit          3D

 25 27  0  0  1  0  0  0  0  0999 V2000
    0.8296    3.6367    4.6064 C   0  0  0  0  0  0  0  0  0  0  0  0
    1.8613    2.8026    4.3403 N   0  0  0  0  0  0  0  0  0  0  0  0
    1.4911    1.8332    3.5018 N   0  0  0  0  0  0  0  0  0  0  0  0
    2.3224    0.8511    3.0966 C   0  0  0  0  0  0  0  0  0  0  0  0
    1.6381    0.0297    2.2865 N   0  0  0  0  0  0  0  0  0  0  0  0
    0.3372    0.5251    2.1555 N   0  0  0  0  0  0  0  0  0  0  0  0
    0.2545    1.6215    2.9138 C   0  0  0  0  0  0  0  0  0  0  0  0
   -0.7316    2.5680    3.2831 C   0  0  0  0  0  0  0  0  0  0  0  0
   -2.0198    2.4547    2.7512 N   0  0  0  0  0  0  0  0  0  0  0  0
   -3.0243    3.4999    2.8823 C   0  0  2  0  0  0  0  0  0  0  0  0
   -4.1897    3.3287    1.9288 C   0  0  0  0  0  0  0  0  0  0  0  0
   -4.8166    4.7162    1.9002 C   0  0  0  0  0  0  0  0  0  0  0  0
   -3.7294    5.6224    2.0827 O   0  0  0  0  0  0  0  0  0  0  0  0
   -2.5629    4.9028    2.4833 C   0  0  0  0  0  0  0  0  0  0  0  0
   -0.4474    3.5663    4.1593 N   0  0  0  0  0  0  0  0  0  0  0  0
    1.0503    4.4607    5.2658 H   0  0  0  0  0  0  0  0  0  0  0  0
    3.3513    0.7279    3.3911 H   0  0  0  0  0  0  0  0  0  0  0  0
   -3.3907    3.4777    3.9131 H   0  0  0  0  0  0  0  0  0  0  0  0
   -3.8496    3.0398    0.9362 H   0  0  0  0  0  0  0  0  0  0  0  0
   -4.8952    2.5579    2.2144 H   0  0  0  0  0  0  0  0  0  0  0  0
   -5.3567    4.9087    0.9738 H   0  0  0  0  0  0  0  0  0  0  0  0
   -5.5165    4.8263    2.7300 H   0  0  0  0  0  0  0  0  0  0  0  0
   -2.0513    5.3388    3.3166 H   0  0  0  0  0  0  0  0  0  0  0  0
   -1.8063    4.9242    1.7004 H   0  0  0  0  0  0  0  0  0  0  0  0
   -2.1742    1.7072    2.0858 H   0  0  0  0  0  0  0  0  0  0  0  0
  1 15  1  0
  1  2  2  0
  1 16  1  0
  2  3  1  0
  3  7  1  0
  3  4  1  0
  4  5  2  0
  4 17  1  0
  5  6  1  0
  6  7  2  0
  7  8  1  0
  8  9  1  0
  8 15  2  0
  9 10  1  0
  9 25  1  0
 10 14  1  0
 10 11  1  0
 10 18  1  1
 11 12  1  0
 11 19  1  0
 11 20  1  0
 12 13  1  0
 12 21  1  0
 12 22  1  0
 13 14  1  0
 14 23  1  0
 14 24  1  0
M  END
>  <i_m_ct_stereo_status>  (297) 
1

>  <s_m_source_file>  (297) 
/var/tmp/pbs.5076255.sched01/tmptpdlle0r/921kky2sk3.sdf

>  <i_m_source_file_index>  (297) 
38

>  <i_lp_mmshare_version>  (297) 
48012

>  <i_f3d_flags>  (297) 
0

>  <s_epik_input>  (297) 
W2NIXTFubmMobjEyKS9jKFtuSF1bY0hdbjIpPU5cW0NAQEhdM1tDSDJdW0NIMl1PW0NIMl0z

>  <s_epik_cmdline>  (297) 
J2VwaWtfcHl0aG9uJywgJy1waHQnLCAnMi4wJywgJy1waCcsICc3LjAnLCAnLXRuJywgJzgnLCAnLW1hJywgJzIwMCcsICctaW1hZScsICc8aW5maWxlLm1hZT4nLCAnLW9tYWUnLCAnPG91dGZpbGUubWFlPic=

>  <r_lp_tautomer_probability>  (297) 
1

>  <r_epik_Ionization_Penalty>  (297) 
6.17489e-06

>  <r_epik_Ionization_Penalty_Charging>  (297) 
0

>  <r_epik_Ionization_Penalty_Neutral>  (297) 
6.17489e-06

>  <r_epik_State_Penalty>  (297) 
-0

>  <r_epik_Charging_Adjusted_Penalty>  (297) 
0

>  <i_epik_Tot_Q>  (297) 
0

>  <i_epik_Tot_abs_Q>  (297) 
0

>  <s_lp_Force_Field>  (297) 
OPLS3e

>  <r_lp_Energy>  (297) 
8.3302

>  <b_lp_Chiralities_Consistent>  (297) 
1

>  <s_lp_Variant>  (297) 
81:0-1

>  <s_i_glide_gridfile>  (297) 
pfpi4k_grid

>  <i_i_glide_lignum>  (297) 
38

>  <i_i_glide_rotatable_bonds>  (297) 
2

>  <r_i_docking_score>  (297) 
-2.37451

>  <r_i_glide_ligand_efficiency>  (297) 
-0.158301

>  <r_i_glide_ligand_efficiency_sa>  (297) 
-0.390404

>  <r_i_glide_ligand_efficiency_ln>  (297) 
-0.640368

>  <r_i_glide_gscore>  (297) 
-2.37451

>  <r_i_glide_lipo>  (297) 
-0.202362

>  <r_i_glide_hbond>  (297) 
-0.0335458

>  <r_i_glide_metal>  (297) 
-0

>  <r_i_glide_rewards>  (297) 
-2.00315

>  <r_i_glide_evdw>  (297) 
-13.2013

>  <r_i_glide_ecoul>  (297) 
-0.16328

>  <r_i_glide_erotb>  (297) 
0.776043

>  <r_i_glide_esite>  (297) 
-0.226942

>  <r_i_glide_emodel>  (297) 
-16.9481

>  <r_i_glide_energy>  (297) 
-13.3646

>  <r_i_glide_einternal>  (297) 
1.25099

>  <r_i_glide_intrahb_reward>  (297) 
-0

>  <i_i_glide_confnum>  (297) 
1

>  <i_i_glide_posenum>  (297) 
3

>  <r_i_glide_eff_state_penalty>  (297) 
0

>  <ligand_id>  (297) 
81

>  <original_smiles>  (297) 
c1nn2cnnc2c(=NC2CCOC2)[nH]1

>  <smiles>  (297) 
[H]c1nc(N([H])C2([H])C([H])([H])OC([H])([H])C2([H])[H])c2nnc([H])n2n1

$$$$
83:0:0
     RDKit          3D

 54 57  0  0  1  0  0  0  0  0999 V2000
    2.9930   -9.2281    1.3062 C   0  0  0  0  0  0  0  0  0  0  0  0
    3.7789   -8.1583    2.0445 C   0  0  0  0  0  0  0  0  0  0  0  0
    4.1743   -8.2649    3.3272 C   0  0  0  0  0  0  0  0  0  0  0  0
    5.0825   -7.2727    3.9777 C   0  0  2  0  0  0  0  0  0  0  0  0
    6.0995   -6.7306    2.9611 C   0  0  0  0  0  0  0  0  0  0  0  0
    5.4802   -6.2305    1.6147 C   0  0  1  0  0  0  0  0  0  0  0  0
    4.1198   -6.9014    1.2380 C   0  0  2  0  0  0  0  0  0  0  0  0
    2.9949   -5.8738    1.3161 C   0  0  0  0  0  0  0  0  0  0  0  0
    3.2052   -4.7394    0.3006 C   0  0  0  0  0  0  0  0  0  0  0  0
    4.6923   -4.3192    0.0391 C   0  0  1  0  0  0  0  0  0  0  0  0
    4.7812   -2.8102   -0.4444 C   0  0  0  0  0  0  0  0  0  0  0  0
    5.9967   -2.5691   -1.3738 C   0  0  0  0  0  0  0  0  0  0  0  0
    3.5424   -2.3686   -1.2726 C   0  0  0  0  0  0  0  0  0  0  0  0
    4.8897   -1.8802    0.7589 C   0  0  0  0  0  0  0  0  0  0  0  0
    5.0475   -2.2698    2.0409 C   0  0  0  0  0  0  0  0  0  0  0  0
    5.2082   -3.6892    2.4036 C   0  0  0  0  0  0  0  0  0  0  0  0
    5.0438   -4.0680    3.5594 O   0  0  0  0  0  0  0  0  0  0  0  0
    5.6071   -4.6783    1.2764 C   0  0  1  0  0  0  0  0  0  0  0  0
    7.1131   -4.4349    0.9752 C   0  0  0  0  0  0  0  0  0  0  0  0
    5.7246   -8.0005    5.0225 O   0  0  0  0  0  0  0  0  0  0  0  0
    4.8003   -8.9108    5.5388 C   0  0  1  0  0  0  0  0  0  0  0  0
    3.9735   -8.2976    6.5078 O   0  0  0  0  0  0  0  0  0  0  0  0
    3.9901   -9.3988    4.3074 C   0  0  1  0  0  0  0  0  0  0  0  0
    2.5231   -9.7510    4.6560 C   0  0  0  0  0  0  0  0  0  0  0  0
    3.4475   -9.4261    0.3366 H   0  0  0  0  0  0  0  0  0  0  0  0
    1.9621   -8.9152    1.1508 H   0  0  0  0  0  0  0  0  0  0  0  0
    2.9940  -10.1786    1.8354 H   0  0  0  0  0  0  0  0  0  0  0  0
    4.4725   -6.4761    4.4075 H   0  0  0  0  0  0  0  0  0  0  0  0
    6.7198   -5.9768    3.4410 H   0  0  0  0  0  0  0  0  0  0  0  0
    6.7854   -7.5482    2.7326 H   0  0  0  0  0  0  0  0  0  0  0  0
    6.1526   -6.6915    0.8887 H   0  0  0  0  0  0  0  0  0  0  0  0
    4.2070   -7.2181    0.1985 H   0  0  0  0  0  0  0  0  0  0  0  0
    2.0230   -6.3391    1.1563 H   0  0  0  0  0  0  0  0  0  0  0  0
    2.9678   -5.4597    2.3254 H   0  0  0  0  0  0  0  0  0  0  0  0
    2.7655   -5.0480   -0.6508 H   0  0  0  0  0  0  0  0  0  0  0  0
    2.6082   -3.9038    0.6603 H   0  0  0  0  0  0  0  0  0  0  0  0
    5.0259   -4.9433   -0.7931 H   0  0  0  0  0  0  0  0  0  0  0  0
    6.0578   -3.3221   -2.1629 H   0  0  0  0  0  0  0  0  0  0  0  0
    6.9476   -2.5641   -0.8452 H   0  0  0  0  0  0  0  0  0  0  0  0
    5.9275   -1.5956   -1.8632 H   0  0  0  0  0  0  0  0  0  0  0  0
    3.3208   -3.0653   -2.0844 H   0  0  0  0  0  0  0  0  0  0  0  0
    3.6885   -1.3817   -1.7152 H   0  0  0  0  0  0  0  0  0  0  0  0
    2.6445   -2.2609   -0.6612 H   0  0  0  0  0  0  0  0  0  0  0  0
    4.7917   -0.8244    0.5435 H   0  0  0  0  0  0  0  0  0  0  0  0
    5.0869   -1.5422    2.8352 H   0  0  0  0  0  0  0  0  0  0  0  0
    7.3795   -4.7576   -0.0311 H   0  0  0  0  0  0  0  0  0  0  0  0
    7.7604   -4.9825    1.6589 H   0  0  0  0  0  0  0  0  0  0  0  0
    7.4080   -3.3906    1.0784 H   0  0  0  0  0  0  0  0  0  0  0  0
    5.3325   -9.7249    6.0339 H   0  0  0  0  0  0  0  0  0  0  0  0
    3.3456   -8.9408    6.7934 H   0  0  0  0  0  0  0  0  0  0  0  0
    4.5019  -10.2704    3.8951 H   0  0  0  0  0  0  0  0  0  0  0  0
    2.0082  -10.2105    3.8158 H   0  0  0  0  0  0  0  0  0  0  0  0
    1.9538   -8.8663    4.9337 H   0  0  0  0  0  0  0  0  0  0  0  0
    2.4702  -10.4625    5.4784 H   0  0  0  0  0  0  0  0  0  0  0  0
  1  2  1  0
  1 25  1  0
  1 26  1  0
  1 27  1  0
  2  7  1  0
  2  3  2  0
  3 23  1  0
  3  4  1  0
  4  5  1  0
  4 20  1  0
  4 28  1  1
  5  6  1  0
  5 29  1  0
  5 30  1  0
  6 18  1  0
  6  7  1  0
  6 31  1  6
  7  8  1  0
  7 32  1  6
  8  9  1  0
  8 33  1  0
  8 34  1  0
  9 10  1  0
  9 35  1  0
  9 36  1  0
 10 18  1  0
 10 11  1  0
 10 37  1  6
 11 12  1  0
 11 13  1  0
 11 14  1  0
 12 38  1  0
 12 39  1  0
 12 40  1  0
 13 41  1  0
 13 42  1  0
 13 43  1  0
 14 15  2  0
 14 44  1  0
 15 16  1  0
 15 45  1  0
 16 17  2  0
 16 18  1  0
 18 19  1  6
 19 46  1  0
 19 47  1  0
 19 48  1  0
 20 21  1  0
 21 22  1  0
 21 23  1  0
 21 49  1  1
 22 50  1  0
 23 24  1  0
 23 51  1  6
 24 52  1  0
 24 53  1  0
 24 54  1  0
M  END
>  <i_m_ct_stereo_status>  (298) 
1

>  <s_m_source_file>  (298) 
/var/tmp/pbs.5076255.sched01/tmptpdlle0r/921kky2sk3.sdf

>  <i_m_source_file_index>  (298) 
40

>  <i_lp_mmshare_version>  (298) 
48012

>  <i_f3d_flags>  (298) 
0

>  <s_epik_input>  (298) 
W0NIM11bQ0BASF0xW0NASF0oW09IXSlPW0NAQEhdKFtDSDJdMilDMT1DKFtDSDNdKVtDQEhdKFtDQEhdMltDQEBdMzRbQ0gzXSlbQ0gyXVtDSDJdW0NASF0zQyhbQ0gzXSkoW0NIM10pW0NIXT1bQ0hdQzQ9Tw==

>  <s_epik_cmdline>  (298) 
J2VwaWtfcHl0aG9uJywgJy1waHQnLCAnMi4wJywgJy1waCcsICc3LjAnLCAnLXRuJywgJzgnLCAnLW1hJywgJzIwMCcsICctaW1hZScsICc8aW5maWxlLm1hZT4nLCAnLW9tYWUnLCAnPG91dGZpbGUubWFlPic=

>  <r_lp_tautomer_probability>  (298) 
1

>  <r_epik_Ionization_Penalty>  (298) 
7.10486e-08

>  <r_epik_Ionization_Penalty_Charging>  (298) 
0

>  <r_epik_Ionization_Penalty_Neutral>  (298) 
7.10486e-08

>  <r_epik_State_Penalty>  (298) 
-0

>  <r_epik_Charging_Adjusted_Penalty>  (298) 
0

>  <i_epik_Tot_Q>  (298) 
0

>  <i_epik_Tot_abs_Q>  (298) 
0

>  <s_epik_Chemistry_Notes>  (298) 
This compound contains an acetal/aminal-like group ( X-CH(R)-Y where X, Y are N, S, or O) that may be acid/base labile, releasing an aldehyde.

>  <s_lp_Force_Field>  (298) 
OPLS3e

>  <r_lp_Energy>  (298) 
42.1408

>  <b_lp_Chiralities_Consistent>  (298) 
1

>  <s_lp_Variant>  (298) 
83:0-1

>  <s_i_glide_gridfile>  (298) 
pfpi4k_grid

>  <i_i_glide_lignum>  (298) 
40

>  <i_i_glide_rotatable_bonds>  (298) 
1

>  <r_i_docking_score>  (298) 
-3.01473

>  <r_i_glide_ligand_efficiency>  (298) 
-0.125614

>  <r_i_glide_ligand_efficiency_sa>  (298) 
-0.362333

>  <r_i_glide_ligand_efficiency_ln>  (298) 
-0.721564

>  <r_i_glide_gscore>  (298) 
-3.01473

>  <r_i_glide_lipo>  (298) 
-0.475994

>  <r_i_glide_hbond>  (298) 
0

>  <r_i_glide_metal>  (298) 
-0

>  <r_i_glide_rewards>  (298) 
-1.20805

>  <r_i_glide_evdw>  (298) 
-23.2057

>  <r_i_glide_ecoul>  (298) 
-1.13219

>  <r_i_glide_erotb>  (298) 
0

>  <r_i_glide_esite>  (298) 
-0.000578218

>  <r_i_glide_emodel>  (298) 
-27.8707

>  <r_i_glide_energy>  (298) 
-24.3379

>  <r_i_glide_einternal>  (298) 
1.87593

>  <r_i_glide_intrahb_reward>  (298) 
-0

>  <i_i_glide_confnum>  (298) 
2

>  <i_i_glide_posenum>  (298) 
33

>  <r_i_glide_eff_state_penalty>  (298) 
0

>  <ligand_id>  (298) 
83

>  <original_smiles>  (298) 
CC1=C2C(CC3C1CCC1C(C)(C)C=CC(=O)C31C)OC(O)C2C

>  <smiles>  (298) 
[H]OC1([H])OC2([H])C(=C(C([H])([H])[H])C3([H])C([H])([H])C([H])([H])C4([H])C(C([H])([H])[H])(C([H])([H])[H])C([H])=C([H])C(=O)C4(C([H])([H])[H])C3([H])C2([H])[H])C1([H])C([H])([H])[H]

$$$$
83:0:1
     RDKit          3D

 54 57  0  0  1  0  0  0  0  0999 V2000
    3.1614   -9.0485    1.6132 C   0  0  0  0  0  0  0  0  0  0  0  0
    3.9721   -7.9174    2.2246 C   0  0  0  0  0  0  0  0  0  0  0  0
    4.4330   -7.9201    3.4902 C   0  0  0  0  0  0  0  0  0  0  0  0
    5.3612   -6.8700    4.0165 C   0  0  2  0  0  0  0  0  0  0  0  0
    6.3206   -6.4037    2.9094 C   0  0  0  0  0  0  0  0  0  0  0  0
    5.6317   -6.0192    1.5596 C   0  0  1  0  0  0  0  0  0  0  0  0
    4.2595   -6.7261    1.3061 C   0  0  2  0  0  0  0  0  0  0  0  0
    3.1295   -5.7032    1.3597 C   0  0  0  0  0  0  0  0  0  0  0  0
    3.2758   -4.6552    0.2435 C   0  0  0  0  0  0  0  0  0  0  0  0
    4.7436   -4.2444   -0.1211 C   0  0  1  0  0  0  0  0  0  0  0  0
    4.7911   -2.7796   -0.7300 C   0  0  0  0  0  0  0  0  0  0  0  0
    5.9568   -2.6085   -1.7332 C   0  0  0  0  0  0  0  0  0  0  0  0
    3.5076   -2.4157   -1.5263 C   0  0  0  0  0  0  0  0  0  0  0  0
    4.9491   -1.7536    0.3890 C   0  0  0  0  0  0  0  0  0  0  0  0
    5.1785   -2.0397    1.6885 C   0  0  0  0  0  0  0  0  0  0  0  0
    5.3698   -3.4233    2.1550 C   0  0  0  0  0  0  0  0  0  0  0  0
    5.2645   -3.7107    3.3424 O   0  0  0  0  0  0  0  0  0  0  0  0
    5.7245   -4.4979    1.0912 C   0  0  1  0  0  0  0  0  0  0  0  0
    7.2115   -4.2640    0.6989 C   0  0  0  0  0  0  0  0  0  0  0  0
    6.0598   -7.5048    5.0832 O   0  0  0  0  0  0  0  0  0  0  0  0
    5.1720   -8.3793    5.7157 C   0  0  1  0  0  0  0  0  0  0  0  0
    4.3968   -7.6946    6.6714 O   0  0  0  0  0  0  0  0  0  0  0  0
    4.3089   -8.9685    4.5673 C   0  0  1  0  0  0  0  0  0  0  0  0
    2.8651   -9.3025    5.0152 C   0  0  0  0  0  0  0  0  0  0  0  0
    3.5669   -9.3124    0.6369 H   0  0  0  0  0  0  0  0  0  0  0  0
    2.1205   -8.7565    1.4840 H   0  0  0  0  0  0  0  0  0  0  0  0
    3.1996   -9.9554    2.2141 H   0  0  0  0  0  0  0  0  0  0  0  0
    4.7644   -6.0460    4.4088 H   0  0  0  0  0  0  0  0  0  0  0  0
    6.9564   -5.6101    3.2958 H   0  0  0  0  0  0  0  0  0  0  0  0
    7.0047   -7.2336    2.7131 H   0  0  0  0  0  0  0  0  0  0  0  0
    6.2730   -6.5325    0.8414 H   0  0  0  0  0  0  0  0  0  0  0  0
    4.2941   -7.1252    0.2916 H   0  0  0  0  0  0  0  0  0  0  0  0
    2.1568   -6.1872    1.2880 H   0  0  0  0  0  0  0  0  0  0  0  0
    3.1493   -5.2112    2.3333 H   0  0  0  0  0  0  0  0  0  0  0  0
    2.7945   -5.0403   -0.6585 H   0  0  0  0  0  0  0  0  0  0  0  0
    2.6880   -3.7964    0.5689 H   0  0  0  0  0  0  0  0  0  0  0  0
    5.0421   -4.9323   -0.9171 H   0  0  0  0  0  0  0  0  0  0  0  0
    5.9876   -3.4218   -2.4617 H   0  0  0  0  0  0  0  0  0  0  0  0
    6.9326   -2.5535   -1.2567 H   0  0  0  0  0  0  0  0  0  0  0  0
    5.8492   -1.6789   -2.2943 H   0  0  0  0  0  0  0  0  0  0  0  0
    3.2559   -3.1778   -2.2679 H   0  0  0  0  0  0  0  0  0  0  0  0
    3.6227   -1.4667   -2.0541 H   0  0  0  0  0  0  0  0  0  0  0  0
    2.6390   -2.2649   -0.8841 H   0  0  0  0  0  0  0  0  0  0  0  0
    4.8286   -0.7204    0.0955 H   0  0  0  0  0  0  0  0  0  0  0  0
    5.2474   -1.2488    2.4197 H   0  0  0  0  0  0  0  0  0  0  0  0
    7.4344   -4.6564   -0.2947 H   0  0  0  0  0  0  0  0  0  0  0  0
    7.8976   -4.7544    1.3881 H   0  0  0  0  0  0  0  0  0  0  0  0
    7.4996   -3.2119    0.7093 H   0  0  0  0  0  0  0  0  0  0  0  0
    5.7324   -9.1494    6.2473 H   0  0  0  0  0  0  0  0  0  0  0  0
    4.9742   -7.4202    7.3688 H   0  0  0  0  0  0  0  0  0  0  0  0
    4.8106   -9.8670    4.2051 H   0  0  0  0  0  0  0  0  0  0  0  0
    2.3142   -9.8329    4.2430 H   0  0  0  0  0  0  0  0  0  0  0  0
    2.3040   -8.4021    5.2537 H   0  0  0  0  0  0  0  0  0  0  0  0
    2.8655   -9.9425    5.8966 H   0  0  0  0  0  0  0  0  0  0  0  0
  1  2  1  0
  1 25  1  0
  1 26  1  0
  1 27  1  0
  2  7  1  0
  2  3  2  0
  3 23  1  0
  3  4  1  0
  4  5  1  0
  4 20  1  0
  4 28  1  1
  5  6  1  0
  5 29  1  0
  5 30  1  0
  6 18  1  0
  6  7  1  0
  6 31  1  6
  7  8  1  0
  7 32  1  6
  8  9  1  0
  8 33  1  0
  8 34  1  0
  9 10  1  0
  9 35  1  0
  9 36  1  0
 10 18  1  0
 10 11  1  0
 10 37  1  6
 11 12  1  0
 11 13  1  0
 11 14  1  0
 12 38  1  0
 12 39  1  0
 12 40  1  0
 13 41  1  0
 13 42  1  0
 13 43  1  0
 14 15  2  0
 14 44  1  0
 15 16  1  0
 15 45  1  0
 16 17  2  0
 16 18  1  0
 18 19  1  6
 19 46  1  0
 19 47  1  0
 19 48  1  0
 20 21  1  0
 21 22  1  0
 21 23  1  0
 21 49  1  1
 22 50  1  0
 23 24  1  0
 23 51  1  6
 24 52  1  0
 24 53  1  0
 24 54  1  0
M  END
>  <i_m_ct_stereo_status>  (299) 
1

>  <s_m_source_file>  (299) 
/var/tmp/pbs.5076255.sched01/tmptpdlle0r/921kky2sk3.sdf

>  <i_m_source_file_index>  (299) 
40

>  <i_lp_mmshare_version>  (299) 
48012

>  <i_f3d_flags>  (299) 
0

>  <s_epik_input>  (299) 
W0NIM11bQ0BASF0xW0NASF0oW09IXSlPW0NAQEhdKFtDSDJdMilDMT1DKFtDSDNdKVtDQEhdKFtDQEhdMltDQEBdMzRbQ0gzXSlbQ0gyXVtDSDJdW0NASF0zQyhbQ0gzXSkoW0NIM10pW0NIXT1bQ0hdQzQ9Tw==

>  <s_epik_cmdline>  (299) 
J2VwaWtfcHl0aG9uJywgJy1waHQnLCAnMi4wJywgJy1waCcsICc3LjAnLCAnLXRuJywgJzgnLCAnLW1hJywgJzIwMCcsICctaW1hZScsICc8aW5maWxlLm1hZT4nLCAnLW9tYWUnLCAnPG91dGZpbGUubWFlPic=

>  <r_lp_tautomer_probability>  (299) 
1

>  <r_epik_Ionization_Penalty>  (299) 
7.10486e-08

>  <r_epik_Ionization_Penalty_Charging>  (299) 
0

>  <r_epik_Ionization_Penalty_Neutral>  (299) 
7.10486e-08

>  <r_epik_State_Penalty>  (299) 
-0

>  <r_epik_Charging_Adjusted_Penalty>  (299) 
0

>  <i_epik_Tot_Q>  (299) 
0

>  <i_epik_Tot_abs_Q>  (299) 
0

>  <s_epik_Chemistry_Notes>  (299) 
This compound contains an acetal/aminal-like group ( X-CH(R)-Y where X, Y are N, S, or O) that may be acid/base labile, releasing an aldehyde.

>  <s_lp_Force_Field>  (299) 
OPLS3e

>  <r_lp_Energy>  (299) 
42.1408

>  <b_lp_Chiralities_Consistent>  (299) 
1

>  <s_lp_Variant>  (299) 
83:0-1

>  <s_i_glide_gridfile>  (299) 
pfpi4k_grid

>  <i_i_glide_lignum>  (299) 
40

>  <i_i_glide_rotatable_bonds>  (299) 
1

>  <r_i_docking_score>  (299) 
-2.98169

>  <r_i_glide_ligand_efficiency>  (299) 
-0.124237

>  <r_i_glide_ligand_efficiency_sa>  (299) 
-0.358362

>  <r_i_glide_ligand_efficiency_ln>  (299) 
-0.713655

>  <r_i_glide_gscore>  (299) 
-2.98169

>  <r_i_glide_lipo>  (299) 
-0.509297

>  <r_i_glide_hbond>  (299) 
0

>  <r_i_glide_metal>  (299) 
-0

>  <r_i_glide_rewards>  (299) 
-1.20898

>  <r_i_glide_evdw>  (299) 
-23.318

>  <r_i_glide_ecoul>  (299) 
-0.650072

>  <r_i_glide_erotb>  (299) 
0

>  <r_i_glide_esite>  (299) 
0

>  <r_i_glide_emodel>  (299) 
-28.2375

>  <r_i_glide_energy>  (299) 
-23.9681

>  <r_i_glide_einternal>  (299) 
0.279068

>  <r_i_glide_intrahb_reward>  (299) 
-0

>  <i_i_glide_confnum>  (299) 
2

>  <i_i_glide_posenum>  (299) 
1

>  <r_i_glide_eff_state_penalty>  (299) 
0

>  <ligand_id>  (299) 
83

>  <original_smiles>  (299) 
CC1=C2C(CC3C1CCC1C(C)(C)C=CC(=O)C31C)OC(O)C2C

>  <smiles>  (299) 
[H]OC1([H])OC2([H])C(=C(C([H])([H])[H])C3([H])C([H])([H])C([H])([H])C4([H])C(C([H])([H])[H])(C([H])([H])[H])C([H])=C([H])C(=O)C4(C([H])([H])[H])C3([H])C2([H])[H])C1([H])C([H])([H])[H]

$$$$
83:0:2
     RDKit          3D

 54 57  0  0  1  0  0  0  0  0999 V2000
    2.7679   -7.7431    2.4163 C   0  0  0  0  0  0  0  0  0  0  0  0
    3.5538   -6.4494    2.5536 C   0  0  0  0  0  0  0  0  0  0  0  0
    4.0645   -5.9936    3.7142 C   0  0  0  0  0  0  0  0  0  0  0  0
    4.9675   -4.8041    3.7853 C   0  0  2  0  0  0  0  0  0  0  0  0
    5.8477   -4.7389    2.5249 C   0  0  0  0  0  0  0  0  0  0  0  0
    5.0910   -4.8631    1.1747 C   0  0  1  0  0  0  0  0  0  0  0  0
    3.7491   -5.6512    1.2635 C   0  0  2  0  0  0  0  0  0  0  0  0
    2.5882   -4.6948    1.0375 C   0  0  0  0  0  0  0  0  0  0  0  0
    2.6312   -4.0738   -0.3686 C   0  0  0  0  0  0  0  0  0  0  0  0
    4.0608   -3.7878   -0.9411 C   0  0  1  0  0  0  0  0  0  0  0  0
    4.0155   -2.6386   -2.0274 C   0  0  0  0  0  0  0  0  0  0  0  0
    5.1250   -2.8036   -3.0865 C   0  0  0  0  0  0  0  0  0  0  0  0
    2.6941   -2.6213   -2.8488 C   0  0  0  0  0  0  0  0  0  0  0  0
    4.1811   -1.2824   -1.3479 C   0  0  0  0  0  0  0  0  0  0  0  0
    4.4740   -1.0863   -0.0429 C   0  0  0  0  0  0  0  0  0  0  0  0
    4.7455   -2.2111    0.8698 C   0  0  0  0  0  0  0  0  0  0  0  0
    4.7143   -2.0668    2.0858 O   0  0  0  0  0  0  0  0  0  0  0  0
    5.0983   -3.5796    0.2252 C   0  0  1  0  0  0  0  0  0  0  0  0
    6.5515   -3.4569   -0.3057 C   0  0  0  0  0  0  0  0  0  0  0  0
    5.7383   -5.0067    4.9704 O   0  0  0  0  0  0  0  0  0  0  0  0
    4.9212   -5.6329    5.9157 C   0  0  1  0  0  0  0  0  0  0  0  0
    4.1569   -4.6818    6.6252 O   0  0  0  0  0  0  0  0  0  0  0  0
    4.0366   -6.6059    5.0926 C   0  0  1  0  0  0  0  0  0  0  0  0
    2.6315   -6.8041    5.7099 C   0  0  0  0  0  0  0  0  0  0  0  0
    3.1448   -8.3131    1.5684 H   0  0  0  0  0  0  0  0  0  0  0  0
    1.7120   -7.5392    2.2522 H   0  0  0  0  0  0  0  0  0  0  0  0
    2.8742   -8.3799    3.2914 H   0  0  0  0  0  0  0  0  0  0  0  0
    4.3513   -3.9112    3.9002 H   0  0  0  0  0  0  0  0  0  0  0  0
    6.4434   -3.8339    2.5246 H   0  0  0  0  0  0  0  0  0  0  0  0
    6.5670   -5.5555    2.5921 H   0  0  0  0  0  0  0  0  0  0  0  0
    5.7247   -5.5713    0.6356 H   0  0  0  0  0  0  0  0  0  0  0  0
    3.7588   -6.3744    0.4481 H   0  0  0  0  0  0  0  0  0  0  0  0
    1.6419   -5.2140    1.1818 H   0  0  0  0  0  0  0  0  0  0  0  0
    2.6258   -3.9048    1.7905 H   0  0  0  0  0  0  0  0  0  0  0  0
    2.1149   -4.7491   -1.0536 H   0  0  0  0  0  0  0  0  0  0  0  0
    2.0323   -3.1643   -0.3325 H   0  0  0  0  0  0  0  0  0  0  0  0
    4.3648   -4.6941   -1.4654 H   0  0  0  0  0  0  0  0  0  0  0  0
    5.1501   -3.8154   -3.4986 H   0  0  0  0  0  0  0  0  0  0  0  0
    6.1185   -2.5691   -2.7134 H   0  0  0  0  0  0  0  0  0  0  0  0
    4.9578   -2.1138   -3.9140 H   0  0  0  0  0  0  0  0  0  0  0  0
    2.4558   -3.6026   -3.2680 H   0  0  0  0  0  0  0  0  0  0  0  0
    2.7520   -1.9108   -3.6756 H   0  0  0  0  0  0  0  0  0  0  0  0
    1.8364   -2.2850   -2.2689 H   0  0  0  0  0  0  0  0  0  0  0  0
    4.0057   -0.4259   -1.9822 H   0  0  0  0  0  0  0  0  0  0  0  0
    4.5358   -0.0905    0.3610 H   0  0  0  0  0  0  0  0  0  0  0  0
    6.7208   -4.1674   -1.1124 H   0  0  0  0  0  0  0  0  0  0  0  0
    7.2935   -3.6676    0.4620 H   0  0  0  0  0  0  0  0  0  0  0  0
    6.7943   -2.4633   -0.6821 H   0  0  0  0  0  0  0  0  0  0  0  0
    5.5375   -6.1547    6.6504 H   0  0  0  0  0  0  0  0  0  0  0  0
    4.7504   -4.1522    7.1350 H   0  0  0  0  0  0  0  0  0  0  0  0
    4.5647   -7.5583    5.0277 H   0  0  0  0  0  0  0  0  0  0  0  0
    2.0718   -7.5834    5.2001 H   0  0  0  0  0  0  0  0  0  0  0  0
    2.0434   -5.8914    5.6543 H   0  0  0  0  0  0  0  0  0  0  0  0
    2.7035   -7.0965    6.7564 H   0  0  0  0  0  0  0  0  0  0  0  0
  1  2  1  0
  1 25  1  0
  1 26  1  0
  1 27  1  0
  2  7  1  0
  2  3  2  0
  3 23  1  0
  3  4  1  0
  4  5  1  0
  4 20  1  0
  4 28  1  1
  5  6  1  0
  5 29  1  0
  5 30  1  0
  6 18  1  0
  6  7  1  0
  6 31  1  6
  7  8  1  0
  7 32  1  6
  8  9  1  0
  8 33  1  0
  8 34  1  0
  9 10  1  0
  9 35  1  0
  9 36  1  0
 10 18  1  0
 10 11  1  0
 10 37  1  6
 11 12  1  0
 11 13  1  0
 11 14  1  0
 12 38  1  0
 12 39  1  0
 12 40  1  0
 13 41  1  0
 13 42  1  0
 13 43  1  0
 14 15  2  0
 14 44  1  0
 15 16  1  0
 15 45  1  0
 16 17  2  0
 16 18  1  0
 18 19  1  6
 19 46  1  0
 19 47  1  0
 19 48  1  0
 20 21  1  0
 21 22  1  0
 21 23  1  0
 21 49  1  1
 22 50  1  0
 23 24  1  0
 23 51  1  6
 24 52  1  0
 24 53  1  0
 24 54  1  0
M  END
>  <i_m_ct_stereo_status>  (300) 
1

>  <s_m_source_file>  (300) 
/var/tmp/pbs.5076255.sched01/tmptpdlle0r/921kky2sk3.sdf

>  <i_m_source_file_index>  (300) 
40

>  <i_lp_mmshare_version>  (300) 
48012

>  <i_f3d_flags>  (300) 
0

>  <s_epik_input>  (300) 
W0NIM11bQ0BASF0xW0NASF0oW09IXSlPW0NAQEhdKFtDSDJdMilDMT1DKFtDSDNdKVtDQEhdKFtDQEhdMltDQEBdMzRbQ0gzXSlbQ0gyXVtDSDJdW0NASF0zQyhbQ0gzXSkoW0NIM10pW0NIXT1bQ0hdQzQ9Tw==

>  <s_epik_cmdline>  (300) 
J2VwaWtfcHl0aG9uJywgJy1waHQnLCAnMi4wJywgJy1waCcsICc3LjAnLCAnLXRuJywgJzgnLCAnLW1hJywgJzIwMCcsICctaW1hZScsICc8aW5maWxlLm1hZT4nLCAnLW9tYWUnLCAnPG91dGZpbGUubWFlPic=

>  <r_lp_tautomer_probability>  (300) 
1

>  <r_epik_Ionization_Penalty>  (300) 
7.10486e-08

>  <r_epik_Ionization_Penalty_Charging>  (300) 
0

>  <r_epik_Ionization_Penalty_Neutral>  (300) 
7.10486e-08

>  <r_epik_State_Penalty>  (300) 
-0

>  <r_epik_Charging_Adjusted_Penalty>  (300) 
0

>  <i_epik_Tot_Q>  (300) 
0

>  <i_epik_Tot_abs_Q>  (300) 
0

>  <s_epik_Chemistry_Notes>  (300) 
This compound contains an acetal/aminal-like group ( X-CH(R)-Y where X, Y are N, S, or O) that may be acid/base labile, releasing an aldehyde.

>  <s_lp_Force_Field>  (300) 
OPLS3e

>  <r_lp_Energy>  (300) 
42.1408

>  <b_lp_Chiralities_Consistent>  (300) 
1

>  <s_lp_Variant>  (300) 
83:0-1

>  <s_i_glide_gridfile>  (300) 
pfpi4k_grid

>  <i_i_glide_lignum>  (300) 
40

>  <i_i_glide_rotatable_bonds>  (300) 
1

>  <r_i_docking_score>  (300) 
-2.76605

>  <r_i_glide_ligand_efficiency>  (300) 
-0.115252

>  <r_i_glide_ligand_efficiency_sa>  (300) 
-0.332445

>  <r_i_glide_ligand_efficiency_ln>  (300) 
-0.662044

>  <r_i_glide_gscore>  (300) 
-2.76605

>  <r_i_glide_lipo>  (300) 
-0.393497

>  <r_i_glide_hbond>  (300) 
0

>  <r_i_glide_metal>  (300) 
-0

>  <r_i_glide_rewards>  (300) 
-1.17819

>  <r_i_glide_evdw>  (300) 
-22.95

>  <r_i_glide_ecoul>  (300) 
-0.312455

>  <r_i_glide_erotb>  (300) 
0

>  <r_i_glide_esite>  (300) 
0

>  <r_i_glide_emodel>  (300) 
-27.1859

>  <r_i_glide_energy>  (300) 
-23.2624

>  <r_i_glide_einternal>  (300) 
0.282014

>  <r_i_glide_intrahb_reward>  (300) 
-0

>  <i_i_glide_confnum>  (300) 
1

>  <i_i_glide_posenum>  (300) 
35

>  <r_i_glide_eff_state_penalty>  (300) 
0

>  <ligand_id>  (300) 
83

>  <original_smiles>  (300) 
CC1=C2C(CC3C1CCC1C(C)(C)C=CC(=O)C31C)OC(O)C2C

>  <smiles>  (300) 
[H]OC1([H])OC2([H])C(=C(C([H])([H])[H])C3([H])C([H])([H])C([H])([H])C4([H])C(C([H])([H])[H])(C([H])([H])[H])C([H])=C([H])C(=O)C4(C([H])([H])[H])C3([H])C2([H])[H])C1([H])C([H])([H])[H]

$$$$
84:0:0
     RDKit          3D

 44 47  0  0  1  0  0  0  0  0999 V2000
    2.7246  -11.6450    4.6755 C   0  0  0  0  0  0  0  0  0  0  0  0
    2.8188  -11.0608    3.2588 C   0  0  2  0  0  0  0  0  0  0  0  0
    4.2138  -10.5231    2.9107 C   0  0  0  0  0  0  0  0  0  0  0  0
    4.0022   -9.3980    2.0052 N   0  0  0  0  0  0  0  0  0  0  0  0
    5.0042   -8.4287    1.7634 C   0  0  0  0  0  0  0  0  0  0  0  0
    4.5660   -7.2219    1.3222 N   0  0  0  0  0  0  0  0  0  0  0  0
    5.4479   -6.2180    1.1010 C   0  0  0  0  0  0  0  0  0  0  0  0
    6.8436   -6.3999    1.2948 C   0  0  0  0  0  0  0  0  0  0  0  0
    7.3062   -7.6519    1.7429 C   0  0  0  0  0  0  0  0  0  0  0  0
    6.3814   -8.6919    1.9817 C   0  0  0  0  0  0  0  0  0  0  0  0
    6.8470   -9.8934    2.3971 F   0  0  0  0  0  0  0  0  0  0  0  0
    7.8207   -5.2965    0.9981 C   0  0  0  0  0  0  0  0  0  0  0  0
    9.0259   -5.4556    1.1828 O   0  0  0  0  0  0  0  0  0  0  0  0
    7.2517   -4.0351    0.4465 C   0  0  0  0  0  0  0  0  0  0  0  0
    8.0947   -2.7693    0.0310 C   0  0  0  0  0  0  0  0  0  0  0  0
    7.5106   -1.9272   -0.7011 O   0  0  0  0  0  0  0  0  0  0  0  0
    9.2569   -2.6763    0.4738 O   0  0  0  0  0  0  0  0  0  0  0  0
    5.9135   -3.9631    0.3380 C   0  0  0  0  0  0  0  0  0  0  0  0
    4.9887   -4.9499    0.6470 N   0  0  0  0  0  0  0  0  0  0  0  0
    3.5480   -4.6851    0.4766 C   0  0  0  0  0  0  0  0  0  0  0  0
    3.0780   -3.8369   -0.6984 C   0  0  0  0  0  0  0  0  0  0  0  0
    3.0000   -3.2805    0.7106 C   0  0  0  0  0  0  0  0  0  0  0  0
    2.5871   -9.0621    1.9129 C   0  0  0  0  0  0  0  0  0  0  0  0
    1.9200   -9.8430    3.0521 C   0  0  1  0  0  0  0  0  0  0  0  0
    0.5235  -10.1773    2.7332 N   0  0  0  0  0  0  0  0  0  0  0  0
    2.9981  -10.9056    5.4244 H   0  0  0  0  0  0  0  0  0  0  0  0
    3.3815  -12.5017    4.8071 H   0  0  0  0  0  0  0  0  0  0  0  0
    1.7130  -11.9724    4.9061 H   0  0  0  0  0  0  0  0  0  0  0  0
    2.5676  -11.8280    2.5322 H   0  0  0  0  0  0  0  0  0  0  0  0
    4.7394  -10.1905    3.8021 H   0  0  0  0  0  0  0  0  0  0  0  0
    4.8142  -11.3136    2.4665 H   0  0  0  0  0  0  0  0  0  0  0  0
    8.3655   -7.8331    1.8881 H   0  0  0  0  0  0  0  0  0  0  0  0
    5.4912   -3.0410   -0.0303 H   0  0  0  0  0  0  0  0  0  0  0  0
    2.9059   -5.5084    0.7756 H   0  0  0  0  0  0  0  0  0  0  0  0
    3.8408   -3.4673   -1.3837 H   0  0  0  0  0  0  0  0  0  0  0  0
    2.1394   -4.0971   -1.1846 H   0  0  0  0  0  0  0  0  0  0  0  0
    2.0032   -3.1653    1.1336 H   0  0  0  0  0  0  0  0  0  0  0  0
    3.6948   -2.4997    1.0162 H   0  0  0  0  0  0  0  0  0  0  0  0
    2.3597   -8.0028    2.0249 H   0  0  0  0  0  0  0  0  0  0  0  0
    2.2210   -9.3501    0.9273 H   0  0  0  0  0  0  0  0  0  0  0  0
    1.9491   -9.2342    3.9590 H   0  0  0  0  0  0  0  0  0  0  0  0
    0.5172  -10.6783    1.8561 H   0  0  0  0  0  0  0  0  0  0  0  0
    0.0036   -9.3207    2.6136 H   0  0  0  0  0  0  0  0  0  0  0  0
    0.1028  -10.7352    3.4611 H   0  0  0  0  0  0  0  0  0  0  0  0
  1  2  1  0
  1 26  1  0
  1 27  1  0
  1 28  1  0
  2 24  1  0
  2  3  1  0
  2 29  1  6
  3  4  1  0
  3 30  1  0
  3 31  1  0
  4  5  1  0
  4 23  1  0
  5 10  1  0
  5  6  2  0
  6  7  1  0
  7 19  1  0
  7  8  2  0
  8  9  1  0
  8 12  1  0
  9 10  2  0
  9 32  1  0
 10 11  1  0
 12 13  2  0
 12 14  1  0
 14 15  1  0
 14 18  2  0
 15 16  2  0
 15 17  1  0
 18 19  1  0
 18 33  1  0
 19 20  1  0
 20 22  1  0
 20 21  1  0
 20 34  1  0
 21 22  1  0
 21 35  1  0
 21 36  1  0
 22 37  1  0
 22 38  1  0
 23 24  1  0
 23 39  1  0
 23 40  1  0
 24 25  1  0
 24 41  1  1
 25 42  1  0
 25 43  1  0
 25 44  1  0
M  CHG  2  17  -1  25   1
M  END
>  <i_m_ct_stereo_status>  (301) 
1

>  <s_m_source_file>  (301) 
/var/tmp/pbs.5076255.sched01/tmptpdlle0r/921kky2sk3.sdf

>  <i_m_source_file_index>  (301) 
41

>  <i_lp_mmshare_version>  (301) 
48012

>  <i_f3d_flags>  (301) 
0

>  <s_epik_input>  (301) 
W0NIM11bQ0BASF0xW0NIMl1OKFtDSDJdW0NASF0xW05IMl0pYyhuMiljKEYpW2NIXWMoYzIzKWMoPU8pYyhDKD1PKVtPSF0pW2NIXW4zW0NIXTRbQ0gyXVtDSDJdNA==

>  <s_epik_cmdline>  (301) 
J2VwaWtfcHl0aG9uJywgJy1waHQnLCAnMi4wJywgJy1waCcsICc3LjAnLCAnLXRuJywgJzgnLCAnLW1hJywgJzIwMCcsICctaW1hZScsICc8aW5maWxlLm1hZT4nLCAnLW9tYWUnLCAnPG91dGZpbGUubWFlPic=

>  <r_epik_Ionization_Penalty>  (301) 
0.0529901

>  <r_epik_Ionization_Penalty_Charging>  (301) 
0.0529901

>  <r_epik_Ionization_Penalty_Neutral>  (301) 
7.01732e-13

>  <r_epik_State_Penalty>  (301) 
0.0444315

>  <r_epik_Charging_Adjusted_Penalty>  (301) 
0.0974216

>  <i_epik_Tot_Q>  (301) 
0

>  <i_epik_Tot_abs_Q>  (301) 
2

>  <s_lp_Force_Field>  (301) 
OPLS3e

>  <r_lp_Energy>  (301) 
14.1764

>  <b_lp_Chiralities_Consistent>  (301) 
1

>  <s_lp_Variant>  (301) 
84:0-1

>  <s_i_glide_gridfile>  (301) 
pfpi4k_grid

>  <i_i_glide_lignum>  (301) 
41

>  <i_i_glide_rotatable_bonds>  (301) 
3

>  <r_i_docking_score>  (301) 
-4.56226

>  <r_i_glide_ligand_efficiency>  (301) 
-0.18249

>  <r_i_glide_ligand_efficiency_sa>  (301) 
-0.533605

>  <r_i_glide_ligand_efficiency_ln>  (301) 
-1.08139

>  <r_i_glide_gscore>  (301) 
-4.56226

>  <r_i_glide_lipo>  (301) 
-0.595545

>  <r_i_glide_hbond>  (301) 
-0.20691

>  <r_i_glide_metal>  (301) 
-0

>  <r_i_glide_rewards>  (301) 
-1.47167

>  <r_i_glide_evdw>  (301) 
-28.2983

>  <r_i_glide_ecoul>  (301) 
-7.59965

>  <r_i_glide_erotb>  (301) 
0.316951

>  <r_i_glide_esite>  (301) 
-0.0502195

>  <r_i_glide_emodel>  (301) 
-47.1529

>  <r_i_glide_energy>  (301) 
-35.8979

>  <r_i_glide_einternal>  (301) 
6.95226

>  <r_i_glide_intrahb_reward>  (301) 
-0

>  <i_i_glide_confnum>  (301) 
5

>  <i_i_glide_posenum>  (301) 
15

>  <r_i_glide_eff_state_penalty>  (301) 
0

>  <ligand_id>  (301) 
84

>  <original_smiles>  (301) 
CC1CN(c2nc3c(cc2F)c(=O)c(C(=O)O)cn3C2CC2)CC1N

>  <smiles>  (301) 
[H]c1c(F)c(N2C([H])([H])C([H])(C([H])([H])[H])C([H])([N+]([H])([H])[H])C2([H])[H])nc2c1c(=O)c(C(=O)[O-])c([H])n2C1([H])C([H])([H])C1([H])[H]

$$$$
84:0:1
     RDKit          3D

 44 47  0  0  1  0  0  0  0  0999 V2000
    2.8295  -10.7502    2.8713 C   0  0  0  0  0  0  0  0  0  0  0  0
    1.5236  -10.0175    3.1916 C   0  0  2  0  0  0  0  0  0  0  0  0
    1.5312   -8.5557    2.7324 C   0  0  0  0  0  0  0  0  0  0  0  0
    0.7098   -7.8124    3.6903 N   0  0  0  0  0  0  0  0  0  0  0  0
    0.8136   -6.4147    3.8484 C   0  0  0  0  0  0  0  0  0  0  0  0
    0.2127   -5.8962    4.9494 N   0  0  0  0  0  0  0  0  0  0  0  0
    0.2914   -4.5648    5.2023 C   0  0  0  0  0  0  0  0  0  0  0  0
    0.9506   -3.6753    4.3234 C   0  0  0  0  0  0  0  0  0  0  0  0
    1.5649   -4.2010    3.1726 C   0  0  0  0  0  0  0  0  0  0  0  0
    1.4836   -5.5816    2.9131 C   0  0  0  0  0  0  0  0  0  0  0  0
    2.0288   -6.0460    1.7627 F   0  0  0  0  0  0  0  0  0  0  0  0
    0.9448   -2.2011    4.5760 C   0  0  0  0  0  0  0  0  0  0  0  0
    1.5248   -1.4379    3.8060 O   0  0  0  0  0  0  0  0  0  0  0  0
    0.1721   -1.7243    5.7571 C   0  0  0  0  0  0  0  0  0  0  0  0
    0.0276   -0.2160    6.1753 C   0  0  0  0  0  0  0  0  0  0  0  0
    0.9320    0.5727    5.8425 O   0  0  0  0  0  0  0  0  0  0  0  0
   -0.9869    0.0531    6.8730 O   0  0  0  0  0  0  0  0  0  0  0  0
   -0.3730   -2.6641    6.5508 C   0  0  0  0  0  0  0  0  0  0  0  0
   -0.3271   -4.0306    6.3502 N   0  0  0  0  0  0  0  0  0  0  0  0
   -0.9321   -4.9244    7.3323 C   0  0  0  0  0  0  0  0  0  0  0  0
   -0.6319   -4.6756    8.8053 C   0  0  0  0  0  0  0  0  0  0  0  0
   -0.1043   -5.9113    8.1223 C   0  0  0  0  0  0  0  0  0  0  0  0
    0.3811   -8.6483    4.8415 C   0  0  0  0  0  0  0  0  0  0  0  0
    1.2719   -9.8939    4.6971 C   0  0  1  0  0  0  0  0  0  0  0  0
    0.6220  -11.0735    5.2764 N   0  0  0  0  0  0  0  0  0  0  0  0
    3.6893  -10.2589    3.3228 H   0  0  0  0  0  0  0  0  0  0  0  0
    3.0108  -10.7684    1.7983 H   0  0  0  0  0  0  0  0  0  0  0  0
    2.8047  -11.7784    3.2287 H   0  0  0  0  0  0  0  0  0  0  0  0
    0.6820  -10.5165    2.7192 H   0  0  0  0  0  0  0  0  0  0  0  0
    2.5512   -8.1710    2.7283 H   0  0  0  0  0  0  0  0  0  0  0  0
    1.1436   -8.4662    1.7153 H   0  0  0  0  0  0  0  0  0  0  0  0
    2.0452   -3.5560    2.4465 H   0  0  0  0  0  0  0  0  0  0  0  0
   -0.8863   -2.3804    7.4474 H   0  0  0  0  0  0  0  0  0  0  0  0
   -1.9668   -5.1515    7.0800 H   0  0  0  0  0  0  0  0  0  0  0  0
    0.0978   -3.9089    9.0662 H   0  0  0  0  0  0  0  0  0  0  0  0
   -1.4408   -4.7980    9.5254 H   0  0  0  0  0  0  0  0  0  0  0  0
   -0.5717   -6.8615    8.3690 H   0  0  0  0  0  0  0  0  0  0  0  0
    0.9561   -5.9583    7.8860 H   0  0  0  0  0  0  0  0  0  0  0  0
    0.5775   -8.1768    5.8115 H   0  0  0  0  0  0  0  0  0  0  0  0
   -0.6833   -8.9021    4.8055 H   0  0  0  0  0  0  0  0  0  0  0  0
    2.2342   -9.7146    5.2028 H   0  0  0  0  0  0  0  0  0  0  0  0
   -0.3161  -11.1705    4.8989 H   0  0  0  0  0  0  0  0  0  0  0  0
    0.5513  -10.9739    6.2918 H   0  0  0  0  0  0  0  0  0  0  0  0
    1.1786  -11.9021    5.1246 H   0  0  0  0  0  0  0  0  0  0  0  0
  1  2  1  0
  1 26  1  0
  1 27  1  0
  1 28  1  0
  2 24  1  0
  2  3  1  0
  2 29  1  6
  3  4  1  0
  3 30  1  0
  3 31  1  0
  4  5  1  0
  4 23  1  0
  5 10  1  0
  5  6  2  0
  6  7  1  0
  7 19  1  0
  7  8  2  0
  8  9  1  0
  8 12  1  0
  9 10  2  0
  9 32  1  0
 10 11  1  0
 12 13  2  0
 12 14  1  0
 14 15  1  0
 14 18  2  0
 15 16  2  0
 15 17  1  0
 18 19  1  0
 18 33  1  0
 19 20  1  0
 20 22  1  0
 20 21  1  0
 20 34  1  0
 21 22  1  0
 21 35  1  0
 21 36  1  0
 22 37  1  0
 22 38  1  0
 23 24  1  0
 23 39  1  0
 23 40  1  0
 24 25  1  0
 24 41  1  1
 25 42  1  0
 25 43  1  0
 25 44  1  0
M  CHG  2  17  -1  25   1
M  END
>  <i_m_ct_stereo_status>  (302) 
1

>  <s_m_source_file>  (302) 
/var/tmp/pbs.5076255.sched01/tmptpdlle0r/921kky2sk3.sdf

>  <i_m_source_file_index>  (302) 
41

>  <i_lp_mmshare_version>  (302) 
48012

>  <i_f3d_flags>  (302) 
0

>  <s_epik_input>  (302) 
W0NIM11bQ0BASF0xW0NIMl1OKFtDSDJdW0NASF0xW05IMl0pYyhuMiljKEYpW2NIXWMoYzIzKWMoPU8pYyhDKD1PKVtPSF0pW2NIXW4zW0NIXTRbQ0gyXVtDSDJdNA==

>  <s_epik_cmdline>  (302) 
J2VwaWtfcHl0aG9uJywgJy1waHQnLCAnMi4wJywgJy1waCcsICc3LjAnLCAnLXRuJywgJzgnLCAnLW1hJywgJzIwMCcsICctaW1hZScsICc8aW5maWxlLm1hZT4nLCAnLW9tYWUnLCAnPG91dGZpbGUubWFlPic=

>  <r_epik_Ionization_Penalty>  (302) 
0.0529901

>  <r_epik_Ionization_Penalty_Charging>  (302) 
0.0529901

>  <r_epik_Ionization_Penalty_Neutral>  (302) 
7.01732e-13

>  <r_epik_State_Penalty>  (302) 
0.0444315

>  <r_epik_Charging_Adjusted_Penalty>  (302) 
0.0974216

>  <i_epik_Tot_Q>  (302) 
0

>  <i_epik_Tot_abs_Q>  (302) 
2

>  <s_lp_Force_Field>  (302) 
OPLS3e

>  <r_lp_Energy>  (302) 
14.1764

>  <b_lp_Chiralities_Consistent>  (302) 
1

>  <s_lp_Variant>  (302) 
84:0-1

>  <s_i_glide_gridfile>  (302) 
pfpi4k_grid

>  <i_i_glide_lignum>  (302) 
41

>  <i_i_glide_rotatable_bonds>  (302) 
3

>  <r_i_docking_score>  (302) 
-4.3325

>  <r_i_glide_ligand_efficiency>  (302) 
-0.1733

>  <r_i_glide_ligand_efficiency_sa>  (302) 
-0.506732

>  <r_i_glide_ligand_efficiency_ln>  (302) 
-1.02693

>  <r_i_glide_gscore>  (302) 
-4.3325

>  <r_i_glide_lipo>  (302) 
-0.138676

>  <r_i_glide_hbond>  (302) 
-0.44134

>  <r_i_glide_metal>  (302) 
-0

>  <r_i_glide_rewards>  (302) 
-1.57757

>  <r_i_glide_evdw>  (302) 
-20.5194

>  <r_i_glide_ecoul>  (302) 
-7.86865

>  <r_i_glide_erotb>  (302) 
0.221865

>  <r_i_glide_esite>  (302) 
-0.190511

>  <r_i_glide_emodel>  (302) 
-41.9552

>  <r_i_glide_energy>  (302) 
-28.388

>  <r_i_glide_einternal>  (302) 
0.99665

>  <r_i_glide_intrahb_reward>  (302) 
-0

>  <i_i_glide_confnum>  (302) 
3

>  <i_i_glide_posenum>  (302) 
7

>  <r_i_glide_eff_state_penalty>  (302) 
0

>  <ligand_id>  (302) 
84

>  <original_smiles>  (302) 
CC1CN(c2nc3c(cc2F)c(=O)c(C(=O)O)cn3C2CC2)CC1N

>  <smiles>  (302) 
[H]c1c(F)c(N2C([H])([H])C([H])(C([H])([H])[H])C([H])([N+]([H])([H])[H])C2([H])[H])nc2c1c(=O)c(C(=O)[O-])c([H])n2C1([H])C([H])([H])C1([H])[H]

$$$$
84:0:2
     RDKit          3D

 44 47  0  0  1  0  0  0  0  0999 V2000
   -1.4815   -7.8704    3.0514 C   0  0  0  0  0  0  0  0  0  0  0  0
   -0.1347   -8.0304    3.7688 C   0  0  2  0  0  0  0  0  0  0  0  0
    0.8697   -6.9099    3.4412 C   0  0  0  0  0  0  0  0  0  0  0  0
    2.1906   -7.5303    3.5135 N   0  0  0  0  0  0  0  0  0  0  0  0
    3.3314   -6.9641    2.8953 C   0  0  0  0  0  0  0  0  0  0  0  0
    3.1815   -5.7437    2.3278 N   0  0  0  0  0  0  0  0  0  0  0  0
    4.2468   -5.1703    1.7040 C   0  0  0  0  0  0  0  0  0  0  0  0
    5.5077   -5.8065    1.6128 C   0  0  0  0  0  0  0  0  0  0  0  0
    5.6596   -7.0727    2.2083 C   0  0  0  0  0  0  0  0  0  0  0  0
    4.5682   -7.6519    2.8714 C   0  0  0  0  0  0  0  0  0  0  0  0
    4.7571   -8.8483    3.4726 F   0  0  0  0  0  0  0  0  0  0  0  0
    6.6589   -5.1664    0.9067 C   0  0  0  0  0  0  0  0  0  0  0  0
    7.7511   -5.7312    0.8771 O   0  0  0  0  0  0  0  0  0  0  0  0
    6.4031   -3.8492    0.2475 C   0  0  0  0  0  0  0  0  0  0  0  0
    7.4782   -3.0573   -0.5982 C   0  0  0  0  0  0  0  0  0  0  0  0
    7.0868   -1.9838   -1.1235 O   0  0  0  0  0  0  0  0  0  0  0  0
    8.6199   -3.5500   -0.6946 O   0  0  0  0  0  0  0  0  0  0  0  0
    5.1684   -3.3273    0.4023 C   0  0  0  0  0  0  0  0  0  0  0  0
    4.1241   -3.8896    1.1183 N   0  0  0  0  0  0  0  0  0  0  0  0
    2.8709   -3.1625    1.2497 C   0  0  0  0  0  0  0  0  0  0  0  0
    2.9309   -1.7160    1.7096 C   0  0  0  0  0  0  0  0  0  0  0  0
    2.3160   -2.7636    2.6006 C   0  0  0  0  0  0  0  0  0  0  0  0
    2.0692   -8.9776    3.6199 C   0  0  0  0  0  0  0  0  0  0  0  0
    0.6133   -9.3009    3.3476 C   0  0  1  0  0  0  0  0  0  0  0  0
    0.2165  -10.5107    4.0795 N   0  0  0  0  0  0  0  0  0  0  0  0
   -1.3367   -7.8487    1.9714 H   0  0  0  0  0  0  0  0  0  0  0  0
   -1.9812   -6.9513    3.3491 H   0  0  0  0  0  0  0  0  0  0  0  0
   -2.1438   -8.7064    3.2747 H   0  0  0  0  0  0  0  0  0  0  0  0
   -0.2890   -8.0529    4.8464 H   0  0  0  0  0  0  0  0  0  0  0  0
    0.6957   -6.5055    2.4426 H   0  0  0  0  0  0  0  0  0  0  0  0
    0.7785   -6.0826    4.1479 H   0  0  0  0  0  0  0  0  0  0  0  0
    6.5956   -7.6148    2.1795 H   0  0  0  0  0  0  0  0  0  0  0  0
    4.9090   -2.3769   -0.0423 H   0  0  0  0  0  0  0  0  0  0  0  0
    2.2051   -3.3828    0.4200 H   0  0  0  0  0  0  0  0  0  0  0  0
    3.8969   -1.3105    2.0089 H   0  0  0  0  0  0  0  0  0  0  0  0
    2.2577   -1.0003    1.2386 H   0  0  0  0  0  0  0  0  0  0  0  0
    1.2328   -2.7650    2.7041 H   0  0  0  0  0  0  0  0  0  0  0  0
    2.8725   -3.0911    3.4767 H   0  0  0  0  0  0  0  0  0  0  0  0
    2.6819   -9.5212    2.8971 H   0  0  0  0  0  0  0  0  0  0  0  0
    2.3920   -9.2779    4.6221 H   0  0  0  0  0  0  0  0  0  0  0  0
    0.4769   -9.4599    2.2685 H   0  0  0  0  0  0  0  0  0  0  0  0
    0.3965  -10.3854    5.0645 H   0  0  0  0  0  0  0  0  0  0  0  0
    0.7252  -11.3113    3.7488 H   0  0  0  0  0  0  0  0  0  0  0  0
   -0.7962  -10.6711    4.0125 H   0  0  0  0  0  0  0  0  0  0  0  0
  1  2  1  0
  1 26  1  0
  1 27  1  0
  1 28  1  0
  2 24  1  0
  2  3  1  0
  2 29  1  1
  3  4  1  0
  3 30  1  0
  3 31  1  0
  4  5  1  0
  4 23  1  0
  5 10  1  0
  5  6  2  0
  6  7  1  0
  7 19  1  0
  7  8  2  0
  8  9  1  0
  8 12  1  0
  9 10  2  0
  9 32  1  0
 10 11  1  0
 12 13  2  0
 12 14  1  0
 14 15  1  0
 14 18  2  0
 15 16  2  0
 15 17  1  0
 18 19  1  0
 18 33  1  0
 19 20  1  0
 20 22  1  0
 20 21  1  0
 20 34  1  0
 21 22  1  0
 21 35  1  0
 21 36  1  0
 22 37  1  0
 22 38  1  0
 23 24  1  0
 23 39  1  0
 23 40  1  0
 24 25  1  0
 24 41  1  6
 25 42  1  0
 25 43  1  0
 25 44  1  0
M  CHG  2  17  -1  25   1
M  END
>  <i_m_ct_stereo_status>  (303) 
1

>  <s_m_source_file>  (303) 
/var/tmp/pbs.5076255.sched01/tmptpdlle0r/921kky2sk3.sdf

>  <i_m_source_file_index>  (303) 
41

>  <i_lp_mmshare_version>  (303) 
48012

>  <i_f3d_flags>  (303) 
0

>  <s_epik_input>  (303) 
W0NIM11bQ0BASF0xW0NIMl1OKFtDSDJdW0NASF0xW05IMl0pYyhuMiljKEYpW2NIXWMoYzIzKWMoPU8pYyhDKD1PKVtPSF0pW2NIXW4zW0NIXTRbQ0gyXVtDSDJdNA==

>  <s_epik_cmdline>  (303) 
J2VwaWtfcHl0aG9uJywgJy1waHQnLCAnMi4wJywgJy1waCcsICc3LjAnLCAnLXRuJywgJzgnLCAnLW1hJywgJzIwMCcsICctaW1hZScsICc8aW5maWxlLm1hZT4nLCAnLW9tYWUnLCAnPG91dGZpbGUubWFlPic=

>  <r_epik_Ionization_Penalty>  (303) 
0.0529901

>  <r_epik_Ionization_Penalty_Charging>  (303) 
0.0529901

>  <r_epik_Ionization_Penalty_Neutral>  (303) 
7.01732e-13

>  <r_epik_State_Penalty>  (303) 
0.0444315

>  <r_epik_Charging_Adjusted_Penalty>  (303) 
0.0974216

>  <i_epik_Tot_Q>  (303) 
0

>  <i_epik_Tot_abs_Q>  (303) 
2

>  <s_lp_Force_Field>  (303) 
OPLS3e

>  <r_lp_Energy>  (303) 
14.1764

>  <b_lp_Chiralities_Consistent>  (303) 
1

>  <s_lp_Variant>  (303) 
84:0-1

>  <s_i_glide_gridfile>  (303) 
pfpi4k_grid

>  <i_i_glide_lignum>  (303) 
41

>  <i_i_glide_rotatable_bonds>  (303) 
3

>  <r_i_docking_score>  (303) 
-3.98717

>  <r_i_glide_ligand_efficiency>  (303) 
-0.159487

>  <r_i_glide_ligand_efficiency_sa>  (303) 
-0.466343

>  <r_i_glide_ligand_efficiency_ln>  (303) 
-0.94508

>  <r_i_glide_gscore>  (303) 
-3.98717

>  <r_i_glide_lipo>  (303) 
-0.322905

>  <r_i_glide_hbond>  (303) 
-0.355121

>  <r_i_glide_metal>  (303) 
-0

>  <r_i_glide_rewards>  (303) 
-1.20901

>  <r_i_glide_evdw>  (303) 
-23.4024

>  <r_i_glide_ecoul>  (303) 
-7.80688

>  <r_i_glide_erotb>  (303) 
0.316951

>  <r_i_glide_esite>  (303) 
-0.0759409

>  <r_i_glide_emodel>  (303) 
-44.0511

>  <r_i_glide_energy>  (303) 
-31.2093

>  <r_i_glide_einternal>  (303) 
0.21759

>  <r_i_glide_intrahb_reward>  (303) 
-0

>  <i_i_glide_confnum>  (303) 
1

>  <i_i_glide_posenum>  (303) 
6

>  <r_i_glide_eff_state_penalty>  (303) 
0

>  <ligand_id>  (303) 
84

>  <original_smiles>  (303) 
CC1CN(c2nc3c(cc2F)c(=O)c(C(=O)O)cn3C2CC2)CC1N

>  <smiles>  (303) 
[H]c1c(F)c(N2C([H])([H])C([H])(C([H])([H])[H])C([H])([N+]([H])([H])[H])C2([H])[H])nc2c1c(=O)c(C(=O)[O-])c([H])n2C1([H])C([H])([H])C1([H])[H]

$$$$
84:1:0
     RDKit          3D

 45 48  0  0  1  0  0  0  0  0999 V2000
    1.0781  -10.1152    4.9268 C   0  0  0  0  0  0  0  0  0  0  0  0
    2.1322   -9.5550    3.9635 C   0  0  2  0  0  0  0  0  0  0  0  0
    1.7733   -8.1754    3.3788 C   0  0  0  0  0  0  0  0  0  0  0  0
    2.2982   -8.1467    2.0145 N   0  0  0  0  0  0  0  0  0  0  0  0
    3.0299   -7.0295    1.5910 C   0  0  0  0  0  0  0  0  0  0  0  0
    4.3798   -7.1026    1.6359 N   0  0  0  0  0  0  0  0  0  0  0  0
    5.1229   -6.0794    1.1472 C   0  0  0  0  0  0  0  0  0  0  0  0
    4.5299   -4.9230    0.5869 C   0  0  0  0  0  0  0  0  0  0  0  0
    3.1201   -4.8457    0.5436 C   0  0  0  0  0  0  0  0  0  0  0  0
    2.3591   -5.9107    1.0597 C   0  0  0  0  0  0  0  0  0  0  0  0
    1.0077   -5.8780    0.9821 F   0  0  0  0  0  0  0  0  0  0  0  0
    5.3675   -3.8113    0.0508 C   0  0  0  0  0  0  0  0  0  0  0  0
    4.8386   -2.8055   -0.4187 O   0  0  0  0  0  0  0  0  0  0  0  0
    6.8457   -4.0019    0.0839 C   0  0  0  0  0  0  0  0  0  0  0  0
    7.7917   -3.0275   -0.4528 C   0  0  0  0  0  0  0  0  0  0  0  0
    7.5306   -1.8630   -0.7209 O   0  0  0  0  0  0  0  0  0  0  0  0
    9.0195   -3.5454   -0.7305 O   0  0  0  0  0  0  0  0  0  0  0  0
    7.3203   -5.1369    0.6469 C   0  0  0  0  0  0  0  0  0  0  0  0
    6.5351   -6.1461    1.1964 N   0  0  0  0  0  0  0  0  0  0  0  0
    7.1874   -7.2831    1.8408 C   0  0  0  0  0  0  0  0  0  0  0  0
    6.9092   -7.6422    3.2817 C   0  0  0  0  0  0  0  0  0  0  0  0
    8.2214   -6.9989    2.9155 C   0  0  0  0  0  0  0  0  0  0  0  0
    2.8213   -9.4582    1.6639 C   0  0  0  0  0  0  0  0  0  0  0  0
    2.2967  -10.4248    2.7126 C   0  0  1  0  0  0  0  0  0  0  0  0
    3.2144  -11.5677    2.8836 N   0  0  0  0  0  0  0  0  0  0  0  0
    0.1057  -10.2192    4.4371 H   0  0  0  0  0  0  0  0  0  0  0  0
    0.9420   -9.4725    5.7984 H   0  0  0  0  0  0  0  0  0  0  0  0
    1.3578  -11.1096    5.2877 H   0  0  0  0  0  0  0  0  0  0  0  0
    3.0880   -9.4745    4.4728 H   0  0  0  0  0  0  0  0  0  0  0  0
    0.6879   -8.0484    3.3350 H   0  0  0  0  0  0  0  0  0  0  0  0
    2.1545   -7.3621    4.0061 H   0  0  0  0  0  0  0  0  0  0  0  0
    2.6250   -3.9867    0.1005 H   0  0  0  0  0  0  0  0  0  0  0  0
    9.6091   -2.9790   -1.2237 H   0  0  0  0  0  0  0  0  0  0  0  0
    8.3766   -5.3503    0.7172 H   0  0  0  0  0  0  0  0  0  0  0  0
    7.4323   -8.0620    1.1230 H   0  0  0  0  0  0  0  0  0  0  0  0
    6.1699   -7.0403    3.8069 H   0  0  0  0  0  0  0  0  0  0  0  0
    6.9146   -8.7023    3.5273 H   0  0  0  0  0  0  0  0  0  0  0  0
    9.1086   -7.6277    2.9522 H   0  0  0  0  0  0  0  0  0  0  0  0
    8.3768   -5.9668    3.2267 H   0  0  0  0  0  0  0  0  0  0  0  0
    2.4974   -9.7467    0.6586 H   0  0  0  0  0  0  0  0  0  0  0  0
    3.9108   -9.4725    1.6658 H   0  0  0  0  0  0  0  0  0  0  0  0
    1.3019  -10.7955    2.4259 H   0  0  0  0  0  0  0  0  0  0  0  0
    4.1159  -11.2126    3.1359 H   0  0  0  0  0  0  0  0  0  0  0  0
    3.3190  -12.0517    1.9993 H   0  0  0  0  0  0  0  0  0  0  0  0
    2.8859  -12.1951    3.6059 H   0  0  0  0  0  0  0  0  0  0  0  0
  1  2  1  0
  1 26  1  0
  1 27  1  0
  1 28  1  0
  2 24  1  0
  2  3  1  0
  2 29  1  1
  3  4  1  0
  3 30  1  0
  3 31  1  0
  4  5  1  0
  4 23  1  0
  5 10  1  0
  5  6  2  0
  6  7  1  0
  7 19  1  0
  7  8  2  0
  8  9  1  0
  8 12  1  0
  9 10  2  0
  9 32  1  0
 10 11  1  0
 12 13  2  0
 12 14  1  0
 14 15  1  0
 14 18  2  0
 15 16  2  0
 15 17  1  0
 17 33  1  0
 18 19  1  0
 18 34  1  0
 19 20  1  0
 20 22  1  0
 20 21  1  0
 20 35  1  0
 21 22  1  0
 21 36  1  0
 21 37  1  0
 22 38  1  0
 22 39  1  0
 23 24  1  0
 23 40  1  0
 23 41  1  0
 24 25  1  0
 24 42  1  6
 25 43  1  0
 25 44  1  0
 25 45  1  0
M  CHG  1  25   1
M  END
>  <i_m_ct_stereo_status>  (304) 
1

>  <s_m_source_file>  (304) 
/var/tmp/pbs.5076255.sched01/tmptpdlle0r/921kky2sk3.sdf

>  <i_m_source_file_index>  (304) 
42

>  <i_lp_mmshare_version>  (304) 
48012

>  <i_f3d_flags>  (304) 
0

>  <s_epik_input>  (304) 
W0NIM11bQ0BASF0xW0NIMl1OKFtDSDJdW0NASF0xW05IMl0pYyhuMiljKEYpW2NIXWMoYzIzKWMoPU8pYyhDKD1PKVtPSF0pW2NIXW4zW0NIXTRbQ0gyXVtDSDJdNA==

>  <s_epik_cmdline>  (304) 
J2VwaWtfcHl0aG9uJywgJy1waHQnLCAnMi4wJywgJy1waCcsICc3LjAnLCAnLXRuJywgJzgnLCAnLW1hJywgJzIwMCcsICctaW1hZScsICc8aW5maWxlLm1hZT4nLCAnLW9tYWUnLCAnPG91dGZpbGUubWFlPic=

>  <r_epik_Ionization_Penalty>  (304) 
1.4699

>  <r_epik_Ionization_Penalty_Charging>  (304) 
0.000729359

>  <r_epik_Ionization_Penalty_Neutral>  (304) 
1.46917

>  <r_epik_State_Penalty>  (304) 
1.55684

>  <r_epik_Charging_Adjusted_Penalty>  (304) 
1.55757

>  <i_epik_Tot_Q>  (304) 
1

>  <i_epik_Tot_abs_Q>  (304) 
1

>  <s_lp_Force_Field>  (304) 
OPLS3e

>  <r_lp_Energy>  (304) 
10.0666

>  <b_lp_Chiralities_Consistent>  (304) 
1

>  <s_lp_Variant>  (304) 
84:0-2

>  <s_i_glide_gridfile>  (304) 
pfpi4k_grid

>  <i_i_glide_lignum>  (304) 
42

>  <i_i_glide_rotatable_bonds>  (304) 
4

>  <r_i_docking_score>  (304) 
-5.58776

>  <r_i_glide_ligand_efficiency>  (304) 
-0.22351

>  <r_i_glide_ligand_efficiency_sa>  (304) 
-0.653548

>  <r_i_glide_ligand_efficiency_ln>  (304) 
-1.32447

>  <r_i_glide_gscore>  (304) 
-5.58776

>  <r_i_glide_lipo>  (304) 
-0.444027

>  <r_i_glide_hbond>  (304) 
-0.359522

>  <r_i_glide_metal>  (304) 
-0

>  <r_i_glide_rewards>  (304) 
-1.41248

>  <r_i_glide_evdw>  (304) 
-24.6142

>  <r_i_glide_ecoul>  (304) 
-15.2136

>  <r_i_glide_erotb>  (304) 
0.331085

>  <r_i_glide_esite>  (304) 
-0.190059

>  <r_i_glide_emodel>  (304) 
-58.0513

>  <r_i_glide_energy>  (304) 
-39.8278

>  <r_i_glide_einternal>  (304) 
4.51283

>  <r_i_glide_intrahb_reward>  (304) 
-0

>  <i_i_glide_confnum>  (304) 
2

>  <i_i_glide_posenum>  (304) 
37

>  <r_i_glide_eff_state_penalty>  (304) 
0

>  <ligand_id>  (304) 
84

>  <original_smiles>  (304) 
CC1CN(c2nc3c(cc2F)c(=O)c(C(=O)O)cn3C2CC2)CC1N

>  <smiles>  (304) 
[H]OC(=O)c1c([H])n(C2([H])C([H])([H])C2([H])[H])c2nc(N3C([H])([H])C([H])(C([H])([H])[H])C([H])([N+]([H])([H])[H])C3([H])[H])c(F)c([H])c2c1=O

$$$$
84:1:1
     RDKit          3D

 45 48  0  0  1  0  0  0  0  0999 V2000
   -1.7958   -8.1970    4.0799 C   0  0  0  0  0  0  0  0  0  0  0  0
   -0.3123   -8.1019    3.8185 C   0  0  2  0  0  0  0  0  0  0  0  0
    0.0214   -7.0852    2.7265 C   0  0  0  0  0  0  0  0  0  0  0  0
    1.1964   -7.6053    2.0333 N   0  0  0  0  0  0  0  0  0  0  0  0
    2.3083   -6.7758    1.7211 C   0  0  0  0  0  0  0  0  0  0  0  0
    2.1709   -5.4475    1.9215 N   0  0  0  0  0  0  0  0  0  0  0  0
    3.2308   -4.6292    1.6708 C   0  0  0  0  0  0  0  0  0  0  0  0
    4.4587   -5.1349    1.1489 C   0  0  0  0  0  0  0  0  0  0  0  0
    4.5756   -6.5061    0.9084 C   0  0  0  0  0  0  0  0  0  0  0  0
    3.4942   -7.3463    1.2112 C   0  0  0  0  0  0  0  0  0  0  0  0
    3.6341   -8.6615    0.9345 F   0  0  0  0  0  0  0  0  0  0  0  0
    5.6221   -4.2469    0.8718 C   0  0  0  0  0  0  0  0  0  0  0  0
    6.6671   -4.6974    0.3976 O   0  0  0  0  0  0  0  0  0  0  0  0
    5.4808   -2.8223    1.2336 C   0  0  0  0  0  0  0  0  0  0  0  0
    6.5020   -1.7837    1.0687 C   0  0  0  0  0  0  0  0  0  0  0  0
    7.5492   -1.8730    0.4326 O   0  0  0  0  0  0  0  0  0  0  0  0
    6.2192   -0.6597    1.7719 O   0  0  0  0  0  0  0  0  0  0  0  0
    4.2828   -2.4441    1.7361 C   0  0  0  0  0  0  0  0  0  0  0  0
    3.1705   -3.2430    1.9546 N   0  0  0  0  0  0  0  0  0  0  0  0
    1.9225   -2.6427    2.4725 C   0  0  0  0  0  0  0  0  0  0  0  0
    1.5554   -1.2090    2.1057 C   0  0  0  0  0  0  0  0  0  0  0  0
    1.9887   -1.5498    3.5205 C   0  0  0  0  0  0  0  0  0  0  0  0
    1.4918   -8.9621    2.4834 C   0  0  0  0  0  0  0  0  0  0  0  0
    0.2694   -9.4189    3.2843 C   0  0  1  0  0  0  0  0  0  0  0  0
    0.6323  -10.3812    4.3502 N   0  0  0  0  0  0  0  0  0  0  0  0
   -2.3526   -8.5029    3.1931 H   0  0  0  0  0  0  0  0  0  0  0  0
   -2.2012   -7.2534    4.4343 H   0  0  0  0  0  0  0  0  0  0  0  0
   -1.9936   -8.9405    4.8462 H   0  0  0  0  0  0  0  0  0  0  0  0
    0.2173   -7.8177    4.7214 H   0  0  0  0  0  0  0  0  0  0  0  0
   -0.7902   -7.0051    2.0007 H   0  0  0  0  0  0  0  0  0  0  0  0
    0.1485   -6.0970    3.1738 H   0  0  0  0  0  0  0  0  0  0  0  0
    5.4778   -6.9379    0.4902 H   0  0  0  0  0  0  0  0  0  0  0  0
    6.9446   -0.0234    1.7227 H   0  0  0  0  0  0  0  0  0  0  0  0
    4.1237   -1.4218    2.0032 H   0  0  0  0  0  0  0  0  0  0  0  0
    1.0942   -3.3411    2.5370 H   0  0  0  0  0  0  0  0  0  0  0  0
    2.2129   -0.6523    1.4406 H   0  0  0  0  0  0  0  0  0  0  0  0
    0.5092   -0.9564    1.9597 H   0  0  0  0  0  0  0  0  0  0  0  0
    1.2203   -1.5311    4.2902 H   0  0  0  0  0  0  0  0  0  0  0  0
    2.9741   -1.2523    3.8716 H   0  0  0  0  0  0  0  0  0  0  0  0
    1.6897   -9.6507    1.6418 H   0  0  0  0  0  0  0  0  0  0  0  0
    2.3965   -8.9423    3.1104 H   0  0  0  0  0  0  0  0  0  0  0  0
   -0.4558   -9.8947    2.5987 H   0  0  0  0  0  0  0  0  0  0  0  0
    1.3232   -9.9568    4.9471 H   0  0  0  0  0  0  0  0  0  0  0  0
    1.0343  -11.2047    3.9302 H   0  0  0  0  0  0  0  0  0  0  0  0
   -0.1798  -10.6452    4.8997 H   0  0  0  0  0  0  0  0  0  0  0  0
  1  2  1  0
  1 26  1  0
  1 27  1  0
  1 28  1  0
  2 24  1  0
  2  3  1  0
  2 29  1  1
  3  4  1  0
  3 30  1  0
  3 31  1  0
  4  5  1  0
  4 23  1  0
  5 10  1  0
  5  6  2  0
  6  7  1  0
  7 19  1  0
  7  8  2  0
  8  9  1  0
  8 12  1  0
  9 10  2  0
  9 32  1  0
 10 11  1  0
 12 13  2  0
 12 14  1  0
 14 15  1  0
 14 18  2  0
 15 16  2  0
 15 17  1  0
 17 33  1  0
 18 19  1  0
 18 34  1  0
 19 20  1  0
 20 22  1  0
 20 21  1  0
 20 35  1  0
 21 22  1  0
 21 36  1  0
 21 37  1  0
 22 38  1  0
 22 39  1  0
 23 24  1  0
 23 40  1  0
 23 41  1  0
 24 25  1  0
 24 42  1  6
 25 43  1  0
 25 44  1  0
 25 45  1  0
M  CHG  1  25   1
M  END
>  <i_m_ct_stereo_status>  (305) 
1

>  <s_m_source_file>  (305) 
/var/tmp/pbs.5076255.sched01/tmptpdlle0r/921kky2sk3.sdf

>  <i_m_source_file_index>  (305) 
42

>  <i_lp_mmshare_version>  (305) 
48012

>  <i_f3d_flags>  (305) 
0

>  <s_epik_input>  (305) 
W0NIM11bQ0BASF0xW0NIMl1OKFtDSDJdW0NASF0xW05IMl0pYyhuMiljKEYpW2NIXWMoYzIzKWMoPU8pYyhDKD1PKVtPSF0pW2NIXW4zW0NIXTRbQ0gyXVtDSDJdNA==

>  <s_epik_cmdline>  (305) 
J2VwaWtfcHl0aG9uJywgJy1waHQnLCAnMi4wJywgJy1waCcsICc3LjAnLCAnLXRuJywgJzgnLCAnLW1hJywgJzIwMCcsICctaW1hZScsICc8aW5maWxlLm1hZT4nLCAnLW9tYWUnLCAnPG91dGZpbGUubWFlPic=

>  <r_epik_Ionization_Penalty>  (305) 
1.4699

>  <r_epik_Ionization_Penalty_Charging>  (305) 
0.000729359

>  <r_epik_Ionization_Penalty_Neutral>  (305) 
1.46917

>  <r_epik_State_Penalty>  (305) 
1.55684

>  <r_epik_Charging_Adjusted_Penalty>  (305) 
1.55757

>  <i_epik_Tot_Q>  (305) 
1

>  <i_epik_Tot_abs_Q>  (305) 
1

>  <s_lp_Force_Field>  (305) 
OPLS3e

>  <r_lp_Energy>  (305) 
10.0666

>  <b_lp_Chiralities_Consistent>  (305) 
1

>  <s_lp_Variant>  (305) 
84:0-2

>  <s_i_glide_gridfile>  (305) 
pfpi4k_grid

>  <i_i_glide_lignum>  (305) 
42

>  <i_i_glide_rotatable_bonds>  (305) 
4

>  <r_i_docking_score>  (305) 
-4.19599

>  <r_i_glide_ligand_efficiency>  (305) 
-0.16784

>  <r_i_glide_ligand_efficiency_sa>  (305) 
-0.490766

>  <r_i_glide_ligand_efficiency_ln>  (305) 
-0.994575

>  <r_i_glide_gscore>  (305) 
-4.19599

>  <r_i_glide_lipo>  (305) 
-0.377108

>  <r_i_glide_hbond>  (305) 
-0.188593

>  <r_i_glide_metal>  (305) 
-0

>  <r_i_glide_rewards>  (305) 
-1.15392

>  <r_i_glide_evdw>  (305) 
-24.9823

>  <r_i_glide_ecoul>  (305) 
-10.4551

>  <r_i_glide_erotb>  (305) 
0.472978

>  <r_i_glide_esite>  (305) 
-0.131968

>  <r_i_glide_emodel>  (305) 
-46.8646

>  <r_i_glide_energy>  (305) 
-35.4374

>  <r_i_glide_einternal>  (305) 
6.89334

>  <r_i_glide_intrahb_reward>  (305) 
-0

>  <i_i_glide_confnum>  (305) 
6

>  <i_i_glide_posenum>  (305) 
31

>  <r_i_glide_eff_state_penalty>  (305) 
0

>  <ligand_id>  (305) 
84

>  <original_smiles>  (305) 
CC1CN(c2nc3c(cc2F)c(=O)c(C(=O)O)cn3C2CC2)CC1N

>  <smiles>  (305) 
[H]OC(=O)c1c([H])n(C2([H])C([H])([H])C2([H])[H])c2nc(N3C([H])([H])C([H])(C([H])([H])[H])C([H])([N+]([H])([H])[H])C3([H])[H])c(F)c([H])c2c1=O

$$$$
84:1:2
     RDKit          3D

 45 48  0  0  1  0  0  0  0  0999 V2000
   -1.7341   -8.1381    4.0671 C   0  0  0  0  0  0  0  0  0  0  0  0
   -0.2298   -8.1525    3.7934 C   0  0  2  0  0  0  0  0  0  0  0  0
    0.1882   -7.1652    2.6933 C   0  0  0  0  0  0  0  0  0  0  0  0
    1.3309   -7.7796    2.0185 N   0  0  0  0  0  0  0  0  0  0  0  0
    2.4834   -7.0436    1.6713 C   0  0  0  0  0  0  0  0  0  0  0  0
    2.3981   -5.6877    1.7094 N   0  0  0  0  0  0  0  0  0  0  0  0
    3.5079   -4.9420    1.4545 C   0  0  0  0  0  0  0  0  0  0  0  0
    4.7460   -5.5306    1.1026 C   0  0  0  0  0  0  0  0  0  0  0  0
    4.8274   -6.9320    1.0229 C   0  0  0  0  0  0  0  0  0  0  0  0
    3.6935   -7.6935    1.2990 C   0  0  0  0  0  0  0  0  0  0  0  0
    3.8014   -9.0377    1.1855 F   0  0  0  0  0  0  0  0  0  0  0  0
    5.9596   -4.7106    0.8290 C   0  0  0  0  0  0  0  0  0  0  0  0
    7.0134   -5.2475    0.4907 O   0  0  0  0  0  0  0  0  0  0  0  0
    5.8269   -3.2407    1.0035 C   0  0  0  0  0  0  0  0  0  0  0  0
    6.9349   -2.2931    0.8226 C   0  0  0  0  0  0  0  0  0  0  0  0
    8.0484   -2.5388    0.3689 O   0  0  0  0  0  0  0  0  0  0  0  0
    6.6482   -1.0537    1.2910 O   0  0  0  0  0  0  0  0  0  0  0  0
    4.6043   -2.7678    1.3457 C   0  0  0  0  0  0  0  0  0  0  0  0
    3.4748   -3.5384    1.5795 N   0  0  0  0  0  0  0  0  0  0  0  0
    2.2235   -2.8862    1.9623 C   0  0  0  0  0  0  0  0  0  0  0  0
    2.2637   -1.8387    3.0584 C   0  0  0  0  0  0  0  0  0  0  0  0
    1.5724   -3.1562    3.2954 C   0  0  0  0  0  0  0  0  0  0  0  0
    1.5208   -9.1500    2.4810 C   0  0  0  0  0  0  0  0  0  0  0  0
    0.2594   -9.5102    3.2798 C   0  0  1  0  0  0  0  0  0  0  0  0
    0.5662  -10.4797    4.3493 N   0  0  0  0  0  0  0  0  0  0  0  0
   -2.2933   -8.4141    3.1739 H   0  0  0  0  0  0  0  0  0  0  0  0
   -2.0781   -7.1626    4.4048 H   0  0  0  0  0  0  0  0  0  0  0  0
   -1.9784   -8.8645    4.8375 H   0  0  0  0  0  0  0  0  0  0  0  0
    0.3166   -7.8945    4.6996 H   0  0  0  0  0  0  0  0  0  0  0  0
   -0.6103   -7.0354    1.9621 H   0  0  0  0  0  0  0  0  0  0  0  0
    0.3926   -6.1860    3.1255 H   0  0  0  0  0  0  0  0  0  0  0  0
    5.7421   -7.4394    0.7572 H   0  0  0  0  0  0  0  0  0  0  0  0
    7.3794   -0.4443    1.2798 H   0  0  0  0  0  0  0  0  0  0  0  0
    4.4053   -1.7144    1.4809 H   0  0  0  0  0  0  0  0  0  0  0  0
    1.6374   -2.6363    1.0847 H   0  0  0  0  0  0  0  0  0  0  0  0
    3.2133   -1.6701    3.5653 H   0  0  0  0  0  0  0  0  0  0  0  0
    1.6369   -0.9548    2.9388 H   0  0  0  0  0  0  0  0  0  0  0  0
    0.4860   -3.1576    3.3138 H   0  0  0  0  0  0  0  0  0  0  0  0
    2.0587   -3.8964    3.9249 H   0  0  0  0  0  0  0  0  0  0  0  0
    1.6732   -9.8443    1.6521 H   0  0  0  0  0  0  0  0  0  0  0  0
    2.4042   -9.1866    3.1174 H   0  0  0  0  0  0  0  0  0  0  0  0
   -0.4813   -9.9402    2.5998 H   0  0  0  0  0  0  0  0  0  0  0  0
    1.2817  -10.1047    4.9588 H   0  0  0  0  0  0  0  0  0  0  0  0
    0.9143  -11.3374    3.9423 H   0  0  0  0  0  0  0  0  0  0  0  0
   -0.2780  -10.6784    4.8776 H   0  0  0  0  0  0  0  0  0  0  0  0
  1  2  1  0
  1 26  1  0
  1 27  1  0
  1 28  1  0
  2 24  1  0
  2  3  1  0
  2 29  1  1
  3  4  1  0
  3 30  1  0
  3 31  1  0
  4  5  1  0
  4 23  1  0
  5 10  1  0
  5  6  2  0
  6  7  1  0
  7 19  1  0
  7  8  2  0
  8  9  1  0
  8 12  1  0
  9 10  2  0
  9 32  1  0
 10 11  1  0
 12 13  2  0
 12 14  1  0
 14 15  1  0
 14 18  2  0
 15 16  2  0
 15 17  1  0
 17 33  1  0
 18 19  1  0
 18 34  1  0
 19 20  1  0
 20 22  1  0
 20 21  1  0
 20 35  1  0
 21 22  1  0
 21 36  1  0
 21 37  1  0
 22 38  1  0
 22 39  1  0
 23 24  1  0
 23 40  1  0
 23 41  1  0
 24 25  1  0
 24 42  1  6
 25 43  1  0
 25 44  1  0
 25 45  1  0
M  CHG  1  25   1
M  END
>  <i_m_ct_stereo_status>  (306) 
1

>  <s_m_source_file>  (306) 
/var/tmp/pbs.5076255.sched01/tmptpdlle0r/921kky2sk3.sdf

>  <i_m_source_file_index>  (306) 
42

>  <i_lp_mmshare_version>  (306) 
48012

>  <i_f3d_flags>  (306) 
0

>  <s_epik_input>  (306) 
W0NIM11bQ0BASF0xW0NIMl1OKFtDSDJdW0NASF0xW05IMl0pYyhuMiljKEYpW2NIXWMoYzIzKWMoPU8pYyhDKD1PKVtPSF0pW2NIXW4zW0NIXTRbQ0gyXVtDSDJdNA==

>  <s_epik_cmdline>  (306) 
J2VwaWtfcHl0aG9uJywgJy1waHQnLCAnMi4wJywgJy1waCcsICc3LjAnLCAnLXRuJywgJzgnLCAnLW1hJywgJzIwMCcsICctaW1hZScsICc8aW5maWxlLm1hZT4nLCAnLW9tYWUnLCAnPG91dGZpbGUubWFlPic=

>  <r_epik_Ionization_Penalty>  (306) 
1.4699

>  <r_epik_Ionization_Penalty_Charging>  (306) 
0.000729359

>  <r_epik_Ionization_Penalty_Neutral>  (306) 
1.46917

>  <r_epik_State_Penalty>  (306) 
1.55684

>  <r_epik_Charging_Adjusted_Penalty>  (306) 
1.55757

>  <i_epik_Tot_Q>  (306) 
1

>  <i_epik_Tot_abs_Q>  (306) 
1

>  <s_lp_Force_Field>  (306) 
OPLS3e

>  <r_lp_Energy>  (306) 
10.0666

>  <b_lp_Chiralities_Consistent>  (306) 
1

>  <s_lp_Variant>  (306) 
84:0-2

>  <s_i_glide_gridfile>  (306) 
pfpi4k_grid

>  <i_i_glide_lignum>  (306) 
42

>  <i_i_glide_rotatable_bonds>  (306) 
4

>  <r_i_docking_score>  (306) 
-4.10898

>  <r_i_glide_ligand_efficiency>  (306) 
-0.164359

>  <r_i_glide_ligand_efficiency_sa>  (306) 
-0.480589

>  <r_i_glide_ligand_efficiency_ln>  (306) 
-0.973952

>  <r_i_glide_gscore>  (306) 
-4.10898

>  <r_i_glide_lipo>  (306) 
-0.442341

>  <r_i_glide_hbond>  (306) 
-0.2

>  <r_i_glide_metal>  (306) 
-0

>  <r_i_glide_rewards>  (306) 
-1.14875

>  <r_i_glide_evdw>  (306) 
-26.1213

>  <r_i_glide_ecoul>  (306) 
-8.88246

>  <r_i_glide_erotb>  (306) 
0.472978

>  <r_i_glide_esite>  (306) 
-0.152435

>  <r_i_glide_emodel>  (306) 
-49.5423

>  <r_i_glide_energy>  (306) 
-35.0037

>  <r_i_glide_einternal>  (306) 
0.855601

>  <r_i_glide_intrahb_reward>  (306) 
-0

>  <i_i_glide_confnum>  (306) 
5

>  <i_i_glide_posenum>  (306) 
38

>  <r_i_glide_eff_state_penalty>  (306) 
0

>  <ligand_id>  (306) 
84

>  <original_smiles>  (306) 
CC1CN(c2nc3c(cc2F)c(=O)c(C(=O)O)cn3C2CC2)CC1N

>  <smiles>  (306) 
[H]OC(=O)c1c([H])n(C2([H])C([H])([H])C2([H])[H])c2nc(N3C([H])([H])C([H])(C([H])([H])[H])C([H])([N+]([H])([H])[H])C3([H])[H])c(F)c([H])c2c1=O

$$$$
85:0:0
     RDKit          3D

 32 35  0  0  1  0  0  0  0  0999 V2000
    4.2855   -7.7893    1.2999 C   0  0  0  0  0  0  0  0  0  0  0  0
    3.0126   -7.4636    1.6764 C   0  0  0  0  0  0  0  0  0  0  0  0
    2.6928   -5.7719    1.4104 S   0  0  0  0  0  0  0  0  0  0  0  0
    4.2970   -5.5006    0.7552 C   0  0  0  0  0  0  0  0  0  0  0  0
    4.7333   -4.1099    0.3053 C   0  0  2  0  0  0  0  0  0  0  0  0
    4.2422   -3.7061   -1.1210 C   0  0  1  0  0  0  0  0  0  0  0  0
    2.7238   -3.4577   -1.2235 C   0  0  0  0  0  0  0  0  0  0  0  0
    2.2604   -3.1680   -2.6665 C   0  0  0  0  0  0  0  0  0  0  0  0
    3.3029   -2.4466   -3.5335 C   0  0  0  0  0  0  0  0  0  0  0  0
    4.2812   -1.6215   -2.6879 C   0  0  0  0  0  0  0  0  0  0  0  0
    5.0117   -2.4794   -1.6617 C   0  0  0  0  0  0  0  0  0  0  0  0
    6.2004   -2.1895   -1.2960 N   0  0  0  0  0  0  0  0  0  0  0  0
    6.8595   -2.9595   -0.3862 C   0  0  0  0  0  0  0  0  0  0  0  0
    8.1515   -2.9409   -0.0788 N   0  0  0  0  0  0  0  0  0  0  0  0
    8.1964   -3.9112    0.8795 C   0  0  0  0  0  0  0  0  0  0  0  0
    7.0307   -4.4494    1.2191 N   0  0  0  0  0  0  0  0  0  0  0  0
    6.1797   -3.8753    0.3393 N   0  0  0  0  0  0  0  0  0  0  0  0
    5.0108   -6.6757    0.7827 C   0  0  0  0  0  0  0  0  0  0  0  0
    4.7215   -8.7757    1.3867 H   0  0  0  0  0  0  0  0  0  0  0  0
    2.2544   -8.1156    2.0926 H   0  0  0  0  0  0  0  0  0  0  0  0
    4.3039   -3.3982    1.0119 H   0  0  0  0  0  0  0  0  0  0  0  0
    4.4997   -4.5327   -1.7829 H   0  0  0  0  0  0  0  0  0  0  0  0
    2.1546   -4.3079   -0.8552 H   0  0  0  0  0  0  0  0  0  0  0  0
    2.4624   -2.6135   -0.5827 H   0  0  0  0  0  0  0  0  0  0  0  0
    1.9915   -4.0990   -3.1612 H   0  0  0  0  0  0  0  0  0  0  0  0
    1.3440   -2.5961   -2.6261 H   0  0  0  0  0  0  0  0  0  0  0  0
    3.8637   -3.1865   -4.1072 H   0  0  0  0  0  0  0  0  0  0  0  0
    2.7995   -1.8137   -4.2648 H   0  0  0  0  0  0  0  0  0  0  0  0
    5.0122   -1.1482   -3.3405 H   0  0  0  0  0  0  0  0  0  0  0  0
    3.7525   -0.8179   -2.1737 H   0  0  0  0  0  0  0  0  0  0  0  0
    9.1070   -4.1981    1.3875 H   0  0  0  0  0  0  0  0  0  0  0  0
    6.0396   -6.7784    0.4791 H   0  0  0  0  0  0  0  0  0  0  0  0
  1 18  1  0
  1  2  2  0
  1 19  1  0
  2  3  1  0
  2 20  1  0
  3  4  1  0
  4  5  1  0
  4 18  2  0
  5 17  1  0
  5  6  1  0
  5 21  1  1
  6 11  1  0
  6  7  1  0
  6 22  1  6
  7  8  1  0
  7 23  1  0
  7 24  1  0
  8  9  1  0
  8 25  1  0
  8 26  1  0
  9 10  1  0
  9 27  1  0
  9 28  1  0
 10 11  1  0
 10 29  1  0
 10 30  1  0
 11 12  2  0
 12 13  1  0
 13 17  1  0
 13 14  2  0
 14 15  1  0
 15 16  2  0
 15 31  1  0
 16 17  1  0
 18 32  1  0
M  END
>  <i_m_ct_stereo_status>  (307) 
1

>  <s_m_source_file>  (307) 
/var/tmp/pbs.5076255.sched01/tmptpdlle0r/921kky2sk3.sdf

>  <i_m_source_file_index>  (307) 
43

>  <i_lp_mmshare_version>  (307) 
48012

>  <i_f3d_flags>  (307) 
0

>  <s_epik_input>  (307) 
W2NIXTFbY0hdW2NIXXNjMVtDQEhdMm4obltjSF1uMyljM049QyhbQ0BASF0yNClbQ0gyXVtDSDJdW0NIMl1bQ0gyXTQ=

>  <s_epik_cmdline>  (307) 
J2VwaWtfcHl0aG9uJywgJy1waHQnLCAnMi4wJywgJy1waCcsICc3LjAnLCAnLXRuJywgJzgnLCAnLW1hJywgJzIwMCcsICctaW1hZScsICc8aW5maWxlLm1hZT4nLCAnLW9tYWUnLCAnPG91dGZpbGUubWFlPic=

>  <r_lp_tautomer_probability>  (307) 
1

>  <r_epik_Ionization_Penalty>  (307) 
2.17567e-06

>  <r_epik_Ionization_Penalty_Charging>  (307) 
0

>  <r_epik_Ionization_Penalty_Neutral>  (307) 
2.17567e-06

>  <r_epik_State_Penalty>  (307) 
-0

>  <r_epik_Charging_Adjusted_Penalty>  (307) 
0

>  <i_epik_Tot_Q>  (307) 
0

>  <i_epik_Tot_abs_Q>  (307) 
0

>  <s_epik_Chemistry_Notes>  (307) 
This compound has an imine and may undergo hydrolysis.

>  <s_lp_Force_Field>  (307) 
OPLS3e

>  <r_lp_Energy>  (307) 
27.1661

>  <b_lp_Chiralities_Consistent>  (307) 
1

>  <s_lp_Variant>  (307) 
85:0-1

>  <s_i_glide_gridfile>  (307) 
pfpi4k_grid

>  <i_i_glide_lignum>  (307) 
43

>  <i_i_glide_rotatable_bonds>  (307) 
1

>  <r_i_docking_score>  (307) 
-4.23299

>  <r_i_glide_ligand_efficiency>  (307) 
-0.235166

>  <r_i_glide_ligand_efficiency_sa>  (307) 
-0.61631

>  <r_i_glide_ligand_efficiency_ln>  (307) 
-1.08807

>  <r_i_glide_gscore>  (307) 
-4.23299

>  <r_i_glide_lipo>  (307) 
-0.69282

>  <r_i_glide_hbond>  (307) 
-0.0728354

>  <r_i_glide_metal>  (307) 
-0

>  <r_i_glide_rewards>  (307) 
-2.01529

>  <r_i_glide_evdw>  (307) 
-27.465

>  <r_i_glide_ecoul>  (307) 
-2.19534

>  <r_i_glide_erotb>  (307) 
0.264649

>  <r_i_glide_esite>  (307) 
-0.0141444

>  <r_i_glide_emodel>  (307) 
-36.5871

>  <r_i_glide_energy>  (307) 
-29.6603

>  <r_i_glide_einternal>  (307) 
1.10685

>  <r_i_glide_intrahb_reward>  (307) 
-0

>  <i_i_glide_confnum>  (307) 
4

>  <i_i_glide_posenum>  (307) 
37

>  <r_i_glide_eff_state_penalty>  (307) 
0

>  <ligand_id>  (307) 
85

>  <original_smiles>  (307) 
c1csc(C2C3CCCCC3=Nc3ncnn32)c1

>  <smiles>  (307) 
[H]c1nc2n(n1)C([H])(c1sc([H])c([H])c1[H])C1([H])C(=N2)C([H])([H])C([H])([H])C([H])([H])C1([H])[H]

$$$$
85:0:1
     RDKit          3D

 32 35  0  0  1  0  0  0  0  0999 V2000
    2.8451   -6.1410    2.7404 C   0  0  0  0  0  0  0  0  0  0  0  0
    3.3167   -7.1923    2.0034 C   0  0  0  0  0  0  0  0  0  0  0  0
    4.3351   -6.6439    0.6983 S   0  0  0  0  0  0  0  0  0  0  0  0
    4.1086   -4.9681    1.1519 C   0  0  0  0  0  0  0  0  0  0  0  0
    4.7675   -3.8331    0.3961 C   0  0  2  0  0  0  0  0  0  0  0  0
    4.2613   -3.6640   -1.0639 C   0  0  1  0  0  0  0  0  0  0  0  0
    2.8191   -3.1377   -1.1733 C   0  0  0  0  0  0  0  0  0  0  0  0
    2.3024   -3.0716   -2.6335 C   0  0  0  0  0  0  0  0  0  0  0  0
    3.4078   -2.8089   -3.6687 C   0  0  0  0  0  0  0  0  0  0  0  0
    4.5878   -2.0461   -3.0630 C   0  0  0  0  0  0  0  0  0  0  0  0
    5.2181   -2.7838   -1.8920 C   0  0  0  0  0  0  0  0  0  0  0  0
    6.4635   -2.6695   -1.6279 N   0  0  0  0  0  0  0  0  0  0  0  0
    7.0223   -3.3488   -0.5856 C   0  0  0  0  0  0  0  0  0  0  0  0
    8.3088   -3.5429   -0.3120 N   0  0  0  0  0  0  0  0  0  0  0  0
    8.2164   -4.2692    0.8423 C   0  0  0  0  0  0  0  0  0  0  0  0
    6.9858   -4.4941    1.2919 N   0  0  0  0  0  0  0  0  0  0  0  0
    6.2198   -3.9224    0.3362 N   0  0  0  0  0  0  0  0  0  0  0  0
    3.2956   -4.8763    2.2552 C   0  0  0  0  0  0  0  0  0  0  0  0
    2.2047   -6.2346    3.6075 H   0  0  0  0  0  0  0  0  0  0  0  0
    3.1345   -8.2498    2.1562 H   0  0  0  0  0  0  0  0  0  0  0  0
    4.5521   -2.9023    0.9276 H   0  0  0  0  0  0  0  0  0  0  0  0
    4.2934   -4.6512   -1.5184 H   0  0  0  0  0  0  0  0  0  0  0  0
    2.1388   -3.7479   -0.5800 H   0  0  0  0  0  0  0  0  0  0  0  0
    2.7873   -2.1321   -0.7463 H   0  0  0  0  0  0  0  0  0  0  0  0
    1.8113   -4.0100   -2.8908 H   0  0  0  0  0  0  0  0  0  0  0  0
    1.5351   -2.3042   -2.7203 H   0  0  0  0  0  0  0  0  0  0  0  0
    3.7661   -3.7593   -4.0723 H   0  0  0  0  0  0  0  0  0  0  0  0
    3.0012   -2.2579   -4.5166 H   0  0  0  0  0  0  0  0  0  0  0  0
    5.3402   -1.9242   -3.8342 H   0  0  0  0  0  0  0  0  0  0  0  0
    4.2786   -1.0496   -2.7389 H   0  0  0  0  0  0  0  0  0  0  0  0
    9.0758   -4.6359    1.3835 H   0  0  0  0  0  0  0  0  0  0  0  0
    3.0137   -3.9567    2.7435 H   0  0  0  0  0  0  0  0  0  0  0  0
  1 18  1  0
  1  2  2  0
  1 19  1  0
  2  3  1  0
  2 20  1  0
  3  4  1  0
  4  5  1  0
  4 18  2  0
  5 17  1  0
  5  6  1  0
  5 21  1  1
  6 11  1  0
  6  7  1  0
  6 22  1  6
  7  8  1  0
  7 23  1  0
  7 24  1  0
  8  9  1  0
  8 25  1  0
  8 26  1  0
  9 10  1  0
  9 27  1  0
  9 28  1  0
 10 11  1  0
 10 29  1  0
 10 30  1  0
 11 12  2  0
 12 13  1  0
 13 17  1  0
 13 14  2  0
 14 15  1  0
 15 16  2  0
 15 31  1  0
 16 17  1  0
 18 32  1  0
M  END
>  <i_m_ct_stereo_status>  (308) 
1

>  <s_m_source_file>  (308) 
/var/tmp/pbs.5076255.sched01/tmptpdlle0r/921kky2sk3.sdf

>  <i_m_source_file_index>  (308) 
43

>  <i_lp_mmshare_version>  (308) 
48012

>  <i_f3d_flags>  (308) 
0

>  <s_epik_input>  (308) 
W2NIXTFbY0hdW2NIXXNjMVtDQEhdMm4obltjSF1uMyljM049QyhbQ0BASF0yNClbQ0gyXVtDSDJdW0NIMl1bQ0gyXTQ=

>  <s_epik_cmdline>  (308) 
J2VwaWtfcHl0aG9uJywgJy1waHQnLCAnMi4wJywgJy1waCcsICc3LjAnLCAnLXRuJywgJzgnLCAnLW1hJywgJzIwMCcsICctaW1hZScsICc8aW5maWxlLm1hZT4nLCAnLW9tYWUnLCAnPG91dGZpbGUubWFlPic=

>  <r_lp_tautomer_probability>  (308) 
1

>  <r_epik_Ionization_Penalty>  (308) 
2.17567e-06

>  <r_epik_Ionization_Penalty_Charging>  (308) 
0

>  <r_epik_Ionization_Penalty_Neutral>  (308) 
2.17567e-06

>  <r_epik_State_Penalty>  (308) 
-0

>  <r_epik_Charging_Adjusted_Penalty>  (308) 
0

>  <i_epik_Tot_Q>  (308) 
0

>  <i_epik_Tot_abs_Q>  (308) 
0

>  <s_epik_Chemistry_Notes>  (308) 
This compound has an imine and may undergo hydrolysis.

>  <s_lp_Force_Field>  (308) 
OPLS3e

>  <r_lp_Energy>  (308) 
27.1661

>  <b_lp_Chiralities_Consistent>  (308) 
1

>  <s_lp_Variant>  (308) 
85:0-1

>  <s_i_glide_gridfile>  (308) 
pfpi4k_grid

>  <i_i_glide_lignum>  (308) 
43

>  <i_i_glide_rotatable_bonds>  (308) 
1

>  <r_i_docking_score>  (308) 
-4.18535

>  <r_i_glide_ligand_efficiency>  (308) 
-0.232519

>  <r_i_glide_ligand_efficiency_sa>  (308) 
-0.609373

>  <r_i_glide_ligand_efficiency_ln>  (308) 
-1.07582

>  <r_i_glide_gscore>  (308) 
-4.18535

>  <r_i_glide_lipo>  (308) 
-0.600583

>  <r_i_glide_hbond>  (308) 
-0.00140815

>  <r_i_glide_metal>  (308) 
-0

>  <r_i_glide_rewards>  (308) 
-2.22911

>  <r_i_glide_evdw>  (308) 
-26.3743

>  <r_i_glide_ecoul>  (308) 
-2.00122

>  <r_i_glide_erotb>  (308) 
0.264649

>  <r_i_glide_esite>  (308) 
0

>  <r_i_glide_emodel>  (308) 
-36.1117

>  <r_i_glide_energy>  (308) 
-28.3755

>  <r_i_glide_einternal>  (308) 
0.00158807

>  <r_i_glide_intrahb_reward>  (308) 
-0

>  <i_i_glide_confnum>  (308) 
3

>  <i_i_glide_posenum>  (308) 
21

>  <r_i_glide_eff_state_penalty>  (308) 
0

>  <ligand_id>  (308) 
85

>  <original_smiles>  (308) 
c1csc(C2C3CCCCC3=Nc3ncnn32)c1

>  <smiles>  (308) 
[H]c1nc2n(n1)C([H])(c1sc([H])c([H])c1[H])C1([H])C(=N2)C([H])([H])C([H])([H])C([H])([H])C1([H])[H]

$$$$
85:0:2
     RDKit          3D

 32 35  0  0  1  0  0  0  0  0999 V2000
    2.6366   -6.7474    1.4614 C   0  0  0  0  0  0  0  0  0  0  0  0
    3.8385   -7.1021    0.9091 C   0  0  0  0  0  0  0  0  0  0  0  0
    4.6476   -5.7235    0.2221 S   0  0  0  0  0  0  0  0  0  0  0  0
    3.3302   -4.6578    0.6493 C   0  0  0  0  0  0  0  0  0  0  0  0
    3.3500   -3.1793    0.3217 C   0  0  2  0  0  0  0  0  0  0  0  0
    3.7009   -2.8527   -1.1603 C   0  0  1  0  0  0  0  0  0  0  0  0
    2.5917   -3.2320   -2.1598 C   0  0  0  0  0  0  0  0  0  0  0  0
    3.0106   -2.9974   -3.6358 C   0  0  0  0  0  0  0  0  0  0  0  0
    3.9858   -1.8167   -3.8235 C   0  0  0  0  0  0  0  0  0  0  0  0
    3.8624   -0.7735   -2.7054 C   0  0  0  0  0  0  0  0  0  0  0  0
    4.1055   -1.3766   -1.3328 C   0  0  0  0  0  0  0  0  0  0  0  0
    4.6295   -0.6912   -0.3948 N   0  0  0  0  0  0  0  0  0  0  0  0
    4.8269   -1.2263    0.8461 C   0  0  0  0  0  0  0  0  0  0  0  0
    5.5230   -0.7230    1.8590 N   0  0  0  0  0  0  0  0  0  0  0  0
    5.3265   -1.6974    2.8025 C   0  0  0  0  0  0  0  0  0  0  0  0
    4.5562   -2.7229    2.4419 N   0  0  0  0  0  0  0  0  0  0  0  0
    4.2649   -2.4139    1.1564 N   0  0  0  0  0  0  0  0  0  0  0  0
    2.3561   -5.3592    1.3238 C   0  0  0  0  0  0  0  0  0  0  0  0
    1.9607   -7.4319    1.9505 H   0  0  0  0  0  0  0  0  0  0  0  0
    4.2813   -8.0886    0.8697 H   0  0  0  0  0  0  0  0  0  0  0  0
    2.3571   -2.7704    0.5242 H   0  0  0  0  0  0  0  0  0  0  0  0
    4.5893   -3.4216   -1.4205 H   0  0  0  0  0  0  0  0  0  0  0  0
    2.2727   -4.2509   -2.0063 H   0  0  0  0  0  0  0  0  0  0  0  0
    1.6892   -2.6533   -1.9463 H   0  0  0  0  0  0  0  0  0  0  0  0
    3.4869   -3.8957   -4.0287 H   0  0  0  0  0  0  0  0  0  0  0  0
    2.1118   -2.8309   -4.2274 H   0  0  0  0  0  0  0  0  0  0  0  0
    5.0106   -2.1893   -3.8292 H   0  0  0  0  0  0  0  0  0  0  0  0
    3.8253   -1.3416   -4.7866 H   0  0  0  0  0  0  0  0  0  0  0  0
    4.5909    0.0234   -2.8582 H   0  0  0  0  0  0  0  0  0  0  0  0
    2.8737   -0.3074   -2.7225 H   0  0  0  0  0  0  0  0  0  0  0  0
    5.7592   -1.6558    3.7968 H   0  0  0  0  0  0  0  0  0  0  0  0
    1.4537   -4.9290    1.7310 H   0  0  0  0  0  0  0  0  0  0  0  0
  1 18  1  0
  1  2  2  0
  1 19  1  0
  2  3  1  0
  2 20  1  0
  3  4  1  0
  4  5  1  0
  4 18  2  0
  5 17  1  0
  5  6  1  0
  5 21  1  1
  6 11  1  0
  6  7  1  0
  6 22  1  6
  7  8  1  0
  7 23  1  0
  7 24  1  0
  8  9  1  0
  8 25  1  0
  8 26  1  0
  9 10  1  0
  9 27  1  0
  9 28  1  0
 10 11  1  0
 10 29  1  0
 10 30  1  0
 11 12  2  0
 12 13  1  0
 13 17  1  0
 13 14  2  0
 14 15  1  0
 15 16  2  0
 15 31  1  0
 16 17  1  0
 18 32  1  0
M  END
>  <i_m_ct_stereo_status>  (309) 
1

>  <s_m_source_file>  (309) 
/var/tmp/pbs.5076255.sched01/tmptpdlle0r/921kky2sk3.sdf

>  <i_m_source_file_index>  (309) 
43

>  <i_lp_mmshare_version>  (309) 
48012

>  <i_f3d_flags>  (309) 
0

>  <s_epik_input>  (309) 
W2NIXTFbY0hdW2NIXXNjMVtDQEhdMm4obltjSF1uMyljM049QyhbQ0BASF0yNClbQ0gyXVtDSDJdW0NIMl1bQ0gyXTQ=

>  <s_epik_cmdline>  (309) 
J2VwaWtfcHl0aG9uJywgJy1waHQnLCAnMi4wJywgJy1waCcsICc3LjAnLCAnLXRuJywgJzgnLCAnLW1hJywgJzIwMCcsICctaW1hZScsICc8aW5maWxlLm1hZT4nLCAnLW9tYWUnLCAnPG91dGZpbGUubWFlPic=

>  <r_lp_tautomer_probability>  (309) 
1

>  <r_epik_Ionization_Penalty>  (309) 
2.17567e-06

>  <r_epik_Ionization_Penalty_Charging>  (309) 
0

>  <r_epik_Ionization_Penalty_Neutral>  (309) 
2.17567e-06

>  <r_epik_State_Penalty>  (309) 
-0

>  <r_epik_Charging_Adjusted_Penalty>  (309) 
0

>  <i_epik_Tot_Q>  (309) 
0

>  <i_epik_Tot_abs_Q>  (309) 
0

>  <s_epik_Chemistry_Notes>  (309) 
This compound has an imine and may undergo hydrolysis.

>  <s_lp_Force_Field>  (309) 
OPLS3e

>  <r_lp_Energy>  (309) 
27.1661

>  <b_lp_Chiralities_Consistent>  (309) 
1

>  <s_lp_Variant>  (309) 
85:0-1

>  <s_i_glide_gridfile>  (309) 
pfpi4k_grid

>  <i_i_glide_lignum>  (309) 
43

>  <i_i_glide_rotatable_bonds>  (309) 
1

>  <r_i_docking_score>  (309) 
-3.62087

>  <r_i_glide_ligand_efficiency>  (309) 
-0.201159

>  <r_i_glide_ligand_efficiency_sa>  (309) 
-0.527186

>  <r_i_glide_ligand_efficiency_ln>  (309) 
-0.930725

>  <r_i_glide_gscore>  (309) 
-3.62087

>  <r_i_glide_lipo>  (309) 
-0.625334

>  <r_i_glide_hbond>  (309) 
0

>  <r_i_glide_metal>  (309) 
-0

>  <r_i_glide_rewards>  (309) 
-1.83404

>  <r_i_glide_evdw>  (309) 
-26.3208

>  <r_i_glide_ecoul>  (309) 
-0.413355

>  <r_i_glide_erotb>  (309) 
0.264649

>  <r_i_glide_esite>  (309) 
-0.0481017

>  <r_i_glide_emodel>  (309) 
-33.2808

>  <r_i_glide_energy>  (309) 
-26.7342

>  <r_i_glide_einternal>  (309) 
0.318373

>  <r_i_glide_intrahb_reward>  (309) 
-0

>  <i_i_glide_confnum>  (309) 
4

>  <i_i_glide_posenum>  (309) 
24

>  <r_i_glide_eff_state_penalty>  (309) 
0

>  <ligand_id>  (309) 
85

>  <original_smiles>  (309) 
c1csc(C2C3CCCCC3=Nc3ncnn32)c1

>  <smiles>  (309) 
[H]c1nc2n(n1)C([H])(c1sc([H])c([H])c1[H])C1([H])C(=N2)C([H])([H])C([H])([H])C([H])([H])C1([H])[H]

$$$$
87:0:0
     RDKit          3D

 11 11  0  0  1  0  0  0  0  0999 V2000
   -6.0373   -5.7330   -4.7222 C   0  0  0  0  0  0  0  0  0  0  0  0
   -6.8766   -4.4855   -5.0348 C   0  0  0  0  0  0  0  0  0  0  0  0
   -8.1968   -4.8665   -5.5142 N   0  0  0  0  0  0  0  0  0  0  0  0
   -8.1832   -5.3069   -6.9290 N   0  0  0  0  0  0  0  0  0  0  0  0
   -9.0840   -4.5174   -7.4028 N   0  0  0  0  0  0  0  0  0  0  0  0
   -9.3042   -3.6715   -5.8950 S   0  0  0  0  0  0  0  0  0  0  0  0
   -5.0615   -5.4503   -4.3290 H   0  0  0  0  0  0  0  0  0  0  0  0
   -5.8751   -6.3346   -5.6164 H   0  0  0  0  0  0  0  0  0  0  0  0
   -6.5289   -6.3597   -3.9773 H   0  0  0  0  0  0  0  0  0  0  0  0
   -6.9879   -3.8901   -4.1277 H   0  0  0  0  0  0  0  0  0  0  0  0
   -6.3737   -3.8562   -5.7702 H   0  0  0  0  0  0  0  0  0  0  0  0
  1  2  1  0
  1  7  1  0
  1  8  1  0
  1  9  1  0
  2  3  1  0
  2 10  1  0
  2 11  1  0
  3  6  1  0
  3  4  1  0
  4  5  2  0
  5  6  1  0
M  END
>  <i_m_ct_stereo_status>  (310) 
1

>  <s_m_source_file>  (310) 
/var/tmp/pbs.5076255.sched01/tmptpdlle0r/921kky2sk3.sdf

>  <i_m_source_file_index>  (310) 
45

>  <i_lp_mmshare_version>  (310) 
48012

>  <i_f3d_flags>  (310) 
0

>  <s_epik_input>  (310) 
W0NIM11bQ0gyXW4xbm5zMQ==

>  <s_epik_cmdline>  (310) 
J2VwaWtfcHl0aG9uJywgJy1waHQnLCAnMi4wJywgJy1waCcsICc3LjAnLCAnLXRuJywgJzgnLCAnLW1hJywgJzIwMCcsICctaW1hZScsICc8aW5maWxlLm1hZT4nLCAnLW9tYWUnLCAnPG91dGZpbGUubWFlPic=

>  <r_lp_tautomer_probability>  (310) 
1

>  <r_epik_Ionization_Penalty>  (310) 
6.43336e-07

>  <r_epik_Ionization_Penalty_Charging>  (310) 
0

>  <r_epik_Ionization_Penalty_Neutral>  (310) 
6.43336e-07

>  <r_epik_State_Penalty>  (310) 
-0

>  <r_epik_Charging_Adjusted_Penalty>  (310) 
0

>  <i_epik_Tot_Q>  (310) 
0

>  <i_epik_Tot_abs_Q>  (310) 
0

>  <s_epik_Chemistry_Notes>  (310) 
This compound has a N-S or N-O group and may undergo hydrolysis at high or low pH.

>  <s_lp_Force_Field>  (310) 
OPLS3e

>  <r_lp_Energy>  (310) 
13.9369

>  <b_lp_Chiralities_Consistent>  (310) 
1

>  <s_lp_Variant>  (310) 
87:0-1

>  <s_i_glide_gridfile>  (310) 
pfpi4k_grid

>  <i_i_glide_lignum>  (310) 
45

>  <i_i_glide_rotatable_bonds>  (310) 
1

>  <r_i_docking_score>  (310) 
-4.49153

>  <r_i_glide_ligand_efficiency>  (310) 
-0.748588

>  <r_i_glide_ligand_efficiency_sa>  (310) 
-1.36028

>  <r_i_glide_ligand_efficiency_ln>  (310) 
-1.60885

>  <r_i_glide_gscore>  (310) 
-4.49153

>  <r_i_glide_lipo>  (310) 
-0.99

>  <r_i_glide_hbond>  (310) 
0

>  <r_i_glide_metal>  (310) 
-0

>  <r_i_glide_rewards>  (310) 
-2.7

>  <r_i_glide_evdw>  (310) 
-16.4455

>  <r_i_glide_ecoul>  (310) 
0.13829

>  <r_i_glide_erotb>  (310) 
0

>  <r_i_glide_esite>  (310) 
0

>  <r_i_glide_emodel>  (310) 
-21.2619

>  <r_i_glide_energy>  (310) 
-16.3072

>  <r_i_glide_einternal>  (310) 
0.101089

>  <r_i_glide_intrahb_reward>  (310) 
-0

>  <i_i_glide_confnum>  (310) 
2

>  <i_i_glide_posenum>  (310) 
14

>  <r_i_glide_eff_state_penalty>  (310) 
0

>  <ligand_id>  (310) 
87

>  <original_smiles>  (310) 
CCn1nns1

>  <smiles>  (310) 
[H]C([H])([H])C([H])([H])n1nns1

$$$$
87:0:1
     RDKit          3D

 11 11  0  0  1  0  0  0  0  0999 V2000
    3.5281   -0.1721   -4.6756 C   0  0  0  0  0  0  0  0  0  0  0  0
    3.5061   -0.4075   -3.1573 C   0  0  0  0  0  0  0  0  0  0  0  0
    3.5824   -1.8081   -2.7617 N   0  0  0  0  0  0  0  0  0  0  0  0
    4.7977   -2.5153   -3.2269 N   0  0  0  0  0  0  0  0  0  0  0  0
    4.2342   -3.4496   -3.9132 N   0  0  0  0  0  0  0  0  0  0  0  0
    2.6137   -2.9610   -3.4883 S   0  0  0  0  0  0  0  0  0  0  0  0
    3.5007    0.8947   -4.9060 H   0  0  0  0  0  0  0  0  0  0  0  0
    2.6616   -0.6217   -5.1581 H   0  0  0  0  0  0  0  0  0  0  0  0
    4.4277   -0.5854   -5.1201 H   0  0  0  0  0  0  0  0  0  0  0  0
    4.3221    0.1403   -2.6830 H   0  0  0  0  0  0  0  0  0  0  0  0
    2.5754   -0.0032   -2.7542 H   0  0  0  0  0  0  0  0  0  0  0  0
  1  2  1  0
  1  7  1  0
  1  8  1  0
  1  9  1  0
  2  3  1  0
  2 10  1  0
  2 11  1  0
  3  6  1  0
  3  4  1  0
  4  5  2  0
  5  6  1  0
M  END
>  <i_m_ct_stereo_status>  (311) 
1

>  <s_m_source_file>  (311) 
/var/tmp/pbs.5076255.sched01/tmptpdlle0r/921kky2sk3.sdf

>  <i_m_source_file_index>  (311) 
45

>  <i_lp_mmshare_version>  (311) 
48012

>  <i_f3d_flags>  (311) 
0

>  <s_epik_input>  (311) 
W0NIM11bQ0gyXW4xbm5zMQ==

>  <s_epik_cmdline>  (311) 
J2VwaWtfcHl0aG9uJywgJy1waHQnLCAnMi4wJywgJy1waCcsICc3LjAnLCAnLXRuJywgJzgnLCAnLW1hJywgJzIwMCcsICctaW1hZScsICc8aW5maWxlLm1hZT4nLCAnLW9tYWUnLCAnPG91dGZpbGUubWFlPic=

>  <r_lp_tautomer_probability>  (311) 
1

>  <r_epik_Ionization_Penalty>  (311) 
6.43336e-07

>  <r_epik_Ionization_Penalty_Charging>  (311) 
0

>  <r_epik_Ionization_Penalty_Neutral>  (311) 
6.43336e-07

>  <r_epik_State_Penalty>  (311) 
-0

>  <r_epik_Charging_Adjusted_Penalty>  (311) 
0

>  <i_epik_Tot_Q>  (311) 
0

>  <i_epik_Tot_abs_Q>  (311) 
0

>  <s_epik_Chemistry_Notes>  (311) 
This compound has a N-S or N-O group and may undergo hydrolysis at high or low pH.

>  <s_lp_Force_Field>  (311) 
OPLS3e

>  <r_lp_Energy>  (311) 
13.9369

>  <b_lp_Chiralities_Consistent>  (311) 
1

>  <s_lp_Variant>  (311) 
87:0-1

>  <s_i_glide_gridfile>  (311) 
pfpi4k_grid

>  <i_i_glide_lignum>  (311) 
45

>  <i_i_glide_rotatable_bonds>  (311) 
1

>  <r_i_docking_score>  (311) 
-3.90896

>  <r_i_glide_ligand_efficiency>  (311) 
-0.651493

>  <r_i_glide_ligand_efficiency_sa>  (311) 
-1.18384

>  <r_i_glide_ligand_efficiency_ln>  (311) 
-1.40018

>  <r_i_glide_gscore>  (311) 
-3.90896

>  <r_i_glide_lipo>  (311) 
-0.612081

>  <r_i_glide_hbond>  (311) 
0

>  <r_i_glide_metal>  (311) 
-0

>  <r_i_glide_rewards>  (311) 
-2.25

>  <r_i_glide_evdw>  (311) 
-17.2629

>  <r_i_glide_ecoul>  (311) 
-1.0972

>  <r_i_glide_erotb>  (311) 
0

>  <r_i_glide_esite>  (311) 
-0.0191518

>  <r_i_glide_emodel>  (311) 
-22.1179

>  <r_i_glide_energy>  (311) 
-18.3601

>  <r_i_glide_einternal>  (311) 
1.13804

>  <r_i_glide_intrahb_reward>  (311) 
-0

>  <i_i_glide_confnum>  (311) 
1

>  <i_i_glide_posenum>  (311) 
23

>  <r_i_glide_eff_state_penalty>  (311) 
0

>  <ligand_id>  (311) 
87

>  <original_smiles>  (311) 
CCn1nns1

>  <smiles>  (311) 
[H]C([H])([H])C([H])([H])n1nns1

$$$$
87:0:2
     RDKit          3D

 11 11  0  0  1  0  0  0  0  0999 V2000
    3.2842    0.5381   -5.0693 C   0  0  0  0  0  0  0  0  0  0  0  0
    3.5512    0.0742   -3.6345 C   0  0  0  0  0  0  0  0  0  0  0  0
    4.2135   -1.2157   -3.6340 N   0  0  0  0  0  0  0  0  0  0  0  0
    3.2734   -2.3251   -3.9167 N   0  0  0  0  0  0  0  0  0  0  0  0
    3.5056   -3.0562   -2.8831 N   0  0  0  0  0  0  0  0  0  0  0  0
    4.5795   -1.8953   -2.1525 S   0  0  0  0  0  0  0  0  0  0  0  0
    2.8214    1.5244   -5.0765 H   0  0  0  0  0  0  0  0  0  0  0  0
    2.6149   -0.1543   -5.5835 H   0  0  0  0  0  0  0  0  0  0  0  0
    4.2114    0.6005   -5.6275 H   0  0  0  0  0  0  0  0  0  0  0  0
    4.1906    0.7954   -3.1280 H   0  0  0  0  0  0  0  0  0  0  0  0
    2.6208    0.0156   -3.0685 H   0  0  0  0  0  0  0  0  0  0  0  0
  1  2  1  0
  1  7  1  0
  1  8  1  0
  1  9  1  0
  2  3  1  0
  2 10  1  0
  2 11  1  0
  3  6  1  0
  3  4  1  0
  4  5  2  0
  5  6  1  0
M  END
>  <i_m_ct_stereo_status>  (312) 
1

>  <s_m_source_file>  (312) 
/var/tmp/pbs.5076255.sched01/tmptpdlle0r/921kky2sk3.sdf

>  <i_m_source_file_index>  (312) 
45

>  <i_lp_mmshare_version>  (312) 
48012

>  <i_f3d_flags>  (312) 
0

>  <s_epik_input>  (312) 
W0NIM11bQ0gyXW4xbm5zMQ==

>  <s_epik_cmdline>  (312) 
J2VwaWtfcHl0aG9uJywgJy1waHQnLCAnMi4wJywgJy1waCcsICc3LjAnLCAnLXRuJywgJzgnLCAnLW1hJywgJzIwMCcsICctaW1hZScsICc8aW5maWxlLm1hZT4nLCAnLW9tYWUnLCAnPG91dGZpbGUubWFlPic=

>  <r_lp_tautomer_probability>  (312) 
1

>  <r_epik_Ionization_Penalty>  (312) 
6.43336e-07

>  <r_epik_Ionization_Penalty_Charging>  (312) 
0

>  <r_epik_Ionization_Penalty_Neutral>  (312) 
6.43336e-07

>  <r_epik_State_Penalty>  (312) 
-0

>  <r_epik_Charging_Adjusted_Penalty>  (312) 
0

>  <i_epik_Tot_Q>  (312) 
0

>  <i_epik_Tot_abs_Q>  (312) 
0

>  <s_epik_Chemistry_Notes>  (312) 
This compound has a N-S or N-O group and may undergo hydrolysis at high or low pH.

>  <s_lp_Force_Field>  (312) 
OPLS3e

>  <r_lp_Energy>  (312) 
13.9369

>  <b_lp_Chiralities_Consistent>  (312) 
1

>  <s_lp_Variant>  (312) 
87:0-1

>  <s_i_glide_gridfile>  (312) 
pfpi4k_grid

>  <i_i_glide_lignum>  (312) 
45

>  <i_i_glide_rotatable_bonds>  (312) 
1

>  <r_i_docking_score>  (312) 
-3.63877

>  <r_i_glide_ligand_efficiency>  (312) 
-0.606461

>  <r_i_glide_ligand_efficiency_sa>  (312) 
-1.10201

>  <r_i_glide_ligand_efficiency_ln>  (312) 
-1.3034

>  <r_i_glide_gscore>  (312) 
-3.63877

>  <r_i_glide_lipo>  (312) 
-0.146026

>  <r_i_glide_hbond>  (312) 
0

>  <r_i_glide_metal>  (312) 
-0

>  <r_i_glide_rewards>  (312) 
-2.53708

>  <r_i_glide_evdw>  (312) 
-16.9944

>  <r_i_glide_ecoul>  (312) 
-0.667248

>  <r_i_glide_erotb>  (312) 
0

>  <r_i_glide_esite>  (312) 
-0.00585363

>  <r_i_glide_emodel>  (312) 
-21.6755

>  <r_i_glide_energy>  (312) 
-17.6617

>  <r_i_glide_einternal>  (312) 
0.07969

>  <r_i_glide_intrahb_reward>  (312) 
-0

>  <i_i_glide_confnum>  (312) 
2

>  <i_i_glide_posenum>  (312) 
26

>  <r_i_glide_eff_state_penalty>  (312) 
0

>  <ligand_id>  (312) 
87

>  <original_smiles>  (312) 
CCn1nns1

>  <smiles>  (312) 
[H]C([H])([H])C([H])([H])n1nns1

$$$$
88:0:0
     RDKit          3D

 72 77  0  0  1  0  0  0  0  0999 V2000
    7.0432   -8.0268    3.3763 C   0  0  0  0  0  0  0  0  0  0  0  0
    5.6273   -7.4166    3.5335 C   0  0  1  0  0  0  0  0  0  0  0  0
    5.3568   -7.4396    5.0485 C   0  0  0  0  0  0  0  0  0  0  0  0
    5.4564   -6.3806    5.8644 C   0  0  0  0  0  0  0  0  0  0  0  0
    5.8020   -5.0681    5.3263 C   0  0  0  0  0  0  0  0  0  0  0  0
    6.0836   -4.1223    6.0625 O   0  0  0  0  0  0  0  0  0  0  0  0
    5.8119   -4.9057    3.8647 C   0  0  0  0  0  0  0  0  0  0  0  0
    5.7710   -5.9609    3.0256 C   0  0  0  0  0  0  0  0  0  0  0  0
    5.4909   -5.6464    1.5919 C   0  0  0  0  0  0  0  0  0  0  0  0
    6.0639   -4.6565    1.0328 N   0  0  0  0  0  0  0  0  0  0  0  0
    5.8037   -4.5786   -0.3445 O   0  0  0  0  0  0  0  0  0  0  0  0
    6.2055   -3.2944   -0.7858 C   0  0  0  0  0  0  0  0  0  0  0  0
    5.8766   -3.1151   -2.2765 C   0  0  0  0  0  0  0  0  0  0  0  0
    4.4708   -3.4596   -2.5814 N   0  0  0  0  0  0  0  0  0  0  0  0
    3.4478   -2.7324   -1.8073 C   0  0  0  0  0  0  0  0  0  0  0  0
    2.1485   -3.0850   -2.5212 C   0  0  0  0  0  0  0  0  0  0  0  0
    2.5450   -3.4182   -3.9624 C   0  0  0  0  0  0  0  0  0  0  0  0
    4.0657   -3.2673   -3.9813 C   0  0  0  0  0  0  0  0  0  0  0  0
    4.5032   -6.5378    0.8486 C   0  0  0  0  0  0  0  0  0  0  0  0
    3.7213   -7.5330    1.7217 C   0  0  1  0  0  0  0  0  0  0  0  0
    4.6251   -8.2973    2.7004 C   0  0  2  0  0  0  0  0  0  0  0  0
    3.8145   -9.3978    3.4289 C   0  0  0  0  0  0  0  0  0  0  0  0
    2.5036   -8.8873    4.0676 C   0  0  0  0  0  0  0  0  0  0  0  0
    1.5882   -8.1605    3.0438 C   0  0  2  0  0  0  0  0  0  0  0  0
    0.9430   -9.1723    2.0818 C   0  0  0  0  0  0  0  0  0  0  0  0
    2.3701   -7.0455    2.3208 C   0  0  1  0  0  0  0  0  0  0  0  0
    2.3752   -5.8660    3.3153 C   0  0  0  0  0  0  0  0  0  0  0  0
    1.1809   -6.0633    4.2702 C   0  0  0  0  0  0  0  0  0  0  0  0
    0.4844   -7.3276    3.7611 C   0  0  0  0  0  0  0  0  0  0  0  0
   -0.0998   -8.0239    4.8143 O   0  0  0  0  0  0  0  0  0  0  0  0
   -1.4054   -8.3506    4.3898 C   0  0  0  0  0  0  0  0  0  0  0  0
   -1.7388   -7.1860    3.4755 C   0  0  0  0  0  0  0  0  0  0  0  0
   -0.4999   -6.9213    2.8517 O   0  0  0  0  0  0  0  0  0  0  0  0
    7.7858   -7.4468    3.9353 H   0  0  0  0  0  0  0  0  0  0  0  0
    7.3668   -8.0139    2.3293 H   0  0  0  0  0  0  0  0  0  0  0  0
    7.0910   -9.0614    3.7315 H   0  0  0  0  0  0  0  0  0  0  0  0
    5.1248   -8.3971    5.4849 H   0  0  0  0  0  0  0  0  0  0  0  0
    5.3069   -6.4626    6.9344 H   0  0  0  0  0  0  0  0  0  0  0  0
    5.8017   -3.8882    3.4995 H   0  0  0  0  0  0  0  0  0  0  0  0
    5.6866   -2.5454   -0.1813 H   0  0  0  0  0  0  0  0  0  0  0  0
    7.2778   -3.1440   -0.6329 H   0  0  0  0  0  0  0  0  0  0  0  0
    6.0833   -2.0803   -2.5336 H   0  0  0  0  0  0  0  0  0  0  0  0
    6.5409   -3.7349   -2.8828 H   0  0  0  0  0  0  0  0  0  0  0  0
    3.4435   -3.0354   -0.7585 H   0  0  0  0  0  0  0  0  0  0  0  0
    3.6373   -1.6578   -1.8804 H   0  0  0  0  0  0  0  0  0  0  0  0
    1.6796   -3.9509   -2.0577 H   0  0  0  0  0  0  0  0  0  0  0  0
    1.4468   -2.2616   -2.4934 H   0  0  0  0  0  0  0  0  0  0  0  0
    2.2299   -4.4356   -4.2176 H   0  0  0  0  0  0  0  0  0  0  0  0
    2.0492   -2.7557   -4.6709 H   0  0  0  0  0  0  0  0  0  0  0  0
    4.3191   -2.2485   -4.2880 H   0  0  0  0  0  0  0  0  0  0  0  0
    4.5484   -3.9931   -4.6352 H   0  0  0  0  0  0  0  0  0  0  0  0
    3.7926   -5.8890    0.3424 H   0  0  0  0  0  0  0  0  0  0  0  0
    5.0338   -7.0805    0.0687 H   0  0  0  0  0  0  0  0  0  0  0  0
    3.4046   -8.2862    1.0014 H   0  0  0  0  0  0  0  0  0  0  0  0
    5.2733   -8.8658    2.0326 H   0  0  0  0  0  0  0  0  0  0  0  0
    3.5689  -10.1734    2.7031 H   0  0  0  0  0  0  0  0  0  0  0  0
    4.4283   -9.9154    4.1632 H   0  0  0  0  0  0  0  0  0  0  0  0
    1.9706   -9.7346    4.5024 H   0  0  0  0  0  0  0  0  0  0  0  0
    2.7438   -8.2358    4.9045 H   0  0  0  0  0  0  0  0  0  0  0  0
    0.3397   -8.6384    1.3586 H   0  0  0  0  0  0  0  0  0  0  0  0
    0.3016   -9.8876    2.5943 H   0  0  0  0  0  0  0  0  0  0  0  0
    1.6750   -9.7552    1.5305 H   0  0  0  0  0  0  0  0  0  0  0  0
    1.7495   -6.7304    1.4820 H   0  0  0  0  0  0  0  0  0  0  0  0
    3.2741   -5.8660    3.9201 H   0  0  0  0  0  0  0  0  0  0  0  0
    2.3234   -4.9118    2.7914 H   0  0  0  0  0  0  0  0  0  0  0  0
    1.5396   -6.2394    5.2854 H   0  0  0  0  0  0  0  0  0  0  0  0
    0.4830   -5.2246    4.2876 H   0  0  0  0  0  0  0  0  0  0  0  0
   -1.4152   -9.2820    3.8286 H   0  0  0  0  0  0  0  0  0  0  0  0
   -2.0954   -8.4628    5.2218 H   0  0  0  0  0  0  0  0  0  0  0  0
   -2.5260   -7.4200    2.7567 H   0  0  0  0  0  0  0  0  0  0  0  0
   -2.0287   -6.3169    4.0647 H   0  0  0  0  0  0  0  0  0  0  0  0
    4.3324   -4.4398   -2.3725 H   0  0  0  0  0  0  0  0  0  0  0  0
  2  1  1  1
  1 34  1  0
  1 35  1  0
  1 36  1  0
  2  8  1  0
  2 21  1  0
  2  3  1  0
  3  4  2  0
  3 37  1  0
  4  5  1  0
  4 38  1  0
  5  6  2  0
  5  7  1  0
  7  8  2  0
  7 39  1  0
  8  9  1  0
  9 10  2  3
  9 19  1  0
 10 11  1  0
 11 12  1  0
 12 13  1  0
 12 40  1  0
 12 41  1  0
 13 14  1  0
 13 42  1  0
 13 43  1  0
 14 18  1  0
 14 15  1  0
 14 72  1  0
 15 16  1  0
 15 44  1  0
 15 45  1  0
 16 17  1  0
 16 46  1  0
 16 47  1  0
 17 18  1  0
 17 48  1  0
 17 49  1  0
 18 50  1  0
 18 51  1  0
 19 20  1  0
 19 52  1  0
 19 53  1  0
 20 26  1  0
 20 21  1  0
 20 54  1  6
 21 22  1  0
 21 55  1  6
 22 23  1  0
 22 56  1  0
 22 57  1  0
 23 24  1  0
 23 58  1  0
 23 59  1  0
 24 29  1  0
 24 25  1  6
 24 26  1  0
 25 60  1  0
 25 61  1  0
 25 62  1  0
 26 27  1  0
 26 63  1  6
 27 28  1  0
 27 64  1  0
 27 65  1  0
 28 29  1  0
 28 66  1  0
 28 67  1  0
 29 33  1  0
 29 30  1  0
 30 31  1  0
 31 32  1  0
 31 68  1  0
 31 69  1  0
 32 33  1  0
 32 70  1  0
 32 71  1  0
M  CHG  1  14   1
M  END
>  <i_m_ct_stereo_status>  (313) 
1

>  <s_m_source_file>  (313) 
/var/tmp/pbs.5076255.sched01/tmptpdlle0r/921kky2sk3.sdf

>  <i_m_source_file_index>  (313) 
46

>  <i_lp_mmshare_version>  (313) 
48012

>  <i_f3d_flags>  (313) 
0

>  <s_epik_input>  (313) 
TzFbQ0gyXVtDSDJdT0MxMltDQEBdMyhbQ0gzXSlbQ0BASF0oW0NIMl1bQ0gyXTIpW0NAQEhdNFtDQEhdKFtDSDJdW0NIMl0zKVtDQEBdNShbQ0gzXSlDKD1bQ0hdQyg9TylbQ0hdPVtDSF01KS9DKFtDSDJdNCk9Ti9PW0NIMl1bQ0gyXU42W0NIMl1bQ0gyXVtDSDJdW0NIMl02

>  <s_epik_cmdline>  (313) 
J2VwaWtfcHl0aG9uJywgJy1waHQnLCAnMi4wJywgJy1waCcsICc3LjAnLCAnLXRuJywgJzgnLCAnLW1hJywgJzIwMCcsICctaW1hZScsICc8aW5maWxlLm1hZT4nLCAnLW9tYWUnLCAnPG91dGZpbGUubWFlPic=

>  <r_epik_Ionization_Penalty>  (313) 
0.0083228

>  <r_epik_Ionization_Penalty_Charging>  (313) 
0.0083228

>  <r_epik_Ionization_Penalty_Neutral>  (313) 
1.05397e-11

>  <r_epik_State_Penalty>  (313) 
0.0062657

>  <r_epik_Charging_Adjusted_Penalty>  (313) 
0.0145885

>  <i_epik_Tot_Q>  (313) 
1

>  <i_epik_Tot_abs_Q>  (313) 
1

>  <s_epik_Chemistry_Notes>  (313) 
This compound has an imine and may undergo hydrolysis.

>  <s_lp_Force_Field>  (313) 
OPLS3e

>  <r_lp_Energy>  (313) 
49.0853

>  <b_lp_Chiralities_Consistent>  (313) 
1

>  <s_lp_Variant>  (313) 
88:0-1

>  <s_i_glide_gridfile>  (313) 
pfpi4k_grid

>  <i_i_glide_lignum>  (313) 
46

>  <i_i_glide_rotatable_bonds>  (313) 
4

>  <r_i_docking_score>  (313) 
-2.89431

>  <r_i_glide_ligand_efficiency>  (313) 
-0.0877064

>  <r_i_glide_ligand_efficiency_sa>  (313) 
-0.281321

>  <r_i_glide_ligand_efficiency_ln>  (313) 
-0.643679

>  <r_i_glide_gscore>  (313) 
-2.89431

>  <r_i_glide_lipo>  (313) 
-0.726353

>  <r_i_glide_hbond>  (313) 
-0.158757

>  <r_i_glide_metal>  (313) 
-0

>  <r_i_glide_rewards>  (313) 
-0.380985

>  <r_i_glide_evdw>  (313) 
-25.13

>  <r_i_glide_ecoul>  (313) 
-4.16662

>  <r_i_glide_erotb>  (313) 
0.290352

>  <r_i_glide_esite>  (313) 
-0.0370754

>  <r_i_glide_emodel>  (313) 
-34.0747

>  <r_i_glide_energy>  (313) 
-29.2966

>  <r_i_glide_einternal>  (313) 
2.9136

>  <r_i_glide_intrahb_reward>  (313) 
-0

>  <i_i_glide_confnum>  (313) 
3

>  <i_i_glide_posenum>  (313) 
33

>  <r_i_glide_eff_state_penalty>  (313) 
0

>  <ligand_id>  (313) 
88

>  <original_smiles>  (313) 
CC12C=CC(=O)C=C1C(=NOCCN1CCCC1)CC1C2CCC2(C)C1CCC21OCCO1

>  <smiles>  (313) 
[H]C1=C([H])C2(C([H])([H])[H])C(=C([H])C1=O)C(=NOC([H])([H])C([H])([H])[N+]1([H])C([H])([H])C([H])([H])C([H])([H])C1([H])[H])C([H])([H])C1([H])C2([H])C([H])([H])C([H])([H])C2(C([H])([H])[H])C3(OC([H])([H])C([H])([H])O3)C([H])([H])C([H])([H])C12[H]

$$$$
88:0:1
     RDKit          3D

 72 77  0  0  1  0  0  0  0  0999 V2000
    4.8034   -8.7884    0.7073 C   0  0  0  0  0  0  0  0  0  0  0  0
    4.3645   -8.3151    2.1079 C   0  0  1  0  0  0  0  0  0  0  0  0
    5.3520   -8.9842    3.0787 C   0  0  0  0  0  0  0  0  0  0  0  0
    6.4043   -8.3759    3.6472 C   0  0  0  0  0  0  0  0  0  0  0  0
    6.6718   -6.9606    3.3896 C   0  0  0  0  0  0  0  0  0  0  0  0
    7.7042   -6.4187    3.7818 O   0  0  0  0  0  0  0  0  0  0  0  0
    5.6443   -6.1884    2.6724 C   0  0  0  0  0  0  0  0  0  0  0  0
    4.5973   -6.7851    2.0676 C   0  0  0  0  0  0  0  0  0  0  0  0
    3.4676   -5.8928    1.6755 C   0  0  0  0  0  0  0  0  0  0  0  0
    3.7272   -4.7640    1.1521 N   0  0  0  0  0  0  0  0  0  0  0  0
    2.5934   -4.1301    0.6287 O   0  0  0  0  0  0  0  0  0  0  0  0
    2.8235   -2.7317    0.6423 C   0  0  0  0  0  0  0  0  0  0  0  0
    3.8269   -2.2442   -0.4326 C   0  0  0  0  0  0  0  0  0  0  0  0
    3.1666   -1.9707   -1.7241 N   0  0  0  0  0  0  0  0  0  0  0  0
    3.8959   -1.0743   -2.6378 C   0  0  0  0  0  0  0  0  0  0  0  0
    3.1822   -1.2264   -3.9839 C   0  0  0  0  0  0  0  0  0  0  0  0
    2.5049   -2.6097   -3.9168 C   0  0  0  0  0  0  0  0  0  0  0  0
    2.8673   -3.1581   -2.5376 C   0  0  0  0  0  0  0  0  0  0  0  0
    2.0394   -6.3761    1.9197 C   0  0  0  0  0  0  0  0  0  0  0  0
    1.8989   -7.6541    2.7683 C   0  0  1  0  0  0  0  0  0  0  0  0
    2.8656   -8.7608    2.3167 C   0  0  2  0  0  0  0  0  0  0  0  0
    2.5771  -10.0751    3.0880 C   0  0  0  0  0  0  0  0  0  0  0  0
    2.5117   -9.8938    4.6219 C   0  0  0  0  0  0  0  0  0  0  0  0
    1.4879   -8.8031    5.0534 C   0  0  2  0  0  0  0  0  0  0  0  0
    0.0382   -9.3093    4.8711 C   0  0  0  0  0  0  0  0  0  0  0  0
    1.7774   -7.4802    4.3118 C   0  0  1  0  0  0  0  0  0  0  0  0
    2.9532   -6.8429    5.0841 C   0  0  0  0  0  0  0  0  0  0  0  0
    2.9413   -7.4358    6.5059 C   0  0  0  0  0  0  0  0  0  0  0  0
    1.7235   -8.3664    6.5294 C   0  0  0  0  0  0  0  0  0  0  0  0
    1.9548   -9.4436    7.3780 O   0  0  0  0  0  0  0  0  0  0  0  0
    0.8131   -9.5457    8.2025 C   0  0  0  0  0  0  0  0  0  0  0  0
    0.3468   -8.1013    8.2824 C   0  0  0  0  0  0  0  0  0  0  0  0
    0.6346   -7.6231    6.9882 O   0  0  0  0  0  0  0  0  0  0  0  0
    5.8393   -8.5183    0.5120 H   0  0  0  0  0  0  0  0  0  0  0  0
    4.2151   -8.3263   -0.0874 H   0  0  0  0  0  0  0  0  0  0  0  0
    4.7256   -9.8661    0.5894 H   0  0  0  0  0  0  0  0  0  0  0  0
    5.2149  -10.0369    3.2648 H   0  0  0  0  0  0  0  0  0  0  0  0
    7.0914   -8.9154    4.2892 H   0  0  0  0  0  0  0  0  0  0  0  0
    5.7193   -5.1108    2.7570 H   0  0  0  0  0  0  0  0  0  0  0  0
    1.8506   -2.2556    0.5260 H   0  0  0  0  0  0  0  0  0  0  0  0
    3.1640   -2.4494    1.6417 H   0  0  0  0  0  0  0  0  0  0  0  0
    4.2317   -1.2994   -0.0695 H   0  0  0  0  0  0  0  0  0  0  0  0
    4.6830   -2.9159   -0.5353 H   0  0  0  0  0  0  0  0  0  0  0  0
    3.9242   -0.0391   -2.3033 H   0  0  0  0  0  0  0  0  0  0  0  0
    4.9249   -1.4239   -2.7387 H   0  0  0  0  0  0  0  0  0  0  0  0
    2.4259   -0.4439   -4.0997 H   0  0  0  0  0  0  0  0  0  0  0  0
    3.8715   -1.1310   -4.8280 H   0  0  0  0  0  0  0  0  0  0  0  0
    1.4208   -2.5024   -4.0017 H   0  0  0  0  0  0  0  0  0  0  0  0
    2.8306   -3.2756   -4.7181 H   0  0  0  0  0  0  0  0  0  0  0  0
    3.7714   -3.7635   -2.6163 H   0  0  0  0  0  0  0  0  0  0  0  0
    2.0762   -3.7609   -2.1033 H   0  0  0  0  0  0  0  0  0  0  0  0
    1.4960   -5.5742    2.4192 H   0  0  0  0  0  0  0  0  0  0  0  0
    1.5522   -6.5264    0.9549 H   0  0  0  0  0  0  0  0  0  0  0  0
    0.9097   -8.0234    2.4975 H   0  0  0  0  0  0  0  0  0  0  0  0
    2.5099   -8.9879    1.3100 H   0  0  0  0  0  0  0  0  0  0  0  0
    1.6185  -10.4684    2.7485 H   0  0  0  0  0  0  0  0  0  0  0  0
    3.2857  -10.8550    2.8096 H   0  0  0  0  0  0  0  0  0  0  0  0
    2.2497  -10.8485    5.0818 H   0  0  0  0  0  0  0  0  0  0  0  0
    3.5089   -9.6640    4.9938 H   0  0  0  0  0  0  0  0  0  0  0  0
   -0.7004   -8.5535    5.1326 H   0  0  0  0  0  0  0  0  0  0  0  0
   -0.1545  -10.1818    5.4923 H   0  0  0  0  0  0  0  0  0  0  0  0
   -0.1702   -9.6121    3.8484 H   0  0  0  0  0  0  0  0  0  0  0  0
    0.9186   -6.8338    4.4932 H   0  0  0  0  0  0  0  0  0  0  0  0
    3.9073   -7.0926    4.6333 H   0  0  0  0  0  0  0  0  0  0  0  0
    2.8673   -5.7561    5.1028 H   0  0  0  0  0  0  0  0  0  0  0  0
    3.8438   -8.0259    6.6732 H   0  0  0  0  0  0  0  0  0  0  0  0
    2.8704   -6.6871    7.2971 H   0  0  0  0  0  0  0  0  0  0  0  0
    0.0592  -10.1649    7.7176 H   0  0  0  0  0  0  0  0  0  0  0  0
    1.0324   -9.9802    9.1783 H   0  0  0  0  0  0  0  0  0  0  0  0
   -0.7110   -8.0111    8.5226 H   0  0  0  0  0  0  0  0  0  0  0  0
    0.9241   -7.5401    9.0174 H   0  0  0  0  0  0  0  0  0  0  0  0
    2.2806   -1.5103   -1.5129 H   0  0  0  0  0  0  0  0  0  0  0  0
  2  1  1  6
  1 34  1  0
  1 35  1  0
  1 36  1  0
  2  8  1  0
  2 21  1  0
  2  3  1  0
  3  4  2  0
  3 37  1  0
  4  5  1  0
  4 38  1  0
  5  6  2  0
  5  7  1  0
  7  8  2  0
  7 39  1  0
  8  9  1  0
  9 10  2  3
  9 19  1  0
 10 11  1  0
 11 12  1  0
 12 13  1  0
 12 40  1  0
 12 41  1  0
 13 14  1  0
 13 42  1  0
 13 43  1  0
 14 18  1  0
 14 15  1  0
 14 72  1  0
 15 16  1  0
 15 44  1  0
 15 45  1  0
 16 17  1  0
 16 46  1  0
 16 47  1  0
 17 18  1  0
 17 48  1  0
 17 49  1  0
 18 50  1  0
 18 51  1  0
 19 20  1  0
 19 52  1  0
 19 53  1  0
 20 26  1  0
 20 21  1  0
 20 54  1  6
 21 22  1  0
 21 55  1  6
 22 23  1  0
 22 56  1  0
 22 57  1  0
 23 24  1  0
 23 58  1  0
 23 59  1  0
 24 29  1  0
 24 25  1  1
 24 26  1  0
 25 60  1  0
 25 61  1  0
 25 62  1  0
 26 27  1  0
 26 63  1  6
 27 28  1  0
 27 64  1  0
 27 65  1  0
 28 29  1  0
 28 66  1  0
 28 67  1  0
 29 33  1  0
 29 30  1  0
 30 31  1  0
 31 32  1  0
 31 68  1  0
 31 69  1  0
 32 33  1  0
 32 70  1  0
 32 71  1  0
M  CHG  1  14   1
M  END
>  <i_m_ct_stereo_status>  (314) 
1

>  <s_m_source_file>  (314) 
/var/tmp/pbs.5076255.sched01/tmptpdlle0r/921kky2sk3.sdf

>  <i_m_source_file_index>  (314) 
46

>  <i_lp_mmshare_version>  (314) 
48012

>  <i_f3d_flags>  (314) 
0

>  <s_epik_input>  (314) 
TzFbQ0gyXVtDSDJdT0MxMltDQEBdMyhbQ0gzXSlbQ0BASF0oW0NIMl1bQ0gyXTIpW0NAQEhdNFtDQEhdKFtDSDJdW0NIMl0zKVtDQEBdNShbQ0gzXSlDKD1bQ0hdQyg9TylbQ0hdPVtDSF01KS9DKFtDSDJdNCk9Ti9PW0NIMl1bQ0gyXU42W0NIMl1bQ0gyXVtDSDJdW0NIMl02

>  <s_epik_cmdline>  (314) 
J2VwaWtfcHl0aG9uJywgJy1waHQnLCAnMi4wJywgJy1waCcsICc3LjAnLCAnLXRuJywgJzgnLCAnLW1hJywgJzIwMCcsICctaW1hZScsICc8aW5maWxlLm1hZT4nLCAnLW9tYWUnLCAnPG91dGZpbGUubWFlPic=

>  <r_epik_Ionization_Penalty>  (314) 
0.0083228

>  <r_epik_Ionization_Penalty_Charging>  (314) 
0.0083228

>  <r_epik_Ionization_Penalty_Neutral>  (314) 
1.05397e-11

>  <r_epik_State_Penalty>  (314) 
0.0062657

>  <r_epik_Charging_Adjusted_Penalty>  (314) 
0.0145885

>  <i_epik_Tot_Q>  (314) 
1

>  <i_epik_Tot_abs_Q>  (314) 
1

>  <s_epik_Chemistry_Notes>  (314) 
This compound has an imine and may undergo hydrolysis.

>  <s_lp_Force_Field>  (314) 
OPLS3e

>  <r_lp_Energy>  (314) 
49.0853

>  <b_lp_Chiralities_Consistent>  (314) 
1

>  <s_lp_Variant>  (314) 
88:0-1

>  <s_i_glide_gridfile>  (314) 
pfpi4k_grid

>  <i_i_glide_lignum>  (314) 
46

>  <i_i_glide_rotatable_bonds>  (314) 
4

>  <r_i_docking_score>  (314) 
-2.6886

>  <r_i_glide_ligand_efficiency>  (314) 
-0.0814726

>  <r_i_glide_ligand_efficiency_sa>  (314) 
-0.261326

>  <r_i_glide_ligand_efficiency_ln>  (314) 
-0.59793

>  <r_i_glide_gscore>  (314) 
-2.6886

>  <r_i_glide_lipo>  (314) 
-0.312322

>  <r_i_glide_hbond>  (314) 
-0.2

>  <r_i_glide_metal>  (314) 
-0

>  <r_i_glide_rewards>  (314) 
-0.338566

>  <r_i_glide_evdw>  (314) 
-28.061

>  <r_i_glide_ecoul>  (314) 
-3.9324

>  <r_i_glide_erotb>  (314) 
0.290352

>  <r_i_glide_esite>  (314) 
-0.135151

>  <r_i_glide_emodel>  (314) 
-35.3862

>  <r_i_glide_energy>  (314) 
-31.9934

>  <r_i_glide_einternal>  (314) 
4.78712

>  <r_i_glide_intrahb_reward>  (314) 
-0

>  <i_i_glide_confnum>  (314) 
3

>  <i_i_glide_posenum>  (314) 
25

>  <r_i_glide_eff_state_penalty>  (314) 
0

>  <ligand_id>  (314) 
88

>  <original_smiles>  (314) 
CC12C=CC(=O)C=C1C(=NOCCN1CCCC1)CC1C2CCC2(C)C1CCC21OCCO1

>  <smiles>  (314) 
[H]C1=C([H])C2(C([H])([H])[H])C(=C([H])C1=O)C(=NOC([H])([H])C([H])([H])[N+]1([H])C([H])([H])C([H])([H])C([H])([H])C1([H])[H])C([H])([H])C1([H])C2([H])C([H])([H])C([H])([H])C2(C([H])([H])[H])C3(OC([H])([H])C([H])([H])O3)C([H])([H])C([H])([H])C12[H]

$$$$
88:0:2
     RDKit          3D

 72 77  0  0  1  0  0  0  0  0999 V2000
    6.9968   -6.3372    4.4013 C   0  0  0  0  0  0  0  0  0  0  0  0
    5.4755   -6.0662    4.3207 C   0  0  1  0  0  0  0  0  0  0  0  0
    4.9733   -6.1910    5.7688 C   0  0  0  0  0  0  0  0  0  0  0  0
    4.7026   -5.1671    6.5815 C   0  0  0  0  0  0  0  0  0  0  0  0
    4.8447   -3.7852    6.1026 C   0  0  0  0  0  0  0  0  0  0  0  0
    4.7491   -2.8354    6.8679 O   0  0  0  0  0  0  0  0  0  0  0  0
    5.0725   -3.5775    4.6636 C   0  0  0  0  0  0  0  0  0  0  0  0
    5.3795   -4.5997    3.8256 C   0  0  0  0  0  0  0  0  0  0  0  0
    5.2491   -4.3228    2.3673 C   0  0  0  0  0  0  0  0  0  0  0  0
    5.6550   -3.2110    1.8860 N   0  0  0  0  0  0  0  0  0  0  0  0
    5.6565   -3.1664    0.4791 O   0  0  0  0  0  0  0  0  0  0  0  0
    5.4280   -1.8196    0.1098 C   0  0  0  0  0  0  0  0  0  0  0  0
    5.4493   -1.6544   -1.4169 C   0  0  0  0  0  0  0  0  0  0  0  0
    4.4551   -2.5321   -2.0771 N   0  0  0  0  0  0  0  0  0  0  0  0
    3.0429   -2.1493   -1.9081 C   0  0  0  0  0  0  0  0  0  0  0  0
    2.2997   -3.0263   -2.9188 C   0  0  0  0  0  0  0  0  0  0  0  0
    3.3420   -3.3700   -3.9977 C   0  0  0  0  0  0  0  0  0  0  0  0
    4.6173   -2.6813   -3.5301 C   0  0  0  0  0  0  0  0  0  0  0  0
    4.6275   -5.3955    1.4770 C   0  0  0  0  0  0  0  0  0  0  0  0
    3.9596   -6.5676    2.2218 C   0  0  1  0  0  0  0  0  0  0  0  0
    4.8448   -7.1306    3.3418 C   0  0  2  0  0  0  0  0  0  0  0  0
    4.2026   -8.4107    3.9388 C   0  0  0  0  0  0  0  0  0  0  0  0
    2.7219   -8.2330    4.3423 C   0  0  0  0  0  0  0  0  0  0  0  0
    1.8405   -7.7105    3.1721 C   0  0  2  0  0  0  0  0  0  0  0  0
    1.6072   -8.8239    2.1233 C   0  0  0  0  0  0  0  0  0  0  0  0
    2.4532   -6.4207    2.5848 C   0  0  1  0  0  0  0  0  0  0  0  0
    2.0309   -5.3003    3.5615 C   0  0  0  0  0  0  0  0  0  0  0  0
    0.7766   -5.7942    4.3105 C   0  0  0  0  0  0  0  0  0  0  0  0
    0.4794   -7.1687    3.6990 C   0  0  0  0  0  0  0  0  0  0  0  0
   -0.0945   -8.0082    4.6504 O   0  0  0  0  0  0  0  0  0  0  0  0
   -1.2231   -8.5916    4.0355 C   0  0  0  0  0  0  0  0  0  0  0  0
   -1.6370   -7.5098    3.0547 C   0  0  0  0  0  0  0  0  0  0  0  0
   -0.4056   -6.9658    2.6377 O   0  0  0  0  0  0  0  0  0  0  0  0
    7.4869   -5.6228    5.0688 H   0  0  0  0  0  0  0  0  0  0  0  0
    7.4722   -6.2215    3.4241 H   0  0  0  0  0  0  0  0  0  0  0  0
    7.2222   -7.3416    4.7679 H   0  0  0  0  0  0  0  0  0  0  0  0
    4.8987   -7.1930    6.1730 H   0  0  0  0  0  0  0  0  0  0  0  0
    4.4014   -5.3142    7.6124 H   0  0  0  0  0  0  0  0  0  0  0  0
    4.8789   -2.5789    4.2926 H   0  0  0  0  0  0  0  0  0  0  0  0
    4.4699   -1.5103    0.5317 H   0  0  0  0  0  0  0  0  0  0  0  0
    6.2004   -1.1800    0.5442 H   0  0  0  0  0  0  0  0  0  0  0  0
    5.2703   -0.6111   -1.6628 H   0  0  0  0  0  0  0  0  0  0  0  0
    6.4451   -1.9055   -1.7793 H   0  0  0  0  0  0  0  0  0  0  0  0
    2.7008   -2.2983   -0.8832 H   0  0  0  0  0  0  0  0  0  0  0  0
    2.9220   -1.0974   -2.1773 H   0  0  0  0  0  0  0  0  0  0  0  0
    1.9456   -3.9352   -2.4325 H   0  0  0  0  0  0  0  0  0  0  0  0
    1.4382   -2.5182   -3.3477 H   0  0  0  0  0  0  0  0  0  0  0  0
    3.4999   -4.4504   -4.0530 H   0  0  0  0  0  0  0  0  0  0  0  0
    3.0208   -3.0457   -4.9895 H   0  0  0  0  0  0  0  0  0  0  0  0
    4.6812   -1.6934   -3.9857 H   0  0  0  0  0  0  0  0  0  0  0  0
    5.5014   -3.2703   -3.7623 H   0  0  0  0  0  0  0  0  0  0  0  0
    3.8753   -4.9131    0.8574 H   0  0  0  0  0  0  0  0  0  0  0  0
    5.3944   -5.7767    0.8020 H   0  0  0  0  0  0  0  0  0  0  0  0
    3.9405   -7.3515    1.4636 H   0  0  0  0  0  0  0  0  0  0  0  0
    5.7045   -7.5198    2.7951 H   0  0  0  0  0  0  0  0  0  0  0  0
    4.2599   -9.2013    3.1904 H   0  0  0  0  0  0  0  0  0  0  0  0
    4.7918   -8.7962    4.7678 H   0  0  0  0  0  0  0  0  0  0  0  0
    2.3366   -9.1902    4.6976 H   0  0  0  0  0  0  0  0  0  0  0  0
    2.6688   -7.5685    5.2021 H   0  0  0  0  0  0  0  0  0  0  0  0
    1.0190   -8.4634    1.2821 H   0  0  0  0  0  0  0  0  0  0  0  0
    1.0818   -9.6767    2.5469 H   0  0  0  0  0  0  0  0  0  0  0  0
    2.5363   -9.2125    1.7142 H   0  0  0  0  0  0  0  0  0  0  0  0
    1.9201   -6.2260    1.6556 H   0  0  0  0  0  0  0  0  0  0  0  0
    2.7974   -5.1099    4.3045 H   0  0  0  0  0  0  0  0  0  0  0  0
    1.8433   -4.3670    3.0307 H   0  0  0  0  0  0  0  0  0  0  0  0
    0.9981   -5.9129    5.3726 H   0  0  0  0  0  0  0  0  0  0  0  0
   -0.0858   -5.1333    4.2130 H   0  0  0  0  0  0  0  0  0  0  0  0
   -0.9490   -9.5089    3.5147 H   0  0  0  0  0  0  0  0  0  0  0  0
   -2.0125   -8.8163    4.7508 H   0  0  0  0  0  0  0  0  0  0  0  0
   -2.2389   -7.8822    2.2252 H   0  0  0  0  0  0  0  0  0  0  0  0
   -2.1810   -6.7301    3.5833 H   0  0  0  0  0  0  0  0  0  0  0  0
    4.5606   -3.4546   -1.6814 H   0  0  0  0  0  0  0  0  0  0  0  0
  2  1  1  1
  1 34  1  0
  1 35  1  0
  1 36  1  0
  2  8  1  0
  2 21  1  0
  2  3  1  0
  3  4  2  0
  3 37  1  0
  4  5  1  0
  4 38  1  0
  5  6  2  0
  5  7  1  0
  7  8  2  0
  7 39  1  0
  8  9  1  0
  9 10  2  3
  9 19  1  0
 10 11  1  0
 11 12  1  0
 12 13  1  0
 12 40  1  0
 12 41  1  0
 13 14  1  0
 13 42  1  0
 13 43  1  0
 14 18  1  0
 14 15  1  0
 14 72  1  0
 15 16  1  0
 15 44  1  0
 15 45  1  0
 16 17  1  0
 16 46  1  0
 16 47  1  0
 17 18  1  0
 17 48  1  0
 17 49  1  0
 18 50  1  0
 18 51  1  0
 19 20  1  0
 19 52  1  0
 19 53  1  0
 20 26  1  0
 20 21  1  0
 20 54  1  6
 21 22  1  0
 21 55  1  6
 22 23  1  0
 22 56  1  0
 22 57  1  0
 23 24  1  0
 23 58  1  0
 23 59  1  0
 24 29  1  0
 24 25  1  6
 24 26  1  0
 25 60  1  0
 25 61  1  0
 25 62  1  0
 26 27  1  0
 26 63  1  6
 27 28  1  0
 27 64  1  0
 27 65  1  0
 28 29  1  0
 28 66  1  0
 28 67  1  0
 29 33  1  0
 29 30  1  0
 30 31  1  0
 31 32  1  0
 31 68  1  0
 31 69  1  0
 32 33  1  0
 32 70  1  0
 32 71  1  0
M  CHG  1  14   1
M  END
>  <i_m_ct_stereo_status>  (315) 
1

>  <s_m_source_file>  (315) 
/var/tmp/pbs.5076255.sched01/tmptpdlle0r/921kky2sk3.sdf

>  <i_m_source_file_index>  (315) 
46

>  <i_lp_mmshare_version>  (315) 
48012

>  <i_f3d_flags>  (315) 
0

>  <s_epik_input>  (315) 
TzFbQ0gyXVtDSDJdT0MxMltDQEBdMyhbQ0gzXSlbQ0BASF0oW0NIMl1bQ0gyXTIpW0NAQEhdNFtDQEhdKFtDSDJdW0NIMl0zKVtDQEBdNShbQ0gzXSlDKD1bQ0hdQyg9TylbQ0hdPVtDSF01KS9DKFtDSDJdNCk9Ti9PW0NIMl1bQ0gyXU42W0NIMl1bQ0gyXVtDSDJdW0NIMl02

>  <s_epik_cmdline>  (315) 
J2VwaWtfcHl0aG9uJywgJy1waHQnLCAnMi4wJywgJy1waCcsICc3LjAnLCAnLXRuJywgJzgnLCAnLW1hJywgJzIwMCcsICctaW1hZScsICc8aW5maWxlLm1hZT4nLCAnLW9tYWUnLCAnPG91dGZpbGUubWFlPic=

>  <r_epik_Ionization_Penalty>  (315) 
0.0083228

>  <r_epik_Ionization_Penalty_Charging>  (315) 
0.0083228

>  <r_epik_Ionization_Penalty_Neutral>  (315) 
1.05397e-11

>  <r_epik_State_Penalty>  (315) 
0.0062657

>  <r_epik_Charging_Adjusted_Penalty>  (315) 
0.0145885

>  <i_epik_Tot_Q>  (315) 
1

>  <i_epik_Tot_abs_Q>  (315) 
1

>  <s_epik_Chemistry_Notes>  (315) 
This compound has an imine and may undergo hydrolysis.

>  <s_lp_Force_Field>  (315) 
OPLS3e

>  <r_lp_Energy>  (315) 
49.0853

>  <b_lp_Chiralities_Consistent>  (315) 
1

>  <s_lp_Variant>  (315) 
88:0-1

>  <s_i_glide_gridfile>  (315) 
pfpi4k_grid

>  <i_i_glide_lignum>  (315) 
46

>  <i_i_glide_rotatable_bonds>  (315) 
4

>  <r_i_docking_score>  (315) 
-2.47035

>  <r_i_glide_ligand_efficiency>  (315) 
-0.074859

>  <r_i_glide_ligand_efficiency_sa>  (315) 
-0.240113

>  <r_i_glide_ligand_efficiency_ln>  (315) 
-0.549392

>  <r_i_glide_gscore>  (315) 
-2.47035

>  <r_i_glide_lipo>  (315) 
-0.396531

>  <r_i_glide_hbond>  (315) 
-0.138942

>  <r_i_glide_metal>  (315) 
-0

>  <r_i_glide_rewards>  (315) 
-0.342104

>  <r_i_glide_evdw>  (315) 
-26.3496

>  <r_i_glide_ecoul>  (315) 
-3.56618

>  <r_i_glide_erotb>  (315) 
0.290352

>  <r_i_glide_esite>  (315) 
-0.030713

>  <r_i_glide_emodel>  (315) 
-33.3977

>  <r_i_glide_energy>  (315) 
-29.9158

>  <r_i_glide_einternal>  (315) 
3.39409

>  <r_i_glide_intrahb_reward>  (315) 
-0

>  <i_i_glide_confnum>  (315) 
2

>  <i_i_glide_posenum>  (315) 
8

>  <r_i_glide_eff_state_penalty>  (315) 
0

>  <ligand_id>  (315) 
88

>  <original_smiles>  (315) 
CC12C=CC(=O)C=C1C(=NOCCN1CCCC1)CC1C2CCC2(C)C1CCC21OCCO1

>  <smiles>  (315) 
[H]C1=C([H])C2(C([H])([H])[H])C(=C([H])C1=O)C(=NOC([H])([H])C([H])([H])[N+]1([H])C([H])([H])C([H])([H])C([H])([H])C1([H])[H])C([H])([H])C1([H])C2([H])C([H])([H])C([H])([H])C2(C([H])([H])[H])C3(OC([H])([H])C([H])([H])O3)C([H])([H])C([H])([H])C12[H]

$$$$
88:1:0
     RDKit          3D

 72 77  0  0  1  0  0  0  0  0999 V2000
    3.4174   -9.1264    1.2089 C   0  0  0  0  0  0  0  0  0  0  0  0
    2.9995   -8.4009    2.5015 C   0  0  1  0  0  0  0  0  0  0  0  0
    4.2922   -8.2489    3.3166 C   0  0  0  0  0  0  0  0  0  0  0  0
    4.9886   -7.1066    3.4430 C   0  0  0  0  0  0  0  0  0  0  0  0
    4.5250   -5.8816    2.7904 C   0  0  0  0  0  0  0  0  0  0  0  0
    5.2068   -4.8583    2.7769 O   0  0  0  0  0  0  0  0  0  0  0  0
    3.1885   -5.8885    2.1831 C   0  0  0  0  0  0  0  0  0  0  0  0
    2.4900   -7.0357    2.0145 C   0  0  0  0  0  0  0  0  0  0  0  0
    1.0386   -6.9122    1.6696 C   0  0  0  0  0  0  0  0  0  0  0  0
    0.5943   -6.2482    0.6713 N   0  0  0  0  0  0  0  0  0  0  0  0
    1.6155   -5.6962   -0.1120 O   0  0  0  0  0  0  0  0  0  0  0  0
    1.0877   -4.8448   -1.1358 C   0  0  0  0  0  0  0  0  0  0  0  0
    1.7882   -3.4791   -1.1005 C   0  0  0  0  0  0  0  0  0  0  0  0
    3.1264   -3.4742   -1.7112 N   0  0  0  0  0  0  0  0  0  0  0  0
    3.1712   -3.1580   -3.1511 C   0  0  0  0  0  0  0  0  0  0  0  0
    4.6683   -2.9735   -3.4216 C   0  0  0  0  0  0  0  0  0  0  0  0
    5.3078   -2.6008   -2.0676 C   0  0  0  0  0  0  0  0  0  0  0  0
    4.1251   -2.5938   -1.0880 C   0  0  0  0  0  0  0  0  0  0  0  0
    0.0426   -7.6283    2.5786 C   0  0  0  0  0  0  0  0  0  0  0  0
    0.6276   -8.5296    3.6709 C   0  0  1  0  0  0  0  0  0  0  0  0
    1.8987   -9.2713    3.2093 C   0  0  2  0  0  0  0  0  0  0  0  0
    2.3363  -10.2843    4.2878 C   0  0  0  0  0  0  0  0  0  0  0  0
    2.4429   -9.6776    5.6989 C   0  0  0  0  0  0  0  0  0  0  0  0
    1.1362   -8.9721    6.1649 C   0  0  2  0  0  0  0  0  0  0  0  0
    0.0076   -9.9942    6.4782 C   0  0  0  0  0  0  0  0  0  0  0  0
    0.6963   -7.9364    5.1100 C   0  0  1  0  0  0  0  0  0  0  0  0
    1.5723   -6.6962    5.3713 C   0  0  0  0  0  0  0  0  0  0  0  0
    2.0845   -6.8019    6.8180 C   0  0  0  0  0  0  0  0  0  0  0  0
    1.4203   -8.0593    7.3864 C   0  0  0  0  0  0  0  0  0  0  0  0
    2.2425   -8.6745    8.3357 O   0  0  0  0  0  0  0  0  0  0  0  0
    1.4100   -8.9911    9.4362 C   0  0  0  0  0  0  0  0  0  0  0  0
    0.3826   -7.8691    9.3671 C   0  0  0  0  0  0  0  0  0  0  0  0
    0.2207   -7.6689    7.9793 O   0  0  0  0  0  0  0  0  0  0  0  0
    4.1603   -8.5451    0.6559 H   0  0  0  0  0  0  0  0  0  0  0  0
    2.5592   -9.2678    0.5323 H   0  0  0  0  0  0  0  0  0  0  0  0
    3.8330  -10.1130    1.4139 H   0  0  0  0  0  0  0  0  0  0  0  0
    4.6745   -9.1540    3.7567 H   0  0  0  0  0  0  0  0  0  0  0  0
    5.9375   -7.0661    3.9764 H   0  0  0  0  0  0  0  0  0  0  0  0
    2.7454   -4.9211    1.9886 H   0  0  0  0  0  0  0  0  0  0  0  0
    1.0103   -5.3482   -2.1089 H   0  0  0  0  0  0  0  0  0  0  0  0
    0.0339   -4.6016   -1.1312 H   0  0  0  0  0  0  0  0  0  0  0  0
    1.1706   -2.8445   -1.7388 H   0  0  0  0  0  0  0  0  0  0  0  0
    1.8135   -3.0990   -0.0593 H   0  0  0  0  0  0  0  0  0  0  0  0
    2.7039   -3.9551   -3.7301 H   0  0  0  0  0  0  0  0  0  0  0  0
    2.6375   -2.2168   -3.3132 H   0  0  0  0  0  0  0  0  0  0  0  0
    5.0941   -3.9153   -3.7875 H   0  0  0  0  0  0  0  0  0  0  0  0
    4.7979   -2.1887   -4.1702 H   0  0  0  0  0  0  0  0  0  0  0  0
    6.0312   -3.3652   -1.7644 H   0  0  0  0  0  0  0  0  0  0  0  0
    5.8163   -1.6319   -2.0800 H   0  0  0  0  0  0  0  0  0  0  0  0
    3.6951   -1.5888   -1.0202 H   0  0  0  0  0  0  0  0  0  0  0  0
    4.3957   -2.9862   -0.1123 H   0  0  0  0  0  0  0  0  0  0  0  0
   -0.5894   -6.8817    3.0537 H   0  0  0  0  0  0  0  0  0  0  0  0
   -0.6213   -8.2114    1.9384 H   0  0  0  0  0  0  0  0  0  0  0  0
   -0.1318   -9.3057    3.7793 H   0  0  0  0  0  0  0  0  0  0  0  0
    1.5171   -9.8993    2.4074 H   0  0  0  0  0  0  0  0  0  0  0  0
    1.6080  -11.0953    4.3221 H   0  0  0  0  0  0  0  0  0  0  0  0
    3.2676  -10.7701    3.9996 H   0  0  0  0  0  0  0  0  0  0  0  0
    2.6994  -10.4666    6.4021 H   0  0  0  0  0  0  0  0  0  0  0  0
    3.2864   -8.9866    5.7222 H   0  0  0  0  0  0  0  0  0  0  0  0
   -0.9299   -9.5133    6.7550 H   0  0  0  0  0  0  0  0  0  0  0  0
    0.2451  -10.6343    7.3151 H   0  0  0  0  0  0  0  0  0  0  0  0
   -0.1831  -10.6733    5.6468 H   0  0  0  0  0  0  0  0  0  0  0  0
   -0.3186   -7.6454    5.3789 H   0  0  0  0  0  0  0  0  0  0  0  0
    2.4354   -6.6681    4.7148 H   0  0  0  0  0  0  0  0  0  0  0  0
    1.0069   -5.7757    5.2090 H   0  0  0  0  0  0  0  0  0  0  0  0
    3.1640   -6.9452    6.8216 H   0  0  0  0  0  0  0  0  0  0  0  0
    1.8379   -5.9474    7.4483 H   0  0  0  0  0  0  0  0  0  0  0  0
    0.9259   -9.9519    9.2848 H   0  0  0  0  0  0  0  0  0  0  0  0
    1.9385   -9.0403   10.3942 H   0  0  0  0  0  0  0  0  0  0  0  0
   -0.5691   -8.1332    9.8357 H   0  0  0  0  0  0  0  0  0  0  0  0
    0.7743   -6.9576    9.8159 H   0  0  0  0  0  0  0  0  0  0  0  0
    3.4629   -4.4264   -1.6307 H   0  0  0  0  0  0  0  0  0  0  0  0
  2  1  1  6
  1 34  1  0
  1 35  1  0
  1 36  1  0
  2  8  1  0
  2 21  1  0
  2  3  1  0
  3  4  2  0
  3 37  1  0
  4  5  1  0
  4 38  1  0
  5  6  2  0
  5  7  1  0
  7  8  2  0
  7 39  1  0
  8  9  1  0
  9 10  2  3
  9 19  1  0
 10 11  1  0
 11 12  1  0
 12 13  1  0
 12 40  1  0
 12 41  1  0
 13 14  1  0
 13 42  1  0
 13 43  1  0
 14 18  1  0
 14 15  1  0
 14 72  1  0
 15 16  1  0
 15 44  1  0
 15 45  1  0
 16 17  1  0
 16 46  1  0
 16 47  1  0
 17 18  1  0
 17 48  1  0
 17 49  1  0
 18 50  1  0
 18 51  1  0
 19 20  1  0
 19 52  1  0
 19 53  1  0
 20 26  1  0
 20 21  1  0
 20 54  1  1
 21 22  1  0
 21 55  1  6
 22 23  1  0
 22 56  1  0
 22 57  1  0
 23 24  1  0
 23 58  1  0
 23 59  1  0
 24 29  1  0
 24 25  1  1
 24 26  1  0
 25 60  1  0
 25 61  1  0
 25 62  1  0
 26 27  1  0
 26 63  1  1
 27 28  1  0
 27 64  1  0
 27 65  1  0
 28 29  1  0
 28 66  1  0
 28 67  1  0
 29 33  1  0
 29 30  1  0
 30 31  1  0
 31 32  1  0
 31 68  1  0
 31 69  1  0
 32 33  1  0
 32 70  1  0
 32 71  1  0
M  CHG  1  14   1
M  END
>  <i_m_ct_stereo_status>  (316) 
1

>  <s_m_source_file>  (316) 
/var/tmp/pbs.5076255.sched01/tmpbrgkg_oh/138myny07gr.sdf

>  <i_m_source_file_index>  (316) 
1

>  <i_lp_mmshare_version>  (316) 
48012

>  <i_f3d_flags>  (316) 
0

>  <s_epik_input>  (316) 
TzFbQ0gyXVtDSDJdT0MxMltDQEBdMyhbQ0gzXSlbQ0BASF0oW0NIMl1bQ0gyXTIpW0NAQEhdNFtDQEhdKFtDSDJdW0NIMl0zKVtDQEBdNShbQ0gzXSlDKD1bQ0hdQyg9TylbQ0hdPVtDSF01KS9DKFtDSDJdNCk9Ti9PW0NIMl1bQ0gyXU42W0NIMl1bQ0gyXVtDSDJdW0NIMl02

>  <s_epik_cmdline>  (316) 
J2VwaWtfcHl0aG9uJywgJy1waHQnLCAnMi4wJywgJy1waCcsICc3LjAnLCAnLXRuJywgJzgnLCAnLW1hJywgJzIwMCcsICctaW1hZScsICc8aW5maWxlLm1hZT4nLCAnLW9tYWUnLCAnPG91dGZpbGUubWFlPic=

>  <r_epik_Ionization_Penalty>  (316) 
0.0083228

>  <r_epik_Ionization_Penalty_Charging>  (316) 
0.0083228

>  <r_epik_Ionization_Penalty_Neutral>  (316) 
1.05397e-11

>  <r_epik_State_Penalty>  (316) 
0.0062657

>  <r_epik_Charging_Adjusted_Penalty>  (316) 
0.0145885

>  <i_epik_Tot_Q>  (316) 
1

>  <i_epik_Tot_abs_Q>  (316) 
1

>  <s_epik_Chemistry_Notes>  (316) 
This compound has an imine and may undergo hydrolysis.

>  <s_lp_Force_Field>  (316) 
OPLS3e

>  <r_lp_Energy>  (316) 
49.8782

>  <b_lp_Chiralities_Consistent>  (316) 
1

>  <s_lp_Variant>  (316) 
88:0-2

>  <s_i_glide_gridfile>  (316) 
pfpi4k_grid

>  <i_i_glide_lignum>  (316) 
1

>  <i_i_glide_rotatable_bonds>  (316) 
4

>  <r_i_docking_score>  (316) 
-2.85302

>  <r_i_glide_ligand_efficiency>  (316) 
-0.0864552

>  <r_i_glide_ligand_efficiency_sa>  (316) 
-0.277308

>  <r_i_glide_ligand_efficiency_ln>  (316) 
-0.634497

>  <r_i_glide_gscore>  (316) 
-2.85302

>  <r_i_glide_lipo>  (316) 
-0.278904

>  <r_i_glide_hbond>  (316) 
0

>  <r_i_glide_metal>  (316) 
-0

>  <r_i_glide_rewards>  (316) 
-0.302662

>  <r_i_glide_evdw>  (316) 
-21.1869

>  <r_i_glide_ecoul>  (316) 
-8.14342

>  <r_i_glide_erotb>  (316) 
0.290352

>  <r_i_glide_esite>  (316) 
-0.280946

>  <r_i_glide_emodel>  (316) 
-31.8243

>  <r_i_glide_energy>  (316) 
-29.3304

>  <r_i_glide_einternal>  (316) 
6.23956

>  <r_i_glide_intrahb_reward>  (316) 
-0

>  <i_i_glide_confnum>  (316) 
2

>  <i_i_glide_posenum>  (316) 
14

>  <r_i_glide_eff_state_penalty>  (316) 
0

>  <ligand_id>  (316) 
88

>  <original_smiles>  (316) 
CC12C=CC(=O)C=C1C(=NOCCN1CCCC1)CC1C2CCC2(C)C1CCC21OCCO1

>  <smiles>  (316) 
[H]C1=C([H])C2(C([H])([H])[H])C(=C([H])C1=O)C(=NOC([H])([H])C([H])([H])[N+]1([H])C([H])([H])C([H])([H])C([H])([H])C1([H])[H])C([H])([H])C1([H])C2([H])C([H])([H])C([H])([H])C2(C([H])([H])[H])C3(OC([H])([H])C([H])([H])O3)C([H])([H])C([H])([H])C12[H]

$$$$
88:1:1
     RDKit          3D

 72 77  0  0  1  0  0  0  0  0999 V2000
    4.4637    1.1199    5.2364 C   0  0  0  0  0  0  0  0  0  0  0  0
    3.0423    1.7048    5.3750 C   0  0  1  0  0  0  0  0  0  0  0  0
    3.2457    3.2031    5.6594 C   0  0  0  0  0  0  0  0  0  0  0  0
    3.0704    4.1847    4.7619 C   0  0  0  0  0  0  0  0  0  0  0  0
    2.6201    3.8837    3.4055 C   0  0  0  0  0  0  0  0  0  0  0  0
    2.6189    4.7455    2.5298 O   0  0  0  0  0  0  0  0  0  0  0  0
    2.1966    2.5019    3.1142 C   0  0  0  0  0  0  0  0  0  0  0  0
    2.4242    1.4952    3.9759 C   0  0  0  0  0  0  0  0  0  0  0  0
    1.6474    0.2409    3.7260 C   0  0  0  0  0  0  0  0  0  0  0  0
    1.6824   -0.3746    2.6198 N   0  0  0  0  0  0  0  0  0  0  0  0
    2.6496    0.1271    1.7066 O   0  0  0  0  0  0  0  0  0  0  0  0
    3.7546   -0.7783    1.6232 C   0  0  0  0  0  0  0  0  0  0  0  0
    3.3981   -2.1250    0.9407 C   0  0  0  0  0  0  0  0  0  0  0  0
    3.1004   -1.9709   -0.4913 N   0  0  0  0  0  0  0  0  0  0  0  0
    4.1399   -1.3295   -1.3163 C   0  0  0  0  0  0  0  0  0  0  0  0
    3.6932   -1.5754   -2.7553 C   0  0  0  0  0  0  0  0  0  0  0  0
    2.7851   -2.8178   -2.6930 C   0  0  0  0  0  0  0  0  0  0  0  0
    2.7689   -3.2006   -1.2150 C   0  0  0  0  0  0  0  0  0  0  0  0
    0.8207   -0.3339    4.8789 C   0  0  0  0  0  0  0  0  0  0  0  0
    0.9087    0.4014    6.2241 C   0  0  1  0  0  0  0  0  0  0  0  0
    2.3217    0.9256    6.5369 C   0  0  2  0  0  0  0  0  0  0  0  0
    2.3764    1.5212    7.9649 C   0  0  0  0  0  0  0  0  0  0  0  0
    1.2596    2.5434    8.2447 C   0  0  0  0  0  0  0  0  0  0  0  0
   -0.1523    1.9620    7.9781 C   0  0  2  0  0  0  0  0  0  0  0  0
   -0.5320    0.9503    9.0772 C   0  0  0  0  0  0  0  0  0  0  0  0
   -0.2395    1.3905    6.5466 C   0  0  1  0  0  0  0  0  0  0  0  0
   -0.4480    2.6156    5.6322 C   0  0  0  0  0  0  0  0  0  0  0  0
   -1.0244    3.7405    6.5157 C   0  0  0  0  0  0  0  0  0  0  0  0
   -1.2054    3.1061    7.9015 C   0  0  0  0  0  0  0  0  0  0  0  0
   -1.0403    4.0602    8.9099 O   0  0  0  0  0  0  0  0  0  0  0  0
   -2.1129    3.8692    9.8144 C   0  0  0  0  0  0  0  0  0  0  0  0
   -3.2079    3.3713    8.8852 C   0  0  0  0  0  0  0  0  0  0  0  0
   -2.4991    2.5872    7.9479 O   0  0  0  0  0  0  0  0  0  0  0  0
    4.9903    1.6140    4.4206 H   0  0  0  0  0  0  0  0  0  0  0  0
    4.4454    0.0554    4.9763 H   0  0  0  0  0  0  0  0  0  0  0  0
    5.0649    1.2327    6.1414 H   0  0  0  0  0  0  0  0  0  0  0  0
    3.6217    3.4558    6.6354 H   0  0  0  0  0  0  0  0  0  0  0  0
    3.2772    5.2236    4.9975 H   0  0  0  0  0  0  0  0  0  0  0  0
    1.6077    2.3669    2.2082 H   0  0  0  0  0  0  0  0  0  0  0  0
    4.5483   -0.2475    1.0935 H   0  0  0  0  0  0  0  0  0  0  0  0
    4.2039   -0.9530    2.6059 H   0  0  0  0  0  0  0  0  0  0  0  0
    4.2086   -2.8335    1.1027 H   0  0  0  0  0  0  0  0  0  0  0  0
    2.5342   -2.5739    1.4279 H   0  0  0  0  0  0  0  0  0  0  0  0
    4.2427   -0.2678   -1.1161 H   0  0  0  0  0  0  0  0  0  0  0  0
    5.0832   -1.8356   -1.1238 H   0  0  0  0  0  0  0  0  0  0  0  0
    3.1152   -0.7122   -3.1046 H   0  0  0  0  0  0  0  0  0  0  0  0
    4.5523   -1.7050   -3.4223 H   0  0  0  0  0  0  0  0  0  0  0  0
    1.7735   -2.5557   -3.0185 H   0  0  0  0  0  0  0  0  0  0  0  0
    3.1364   -3.6399   -3.3262 H   0  0  0  0  0  0  0  0  0  0  0  0
    3.5390   -3.9393   -1.0183 H   0  0  0  0  0  0  0  0  0  0  0  0
    1.8063   -3.5775   -0.9006 H   0  0  0  0  0  0  0  0  0  0  0  0
   -0.2157   -0.3665    4.5548 H   0  0  0  0  0  0  0  0  0  0  0  0
    1.1191   -1.3741    5.0167 H   0  0  0  0  0  0  0  0  0  0  0  0
    0.7404   -0.3903    6.9519 H   0  0  0  0  0  0  0  0  0  0  0  0
    2.8975    0.0041    6.6291 H   0  0  0  0  0  0  0  0  0  0  0  0
    2.2843    0.7047    8.6827 H   0  0  0  0  0  0  0  0  0  0  0  0
    3.3566    1.9507    8.1700 H   0  0  0  0  0  0  0  0  0  0  0  0
    1.3298    2.8684    9.2825 H   0  0  0  0  0  0  0  0  0  0  0  0
    1.4361    3.4402    7.6505 H   0  0  0  0  0  0  0  0  0  0  0  0
   -1.5130    0.5499    8.8706 H   0  0  0  0  0  0  0  0  0  0  0  0
   -0.5664    1.4083   10.0612 H   0  0  0  0  0  0  0  0  0  0  0  0
    0.1531    0.1108    9.1514 H   0  0  0  0  0  0  0  0  0  0  0  0
   -1.1716    0.8310    6.4909 H   0  0  0  0  0  0  0  0  0  0  0  0
    0.4868    2.9649    5.2051 H   0  0  0  0  0  0  0  0  0  0  0  0
   -1.1142    2.3765    4.7994 H   0  0  0  0  0  0  0  0  0  0  0  0
   -0.3057    4.5584    6.5828 H   0  0  0  0  0  0  0  0  0  0  0  0
   -1.9751    4.1309    6.1468 H   0  0  0  0  0  0  0  0  0  0  0  0
   -1.8702    3.1084   10.5525 H   0  0  0  0  0  0  0  0  0  0  0  0
   -2.3800    4.7770   10.3589 H   0  0  0  0  0  0  0  0  0  0  0  0
   -3.9860    2.7997    9.3916 H   0  0  0  0  0  0  0  0  0  0  0  0
   -3.6645    4.2182    8.3818 H   0  0  0  0  0  0  0  0  0  0  0  0
    2.2655   -1.3989   -0.5723 H   0  0  0  0  0  0  0  0  0  0  0  0
  2  1  1  6
  1 34  1  0
  1 35  1  0
  1 36  1  0
  2  8  1  0
  2 21  1  0
  2  3  1  0
  3  4  2  0
  3 37  1  0
  4  5  1  0
  4 38  1  0
  5  6  2  0
  5  7  1  0
  7  8  2  0
  7 39  1  0
  8  9  1  0
  9 10  2  3
  9 19  1  0
 10 11  1  0
 11 12  1  0
 12 13  1  0
 12 40  1  0
 12 41  1  0
 13 14  1  0
 13 42  1  0
 13 43  1  0
 14 18  1  0
 14 15  1  0
 14 72  1  0
 15 16  1  0
 15 44  1  0
 15 45  1  0
 16 17  1  0
 16 46  1  0
 16 47  1  0
 17 18  1  0
 17 48  1  0
 17 49  1  0
 18 50  1  0
 18 51  1  0
 19 20  1  0
 19 52  1  0
 19 53  1  0
 20 26  1  0
 20 21  1  0
 20 54  1  1
 21 22  1  0
 21 55  1  1
 22 23  1  0
 22 56  1  0
 22 57  1  0
 23 24  1  0
 23 58  1  0
 23 59  1  0
 24 29  1  0
 24 25  1  1
 24 26  1  0
 25 60  1  0
 25 61  1  0
 25 62  1  0
 26 27  1  0
 26 63  1  1
 27 28  1  0
 27 64  1  0
 27 65  1  0
 28 29  1  0
 28 66  1  0
 28 67  1  0
 29 33  1  0
 29 30  1  0
 30 31  1  0
 31 32  1  0
 31 68  1  0
 31 69  1  0
 32 33  1  0
 32 70  1  0
 32 71  1  0
M  CHG  1  14   1
M  END
>  <i_m_ct_stereo_status>  (317) 
1

>  <s_m_source_file>  (317) 
/var/tmp/pbs.5076255.sched01/tmpbrgkg_oh/138myny07gr.sdf

>  <i_m_source_file_index>  (317) 
1

>  <i_lp_mmshare_version>  (317) 
48012

>  <i_f3d_flags>  (317) 
0

>  <s_epik_input>  (317) 
TzFbQ0gyXVtDSDJdT0MxMltDQEBdMyhbQ0gzXSlbQ0BASF0oW0NIMl1bQ0gyXTIpW0NAQEhdNFtDQEhdKFtDSDJdW0NIMl0zKVtDQEBdNShbQ0gzXSlDKD1bQ0hdQyg9TylbQ0hdPVtDSF01KS9DKFtDSDJdNCk9Ti9PW0NIMl1bQ0gyXU42W0NIMl1bQ0gyXVtDSDJdW0NIMl02

>  <s_epik_cmdline>  (317) 
J2VwaWtfcHl0aG9uJywgJy1waHQnLCAnMi4wJywgJy1waCcsICc3LjAnLCAnLXRuJywgJzgnLCAnLW1hJywgJzIwMCcsICctaW1hZScsICc8aW5maWxlLm1hZT4nLCAnLW9tYWUnLCAnPG91dGZpbGUubWFlPic=

>  <r_epik_Ionization_Penalty>  (317) 
0.0083228

>  <r_epik_Ionization_Penalty_Charging>  (317) 
0.0083228

>  <r_epik_Ionization_Penalty_Neutral>  (317) 
1.05397e-11

>  <r_epik_State_Penalty>  (317) 
0.0062657

>  <r_epik_Charging_Adjusted_Penalty>  (317) 
0.0145885

>  <i_epik_Tot_Q>  (317) 
1

>  <i_epik_Tot_abs_Q>  (317) 
1

>  <s_epik_Chemistry_Notes>  (317) 
This compound has an imine and may undergo hydrolysis.

>  <s_lp_Force_Field>  (317) 
OPLS3e

>  <r_lp_Energy>  (317) 
49.8782

>  <b_lp_Chiralities_Consistent>  (317) 
1

>  <s_lp_Variant>  (317) 
88:0-2

>  <s_i_glide_gridfile>  (317) 
pfpi4k_grid

>  <i_i_glide_lignum>  (317) 
1

>  <i_i_glide_rotatable_bonds>  (317) 
4

>  <r_i_docking_score>  (317) 
-2.49559

>  <r_i_glide_ligand_efficiency>  (317) 
-0.075624

>  <r_i_glide_ligand_efficiency_sa>  (317) 
-0.242567

>  <r_i_glide_ligand_efficiency_ln>  (317) 
-0.555007

>  <r_i_glide_gscore>  (317) 
-2.49559

>  <r_i_glide_lipo>  (317) 
-0.0543787

>  <r_i_glide_hbond>  (317) 
-0.2

>  <r_i_glide_metal>  (317) 
-0

>  <r_i_glide_rewards>  (317) 
-0.302662

>  <r_i_glide_evdw>  (317) 
-26.9806

>  <r_i_glide_ecoul>  (317) 
-4.66953

>  <r_i_glide_erotb>  (317) 
0.290352

>  <r_i_glide_esite>  (317) 
-0.179444

>  <r_i_glide_emodel>  (317) 
-34.1619

>  <r_i_glide_energy>  (317) 
-31.6501

>  <r_i_glide_einternal>  (317) 
6.37864

>  <r_i_glide_intrahb_reward>  (317) 
-0

>  <i_i_glide_confnum>  (317) 
2

>  <i_i_glide_posenum>  (317) 
4

>  <r_i_glide_eff_state_penalty>  (317) 
0

>  <ligand_id>  (317) 
88

>  <original_smiles>  (317) 
CC12C=CC(=O)C=C1C(=NOCCN1CCCC1)CC1C2CCC2(C)C1CCC21OCCO1

>  <smiles>  (317) 
[H]C1=C([H])C2(C([H])([H])[H])C(=C([H])C1=O)C(=NOC([H])([H])C([H])([H])[N+]1([H])C([H])([H])C([H])([H])C([H])([H])C1([H])[H])C([H])([H])C1([H])C2([H])C([H])([H])C([H])([H])C2(C([H])([H])[H])C3(OC([H])([H])C([H])([H])O3)C([H])([H])C([H])([H])C12[H]

$$$$
88:1:2
     RDKit          3D

 72 77  0  0  1  0  0  0  0  0999 V2000
    6.8285   -5.0302    1.5367 C   0  0  0  0  0  0  0  0  0  0  0  0
    5.6248   -5.5635    2.3474 C   0  0  1  0  0  0  0  0  0  0  0  0
    6.2063   -6.0386    3.6870 C   0  0  0  0  0  0  0  0  0  0  0  0
    6.1107   -5.3802    4.8513 C   0  0  0  0  0  0  0  0  0  0  0  0
    5.3820   -4.1092    4.9282 C   0  0  0  0  0  0  0  0  0  0  0  0
    5.4034   -3.4138    5.9410 O   0  0  0  0  0  0  0  0  0  0  0  0
    4.6091   -3.7006    3.7486 C   0  0  0  0  0  0  0  0  0  0  0  0
    4.7290   -4.3212    2.5509 C   0  0  0  0  0  0  0  0  0  0  0  0
    3.6535   -4.0293    1.5556 C   0  0  0  0  0  0  0  0  0  0  0  0
    3.3146   -2.8503    1.2014 N   0  0  0  0  0  0  0  0  0  0  0  0
    4.2372   -1.8749    1.6304 O   0  0  0  0  0  0  0  0  0  0  0  0
    3.8145   -0.5979    1.1846 C   0  0  0  0  0  0  0  0  0  0  0  0
    2.5391   -0.1550    1.9437 C   0  0  0  0  0  0  0  0  0  0  0  0
    2.5873    1.2843    2.3126 N   0  0  0  0  0  0  0  0  0  0  0  0
    1.2938    1.9881    2.2831 C   0  0  0  0  0  0  0  0  0  0  0  0
    1.5644    3.3225    2.9869 C   0  0  0  0  0  0  0  0  0  0  0  0
    2.7733    3.0511    3.8999 C   0  0  0  0  0  0  0  0  0  0  0  0
    3.1245    1.5802    3.6548 C   0  0  0  0  0  0  0  0  0  0  0  0
    2.9254   -5.2130    0.9393 C   0  0  0  0  0  0  0  0  0  0  0  0
    3.4161   -6.6137    1.3671 C   0  0  1  0  0  0  0  0  0  0  0  0
    4.9460   -6.7076    1.5077 C   0  0  2  0  0  0  0  0  0  0  0  0
    5.3775   -8.1734    1.7709 C   0  0  0  0  0  0  0  0  0  0  0  0
    4.5917   -8.8506    2.9131 C   0  0  0  0  0  0  0  0  0  0  0  0
    3.0537   -8.7914    2.6998 C   0  0  2  0  0  0  0  0  0  0  0  0
    2.6196   -9.7624    1.5795 C   0  0  0  0  0  0  0  0  0  0  0  0
    2.5932   -7.3387    2.4688 C   0  0  1  0  0  0  0  0  0  0  0  0
    2.5268   -6.7047    3.8704 C   0  0  0  0  0  0  0  0  0  0  0  0
    2.3984   -7.8619    4.8821 C   0  0  0  0  0  0  0  0  0  0  0  0
    2.3059   -9.1287    4.0197 C   0  0  0  0  0  0  0  0  0  0  0  0
    2.8650  -10.2252    4.6736 O   0  0  0  0  0  0  0  0  0  0  0  0
    1.9441  -11.2890    4.5163 C   0  0  0  0  0  0  0  0  0  0  0  0
    0.6198  -10.5400    4.4656 C   0  0  0  0  0  0  0  0  0  0  0  0
    0.9595   -9.3660    3.7589 O   0  0  0  0  0  0  0  0  0  0  0  0
    7.3249   -4.2243    2.0780 H   0  0  0  0  0  0  0  0  0  0  0  0
    6.5099   -4.6076    0.5811 H   0  0  0  0  0  0  0  0  0  0  0  0
    7.5727   -5.8034    1.3370 H   0  0  0  0  0  0  0  0  0  0  0  0
    6.7946   -6.9456    3.6666 H   0  0  0  0  0  0  0  0  0  0  0  0
    6.5939   -5.7401    5.7492 H   0  0  0  0  0  0  0  0  0  0  0  0
    3.8576   -2.9406    3.9091 H   0  0  0  0  0  0  0  0  0  0  0  0
    4.6439    0.0876    1.3747 H   0  0  0  0  0  0  0  0  0  0  0  0
    3.6615   -0.5950    0.1030 H   0  0  0  0  0  0  0  0  0  0  0  0
    1.6850   -0.3487    1.2911 H   0  0  0  0  0  0  0  0  0  0  0  0
    2.3882   -0.7703    2.8334 H   0  0  0  0  0  0  0  0  0  0  0  0
    0.9125    2.1202    1.2733 H   0  0  0  0  0  0  0  0  0  0  0  0
    0.5545    1.4157    2.8492 H   0  0  0  0  0  0  0  0  0  0  0  0
    1.8259    4.0865    2.2484 H   0  0  0  0  0  0  0  0  0  0  0  0
    0.6861    3.6723    3.5326 H   0  0  0  0  0  0  0  0  0  0  0  0
    3.6068    3.6936    3.6004 H   0  0  0  0  0  0  0  0  0  0  0  0
    2.5575    3.2578    4.9523 H   0  0  0  0  0  0  0  0  0  0  0  0
    2.6118    0.9613    4.3973 H   0  0  0  0  0  0  0  0  0  0  0  0
    4.1984    1.3900    3.7150 H   0  0  0  0  0  0  0  0  0  0  0  0
    1.8703   -5.1230    1.1844 H   0  0  0  0  0  0  0  0  0  0  0  0
    2.9852   -5.1305   -0.1466 H   0  0  0  0  0  0  0  0  0  0  0  0
    3.1974   -7.2223    0.4949 H   0  0  0  0  0  0  0  0  0  0  0  0
    5.2854   -6.5310    0.4853 H   0  0  0  0  0  0  0  0  0  0  0  0
    5.2162   -8.7544    0.8621 H   0  0  0  0  0  0  0  0  0  0  0  0
    6.4501   -8.2391    1.9423 H   0  0  0  0  0  0  0  0  0  0  0  0
    4.9119   -9.8913    2.9943 H   0  0  0  0  0  0  0  0  0  0  0  0
    4.8731   -8.3933    3.8586 H   0  0  0  0  0  0  0  0  0  0  0  0
    1.5452   -9.7321    1.4066 H   0  0  0  0  0  0  0  0  0  0  0  0
    2.8852  -10.7811    1.8452 H   0  0  0  0  0  0  0  0  0  0  0  0
    3.1049   -9.5643    0.6258 H   0  0  0  0  0  0  0  0  0  0  0  0
    1.5622   -7.3951    2.1149 H   0  0  0  0  0  0  0  0  0  0  0  0
    3.4298   -6.1543    4.1012 H   0  0  0  0  0  0  0  0  0  0  0  0
    1.6910   -6.0113    3.9444 H   0  0  0  0  0  0  0  0  0  0  0  0
    3.2915   -7.9158    5.5053 H   0  0  0  0  0  0  0  0  0  0  0  0
    1.5283   -7.7788    5.5331 H   0  0  0  0  0  0  0  0  0  0  0  0
    2.1233  -11.8225    3.5824 H   0  0  0  0  0  0  0  0  0  0  0  0
    2.0007  -12.0243    5.3148 H   0  0  0  0  0  0  0  0  0  0  0  0
   -0.1703  -11.0945    3.9622 H   0  0  0  0  0  0  0  0  0  0  0  0
    0.2861  -10.2801    5.4718 H   0  0  0  0  0  0  0  0  0  0  0  0
    3.1879    1.7661    1.6619 H   0  0  0  0  0  0  0  0  0  0  0  0
  2  1  1  6
  1 34  1  0
  1 35  1  0
  1 36  1  0
  2  8  1  0
  2 21  1  0
  2  3  1  0
  3  4  2  0
  3 37  1  0
  4  5  1  0
  4 38  1  0
  5  6  2  0
  5  7  1  0
  7  8  2  0
  7 39  1  0
  8  9  1  0
  9 10  2  3
  9 19  1  0
 10 11  1  0
 11 12  1  0
 12 13  1  0
 12 40  1  0
 12 41  1  0
 13 14  1  0
 13 42  1  0
 13 43  1  0
 14 18  1  0
 14 15  1  0
 14 72  1  0
 15 16  1  0
 15 44  1  0
 15 45  1  0
 16 17  1  0
 16 46  1  0
 16 47  1  0
 17 18  1  0
 17 48  1  0
 17 49  1  0
 18 50  1  0
 18 51  1  0
 19 20  1  0
 19 52  1  0
 19 53  1  0
 20 26  1  0
 20 21  1  0
 20 54  1  6
 21 22  1  0
 21 55  1  6
 22 23  1  0
 22 56  1  0
 22 57  1  0
 23 24  1  0
 23 58  1  0
 23 59  1  0
 24 29  1  0
 24 25  1  6
 24 26  1  0
 25 60  1  0
 25 61  1  0
 25 62  1  0
 26 27  1  0
 26 63  1  6
 27 28  1  0
 27 64  1  0
 27 65  1  0
 28 29  1  0
 28 66  1  0
 28 67  1  0
 29 33  1  0
 29 30  1  0
 30 31  1  0
 31 32  1  0
 31 68  1  0
 31 69  1  0
 32 33  1  0
 32 70  1  0
 32 71  1  0
M  CHG  1  14   1
M  END
>  <i_m_ct_stereo_status>  (318) 
1

>  <s_m_source_file>  (318) 
/var/tmp/pbs.5076255.sched01/tmpbrgkg_oh/138myny07gr.sdf

>  <i_m_source_file_index>  (318) 
1

>  <i_lp_mmshare_version>  (318) 
48012

>  <i_f3d_flags>  (318) 
0

>  <s_epik_input>  (318) 
TzFbQ0gyXVtDSDJdT0MxMltDQEBdMyhbQ0gzXSlbQ0BASF0oW0NIMl1bQ0gyXTIpW0NAQEhdNFtDQEhdKFtDSDJdW0NIMl0zKVtDQEBdNShbQ0gzXSlDKD1bQ0hdQyg9TylbQ0hdPVtDSF01KS9DKFtDSDJdNCk9Ti9PW0NIMl1bQ0gyXU42W0NIMl1bQ0gyXVtDSDJdW0NIMl02

>  <s_epik_cmdline>  (318) 
J2VwaWtfcHl0aG9uJywgJy1waHQnLCAnMi4wJywgJy1waCcsICc3LjAnLCAnLXRuJywgJzgnLCAnLW1hJywgJzIwMCcsICctaW1hZScsICc8aW5maWxlLm1hZT4nLCAnLW9tYWUnLCAnPG91dGZpbGUubWFlPic=

>  <r_epik_Ionization_Penalty>  (318) 
0.0083228

>  <r_epik_Ionization_Penalty_Charging>  (318) 
0.0083228

>  <r_epik_Ionization_Penalty_Neutral>  (318) 
1.05397e-11

>  <r_epik_State_Penalty>  (318) 
0.0062657

>  <r_epik_Charging_Adjusted_Penalty>  (318) 
0.0145885

>  <i_epik_Tot_Q>  (318) 
1

>  <i_epik_Tot_abs_Q>  (318) 
1

>  <s_epik_Chemistry_Notes>  (318) 
This compound has an imine and may undergo hydrolysis.

>  <s_lp_Force_Field>  (318) 
OPLS3e

>  <r_lp_Energy>  (318) 
49.8782

>  <b_lp_Chiralities_Consistent>  (318) 
1

>  <s_lp_Variant>  (318) 
88:0-2

>  <s_i_glide_gridfile>  (318) 
pfpi4k_grid

>  <i_i_glide_lignum>  (318) 
1

>  <i_i_glide_rotatable_bonds>  (318) 
4

>  <r_i_docking_score>  (318) 
-2.22288

>  <r_i_glide_ligand_efficiency>  (318) 
-0.0673601

>  <r_i_glide_ligand_efficiency_sa>  (318) 
-0.21606

>  <r_i_glide_ligand_efficiency_ln>  (318) 
-0.494357

>  <r_i_glide_gscore>  (318) 
-2.22288

>  <r_i_glide_lipo>  (318) 
-0.338703

>  <r_i_glide_hbond>  (318) 
0

>  <r_i_glide_metal>  (318) 
-0

>  <r_i_glide_rewards>  (318) 
-0.319874

>  <r_i_glide_evdw>  (318) 
-24.1116

>  <r_i_glide_ecoul>  (318) 
-4.20815

>  <r_i_glide_erotb>  (318) 
0.290352

>  <r_i_glide_esite>  (318) 
-0.0178565

>  <r_i_glide_emodel>  (318) 
-30.943

>  <r_i_glide_energy>  (318) 
-28.3197

>  <r_i_glide_einternal>  (318) 
5.18581

>  <r_i_glide_intrahb_reward>  (318) 
-0

>  <i_i_glide_confnum>  (318) 
2

>  <i_i_glide_posenum>  (318) 
11

>  <r_i_glide_eff_state_penalty>  (318) 
0

>  <ligand_id>  (318) 
88

>  <original_smiles>  (318) 
CC12C=CC(=O)C=C1C(=NOCCN1CCCC1)CC1C2CCC2(C)C1CCC21OCCO1

>  <smiles>  (318) 
[H]C1=C([H])C2(C([H])([H])[H])C(=C([H])C1=O)C(=NOC([H])([H])C([H])([H])[N+]1([H])C([H])([H])C([H])([H])C([H])([H])C1([H])[H])C([H])([H])C1([H])C2([H])C([H])([H])C([H])([H])C2(C([H])([H])[H])C3(OC([H])([H])C([H])([H])O3)C([H])([H])C([H])([H])C12[H]

$$$$
88:2:0
     RDKit          3D

 71 76  0  0  1  0  0  0  0  0999 V2000
    4.6979   -4.9875    4.5596 C   0  0  0  0  0  0  0  0  0  0  0  0
    4.0822   -4.4718    3.2284 C   0  0  1  0  0  0  0  0  0  0  0  0
    3.8587   -5.7378    2.3913 C   0  0  0  0  0  0  0  0  0  0  0  0
    2.6852   -6.3632    2.2263 C   0  0  0  0  0  0  0  0  0  0  0  0
    1.4704   -5.8129    2.8433 C   0  0  0  0  0  0  0  0  0  0  0  0
    0.3836   -6.3976    2.7755 O   0  0  0  0  0  0  0  0  0  0  0  0
    1.5548   -4.4802    3.4715 C   0  0  0  0  0  0  0  0  0  0  0  0
    2.7382   -3.8714    3.6695 C   0  0  0  0  0  0  0  0  0  0  0  0
    2.6542   -2.3827    3.9421 C   0  0  0  0  0  0  0  0  0  0  0  0
    1.7742   -1.9610    4.7659 N   0  0  0  0  0  0  0  0  0  0  0  0
    1.9092   -0.5870    5.0439 O   0  0  0  0  0  0  0  0  0  0  0  0
    0.8473   -0.2135    5.9001 C   0  0  0  0  0  0  0  0  0  0  0  0
    0.8370    1.3177    6.0588 C   0  0  0  0  0  0  0  0  0  0  0  0
    0.5295    2.0007    4.8087 N   0  0  0  0  0  0  0  0  0  0  0  0
   -0.8336    1.7857    4.3372 C   0  0  0  0  0  0  0  0  0  0  0  0
   -1.0343    2.8681    3.2824 C   0  0  0  0  0  0  0  0  0  0  0  0
   -0.0701    3.9790    3.6874 C   0  0  0  0  0  0  0  0  0  0  0  0
    0.6173    3.4498    4.9450 C   0  0  0  0  0  0  0  0  0  0  0  0
    3.6457   -1.4660    3.2549 C   0  0  0  0  0  0  0  0  0  0  0  0
    4.5210   -2.1031    2.1578 C   0  0  1  0  0  0  0  0  0  0  0  0
    5.1035   -3.4533    2.5951 C   0  0  2  0  0  0  0  0  0  0  0  0
    6.1091   -3.9688    1.5355 C   0  0  0  0  0  0  0  0  0  0  0  0
    5.5473   -3.9673    0.0943 C   0  0  0  0  0  0  0  0  0  0  0  0
    5.0091   -2.5734   -0.3435 C   0  0  2  0  0  0  0  0  0  0  0  0
    6.1616   -1.6003   -0.6329 C   0  0  0  0  0  0  0  0  0  0  0  0
    3.9946   -2.0628    0.6990 C   0  0  1  0  0  0  0  0  0  0  0  0
    2.6906   -2.8240    0.3951 C   0  0  0  0  0  0  0  0  0  0  0  0
    2.7553   -3.2696   -1.0788 C   0  0  0  0  0  0  0  0  0  0  0  0
    4.1090   -2.7504   -1.6124 C   0  0  0  0  0  0  0  0  0  0  0  0
    4.6606   -3.6117   -2.5332 O   0  0  0  0  0  0  0  0  0  0  0  0
    3.9462   -3.3029   -3.7461 C   0  0  0  0  0  0  0  0  0  0  0  0
    3.7328   -1.7943   -3.6068 C   0  0  0  0  0  0  0  0  0  0  0  0
    3.8949   -1.5210   -2.2207 O   0  0  0  0  0  0  0  0  0  0  0  0
    4.0305   -5.7094    5.0443 H   0  0  0  0  0  0  0  0  0  0  0  0
    4.8367   -4.1682    5.2698 H   0  0  0  0  0  0  0  0  0  0  0  0
    5.6652   -5.4753    4.4092 H   0  0  0  0  0  0  0  0  0  0  0  0
    4.7417   -6.1895    1.9497 H   0  0  0  0  0  0  0  0  0  0  0  0
    2.5939   -7.2715    1.6649 H   0  0  0  0  0  0  0  0  0  0  0  0
    0.6203   -3.9866    3.6530 H   0  0  0  0  0  0  0  0  0  0  0  0
   -0.0892   -0.5671    5.4781 H   0  0  0  0  0  0  0  0  0  0  0  0
    0.9499   -0.6883    6.8760 H   0  0  0  0  0  0  0  0  0  0  0  0
    0.0999    1.5921    6.8160 H   0  0  0  0  0  0  0  0  0  0  0  0
    1.8109    1.6405    6.4322 H   0  0  0  0  0  0  0  0  0  0  0  0
   -0.9777    0.7879    3.9219 H   0  0  0  0  0  0  0  0  0  0  0  0
   -1.5403    1.9288    5.1597 H   0  0  0  0  0  0  0  0  0  0  0  0
   -0.7681    2.4924    2.2929 H   0  0  0  0  0  0  0  0  0  0  0  0
   -2.0689    3.2055    3.2414 H   0  0  0  0  0  0  0  0  0  0  0  0
    0.6630    4.1447    2.8955 H   0  0  0  0  0  0  0  0  0  0  0  0
   -0.5782    4.9245    3.8671 H   0  0  0  0  0  0  0  0  0  0  0  0
    0.0716    3.7788    5.8336 H   0  0  0  0  0  0  0  0  0  0  0  0
    1.6497    3.7914    5.0317 H   0  0  0  0  0  0  0  0  0  0  0  0
    3.0787   -0.6486    2.8050 H   0  0  0  0  0  0  0  0  0  0  0  0
    4.2873   -1.0120    4.0123 H   0  0  0  0  0  0  0  0  0  0  0  0
    5.3793   -1.4332    2.1134 H   0  0  0  0  0  0  0  0  0  0  0  0
    5.7426   -3.1767    3.4350 H   0  0  0  0  0  0  0  0  0  0  0  0
    6.9856   -3.3233    1.5615 H   0  0  0  0  0  0  0  0  0  0  0  0
    6.4889   -4.9538    1.8032 H   0  0  0  0  0  0  0  0  0  0  0  0
    6.3368   -4.2832   -0.5903 H   0  0  0  0  0  0  0  0  0  0  0  0
    4.7738   -4.7260    0.0188 H   0  0  0  0  0  0  0  0  0  0  0  0
    5.7925   -0.6107   -0.8934 H   0  0  0  0  0  0  0  0  0  0  0  0
    6.7754   -1.9587   -1.4563 H   0  0  0  0  0  0  0  0  0  0  0  0
    6.8101   -1.4703    0.2292 H   0  0  0  0  0  0  0  0  0  0  0  0
    3.7936   -1.0199    0.4446 H   0  0  0  0  0  0  0  0  0  0  0  0
    2.5820   -3.7156    0.9958 H   0  0  0  0  0  0  0  0  0  0  0  0
    1.8406   -2.1984    0.6015 H   0  0  0  0  0  0  0  0  0  0  0  0
    2.7595   -4.3587   -1.1057 H   0  0  0  0  0  0  0  0  0  0  0  0
    1.9336   -2.9084   -1.6910 H   0  0  0  0  0  0  0  0  0  0  0  0
    4.4877   -3.6036   -4.6364 H   0  0  0  0  0  0  0  0  0  0  0  0
    2.9858   -3.8201   -3.7405 H   0  0  0  0  0  0  0  0  0  0  0  0
    4.4864   -1.2362   -4.1634 H   0  0  0  0  0  0  0  0  0  0  0  0
    2.7499   -1.4911   -3.9707 H   0  0  0  0  0  0  0  0  0  0  0  0
  2  1  1  1
  1 34  1  0
  1 35  1  0
  1 36  1  0
  2  8  1  0
  2 21  1  0
  2  3  1  0
  3  4  2  0
  3 37  1  0
  4  5  1  0
  4 38  1  0
  5  6  2  0
  5  7  1  0
  7  8  2  0
  7 39  1  0
  8  9  1  0
  9 10  2  3
  9 19  1  0
 10 11  1  0
 11 12  1  0
 12 13  1  0
 12 40  1  0
 12 41  1  0
 13 14  1  0
 13 42  1  0
 13 43  1  0
 14 18  1  0
 14 15  1  0
 15 16  1  0
 15 44  1  0
 15 45  1  0
 16 17  1  0
 16 46  1  0
 16 47  1  0
 17 18  1  0
 17 48  1  0
 17 49  1  0
 18 50  1  0
 18 51  1  0
 19 20  1  0
 19 52  1  0
 19 53  1  0
 20 26  1  0
 20 21  1  0
 20 54  1  6
 21 22  1  0
 21 55  1  1
 22 23  1  0
 22 56  1  0
 22 57  1  0
 23 24  1  0
 23 58  1  0
 23 59  1  0
 24 29  1  0
 24 25  1  6
 24 26  1  0
 25 60  1  0
 25 61  1  0
 25 62  1  0
 26 27  1  0
 26 63  1  6
 27 28  1  0
 27 64  1  0
 27 65  1  0
 28 29  1  0
 28 66  1  0
 28 67  1  0
 29 33  1  0
 29 30  1  0
 30 31  1  0
 31 32  1  0
 31 68  1  0
 31 69  1  0
 32 33  1  0
 32 70  1  0
 32 71  1  0
M  END
>  <i_m_ct_stereo_status>  (319) 
1

>  <s_m_source_file>  (319) 
/var/tmp/pbs.5076255.sched01/tmpbrgkg_oh/138myny07gr.sdf

>  <i_m_source_file_index>  (319) 
2

>  <i_lp_mmshare_version>  (319) 
48012

>  <i_f3d_flags>  (319) 
0

>  <s_epik_input>  (319) 
TzFbQ0gyXVtDSDJdT0MxMltDQEBdMyhbQ0gzXSlbQ0BASF0oW0NIMl1bQ0gyXTIpW0NAQEhdNFtDQEhdKFtDSDJdW0NIMl0zKVtDQEBdNShbQ0gzXSlDKD1bQ0hdQyg9TylbQ0hdPVtDSF01KS9DKFtDSDJdNCk9Ti9PW0NIMl1bQ0gyXU42W0NIMl1bQ0gyXVtDSDJdW0NIMl02

>  <s_epik_cmdline>  (319) 
J2VwaWtfcHl0aG9uJywgJy1waHQnLCAnMi4wJywgJy1waCcsICc3LjAnLCAnLXRuJywgJzgnLCAnLW1hJywgJzIwMCcsICctaW1hZScsICc8aW5maWxlLm1hZT4nLCAnLW9tYWUnLCAnPG91dGZpbGUubWFlPic=

>  <r_epik_Ionization_Penalty>  (319) 
2.5313

>  <r_epik_Ionization_Penalty_Charging>  (319) 
0

>  <r_epik_Ionization_Penalty_Neutral>  (319) 
2.5313

>  <r_epik_State_Penalty>  (319) 
2.69849

>  <r_epik_Charging_Adjusted_Penalty>  (319) 
2.69849

>  <i_epik_Tot_Q>  (319) 
0

>  <i_epik_Tot_abs_Q>  (319) 
0

>  <s_epik_Chemistry_Notes>  (319) 
This compound has an imine and may undergo hydrolysis.

>  <s_lp_Force_Field>  (319) 
OPLS3e

>  <r_lp_Energy>  (319) 
43.5971

>  <b_lp_Chiralities_Consistent>  (319) 
1

>  <s_lp_Variant>  (319) 
88:0-3

>  <s_i_glide_gridfile>  (319) 
pfpi4k_grid

>  <i_i_glide_lignum>  (319) 
2

>  <i_i_glide_rotatable_bonds>  (319) 
4

>  <r_i_docking_score>  (319) 
-2.18502

>  <r_i_glide_ligand_efficiency>  (319) 
-0.0662128

>  <r_i_glide_ligand_efficiency_sa>  (319) 
-0.21238

>  <r_i_glide_ligand_efficiency_ln>  (319) 
-0.485938

>  <r_i_glide_gscore>  (319) 
-2.18502

>  <r_i_glide_lipo>  (319) 
-0.620498

>  <r_i_glide_hbond>  (319) 
-0.0669111

>  <r_i_glide_metal>  (319) 
-0

>  <r_i_glide_rewards>  (319) 
-0.309565

>  <r_i_glide_evdw>  (319) 
-27.4741

>  <r_i_glide_ecoul>  (319) 
-0.352477

>  <r_i_glide_erotb>  (319) 
0.291525

>  <r_i_glide_esite>  (319) 
-0.0529949

>  <r_i_glide_emodel>  (319) 
-29.5296

>  <r_i_glide_energy>  (319) 
-27.8266

>  <r_i_glide_einternal>  (319) 
2.83345

>  <r_i_glide_intrahb_reward>  (319) 
-0

>  <i_i_glide_confnum>  (319) 
4

>  <i_i_glide_posenum>  (319) 
34

>  <r_i_glide_eff_state_penalty>  (319) 
0

>  <ligand_id>  (319) 
88

>  <original_smiles>  (319) 
CC12C=CC(=O)C=C1C(=NOCCN1CCCC1)CC1C2CCC2(C)C1CCC21OCCO1

>  <smiles>  (319) 
[H]C1=C([H])C2(C([H])([H])[H])C(=C([H])C1=O)C(=NOC([H])([H])C([H])([H])N1C([H])([H])C([H])([H])C([H])([H])C1([H])[H])C([H])([H])C1([H])C2([H])C([H])([H])C([H])([H])C2(C([H])([H])[H])C3(OC([H])([H])C([H])([H])O3)C([H])([H])C([H])([H])C12[H]

$$$$
88:2:1
     RDKit          3D

 71 76  0  0  1  0  0  0  0  0999 V2000
    4.6078   -4.7267    4.8132 C   0  0  0  0  0  0  0  0  0  0  0  0
    4.0760   -4.3749    3.3943 C   0  0  1  0  0  0  0  0  0  0  0  0
    4.1690   -5.6904    2.6109 C   0  0  0  0  0  0  0  0  0  0  0  0
    3.1442   -6.5140    2.3500 C   0  0  0  0  0  0  0  0  0  0  0  0
    1.7927   -6.1574    2.8019 C   0  0  0  0  0  0  0  0  0  0  0  0
    0.8396   -6.9314    2.6731 O   0  0  0  0  0  0  0  0  0  0  0  0
    1.5759   -4.8073    3.3562 C   0  0  0  0  0  0  0  0  0  0  0  0
    2.6090   -3.9980    3.6521 C   0  0  0  0  0  0  0  0  0  0  0  0
    2.2428   -2.5372    3.8358 C   0  0  0  0  0  0  0  0  0  0  0  0
    1.2230   -2.2476    4.5495 N   0  0  0  0  0  0  0  0  0  0  0  0
    1.0904   -0.8624    4.7639 O   0  0  0  0  0  0  0  0  0  0  0  0
    0.1013   -0.6627    5.7605 C   0  0  0  0  0  0  0  0  0  0  0  0
   -0.1848    0.8430    5.9003 C   0  0  0  0  0  0  0  0  0  0  0  0
   -1.1444    1.2959    4.9035 N   0  0  0  0  0  0  0  0  0  0  0  0
   -1.6582    2.6303    5.1923 C   0  0  0  0  0  0  0  0  0  0  0  0
   -2.2767    3.0850    3.8697 C   0  0  0  0  0  0  0  0  0  0  0  0
   -1.5113    2.3020    2.8057 C   0  0  0  0  0  0  0  0  0  0  0  0
   -0.5188    1.4559    3.5932 C   0  0  0  0  0  0  0  0  0  0  0  0
    3.1385   -1.4906    3.2030 C   0  0  0  0  0  0  0  0  0  0  0  0
    4.2332   -2.0077    2.2471 C   0  0  1  0  0  0  0  0  0  0  0  0
    4.9784   -3.2212    2.8187 C   0  0  2  0  0  0  0  0  0  0  0  0
    6.1663   -3.6007    1.9002 C   0  0  0  0  0  0  0  0  0  0  0  0
    5.7892   -3.7495    0.4122 C   0  0  0  0  0  0  0  0  0  0  0  0
    5.0844   -2.4801   -0.1536 C   0  0  2  0  0  0  0  0  0  0  0  0
    6.0835   -1.3378   -0.3664 C   0  0  0  0  0  0  0  0  0  0  0  0
    3.8855   -2.1102    0.7396 C   0  0  1  0  0  0  0  0  0  0  0  0
    2.7671   -3.0863    0.3332 C   0  0  0  0  0  0  0  0  0  0  0  0
    3.0842   -3.5678   -1.0895 C   0  0  0  0  0  0  0  0  0  0  0  0
    4.3833   -2.8514   -1.5026 C   0  0  0  0  0  0  0  0  0  0  0  0
    5.1696   -3.6485   -2.2990 O   0  0  0  0  0  0  0  0  0  0  0  0
    4.5653   -3.5164   -3.5993 C   0  0  0  0  0  0  0  0  0  0  0  0
    4.0891   -2.0610   -3.5795 C   0  0  0  0  0  0  0  0  0  0  0  0
    4.0441   -1.7023   -2.2049 O   0  0  0  0  0  0  0  0  0  0  0  0
    4.0179   -5.5349    5.2621 H   0  0  0  0  0  0  0  0  0  0  0  0
    4.5234   -3.8707    5.4886 H   0  0  0  0  0  0  0  0  0  0  0  0
    5.6537   -5.0463    4.7992 H   0  0  0  0  0  0  0  0  0  0  0  0
    5.1598   -6.0036    2.2974 H   0  0  0  0  0  0  0  0  0  0  0  0
    3.2723   -7.4457    1.8364 H   0  0  0  0  0  0  0  0  0  0  0  0
    0.5598   -4.4766    3.4090 H   0  0  0  0  0  0  0  0  0  0  0  0
   -0.8081   -1.2018    5.5083 H   0  0  0  0  0  0  0  0  0  0  0  0
    0.4479   -1.0540    6.7167 H   0  0  0  0  0  0  0  0  0  0  0  0
   -0.6368    1.0036    6.8808 H   0  0  0  0  0  0  0  0  0  0  0  0
    0.7411    1.4215    5.8863 H   0  0  0  0  0  0  0  0  0  0  0  0
   -2.3816    2.6244    6.0101 H   0  0  0  0  0  0  0  0  0  0  0  0
   -0.8360    3.2952    5.4672 H   0  0  0  0  0  0  0  0  0  0  0  0
   -3.3366    2.8322    3.8298 H   0  0  0  0  0  0  0  0  0  0  0  0
   -2.1846    4.1608    3.7315 H   0  0  0  0  0  0  0  0  0  0  0  0
   -2.1857    1.6655    2.2361 H   0  0  0  0  0  0  0  0  0  0  0  0
   -0.9916    2.9442    2.0973 H   0  0  0  0  0  0  0  0  0  0  0  0
    0.4197    2.0077    3.6992 H   0  0  0  0  0  0  0  0  0  0  0  0
   -0.3070    0.5011    3.1098 H   0  0  0  0  0  0  0  0  0  0  0  0
    2.4997   -0.8011    2.6472 H   0  0  0  0  0  0  0  0  0  0  0  0
    3.6042   -0.9043    3.9966 H   0  0  0  0  0  0  0  0  0  0  0  0
    4.9675   -1.2025    2.2584 H   0  0  0  0  0  0  0  0  0  0  0  0
    5.4630   -2.8072    3.7039 H   0  0  0  0  0  0  0  0  0  0  0  0
    6.9071   -2.8100    1.9655 H   0  0  0  0  0  0  0  0  0  0  0  0
    6.6720   -4.4946    2.2617 H   0  0  0  0  0  0  0  0  0  0  0  0
    6.6993   -3.9530   -0.1582 H   0  0  0  0  0  0  0  0  0  0  0  0
    5.1690   -4.6329    0.2966 H   0  0  0  0  0  0  0  0  0  0  0  0
    5.5925   -0.4350   -0.7264 H   0  0  0  0  0  0  0  0  0  0  0  0
    6.8344   -1.6333   -1.0922 H   0  0  0  0  0  0  0  0  0  0  0  0
    6.5980   -1.0625    0.5508 H   0  0  0  0  0  0  0  0  0  0  0  0
    3.5464   -1.1268    0.4061 H   0  0  0  0  0  0  0  0  0  0  0  0
    2.7296   -3.9626    0.9673 H   0  0  0  0  0  0  0  0  0  0  0  0
    1.8082   -2.5968    0.3820 H   0  0  0  0  0  0  0  0  0  0  0  0
    3.2895   -4.6317   -1.0276 H   0  0  0  0  0  0  0  0  0  0  0  0
    2.2874   -3.3883   -1.8076 H   0  0  0  0  0  0  0  0  0  0  0  0
    5.2495   -3.7791   -4.3965 H   0  0  0  0  0  0  0  0  0  0  0  0
    3.7091   -4.1850   -3.6729 H   0  0  0  0  0  0  0  0  0  0  0  0
    4.7932   -1.4021   -4.0845 H   0  0  0  0  0  0  0  0  0  0  0  0
    3.1181   -1.9437   -4.0626 H   0  0  0  0  0  0  0  0  0  0  0  0
  2  1  1  1
  1 34  1  0
  1 35  1  0
  1 36  1  0
  2  8  1  0
  2 21  1  0
  2  3  1  0
  3  4  2  0
  3 37  1  0
  4  5  1  0
  4 38  1  0
  5  6  2  0
  5  7  1  0
  7  8  2  0
  7 39  1  0
  8  9  1  0
  9 10  2  3
  9 19  1  0
 10 11  1  0
 11 12  1  0
 12 13  1  0
 12 40  1  0
 12 41  1  0
 13 14  1  0
 13 42  1  0
 13 43  1  0
 14 18  1  0
 14 15  1  0
 15 16  1  0
 15 44  1  0
 15 45  1  0
 16 17  1  0
 16 46  1  0
 16 47  1  0
 17 18  1  0
 17 48  1  0
 17 49  1  0
 18 50  1  0
 18 51  1  0
 19 20  1  0
 19 52  1  0
 19 53  1  0
 20 26  1  0
 20 21  1  0
 20 54  1  6
 21 22  1  0
 21 55  1  1
 22 23  1  0
 22 56  1  0
 22 57  1  0
 23 24  1  0
 23 58  1  0
 23 59  1  0
 24 29  1  0
 24 25  1  6
 24 26  1  0
 25 60  1  0
 25 61  1  0
 25 62  1  0
 26 27  1  0
 26 63  1  6
 27 28  1  0
 27 64  1  0
 27 65  1  0
 28 29  1  0
 28 66  1  0
 28 67  1  0
 29 33  1  0
 29 30  1  0
 30 31  1  0
 31 32  1  0
 31 68  1  0
 31 69  1  0
 32 33  1  0
 32 70  1  0
 32 71  1  0
M  END
>  <i_m_ct_stereo_status>  (320) 
1

>  <s_m_source_file>  (320) 
/var/tmp/pbs.5076255.sched01/tmpbrgkg_oh/138myny07gr.sdf

>  <i_m_source_file_index>  (320) 
2

>  <i_lp_mmshare_version>  (320) 
48012

>  <i_f3d_flags>  (320) 
0

>  <s_epik_input>  (320) 
TzFbQ0gyXVtDSDJdT0MxMltDQEBdMyhbQ0gzXSlbQ0BASF0oW0NIMl1bQ0gyXTIpW0NAQEhdNFtDQEhdKFtDSDJdW0NIMl0zKVtDQEBdNShbQ0gzXSlDKD1bQ0hdQyg9TylbQ0hdPVtDSF01KS9DKFtDSDJdNCk9Ti9PW0NIMl1bQ0gyXU42W0NIMl1bQ0gyXVtDSDJdW0NIMl02

>  <s_epik_cmdline>  (320) 
J2VwaWtfcHl0aG9uJywgJy1waHQnLCAnMi4wJywgJy1waCcsICc3LjAnLCAnLXRuJywgJzgnLCAnLW1hJywgJzIwMCcsICctaW1hZScsICc8aW5maWxlLm1hZT4nLCAnLW9tYWUnLCAnPG91dGZpbGUubWFlPic=

>  <r_epik_Ionization_Penalty>  (320) 
2.5313

>  <r_epik_Ionization_Penalty_Charging>  (320) 
0

>  <r_epik_Ionization_Penalty_Neutral>  (320) 
2.5313

>  <r_epik_State_Penalty>  (320) 
2.69849

>  <r_epik_Charging_Adjusted_Penalty>  (320) 
2.69849

>  <i_epik_Tot_Q>  (320) 
0

>  <i_epik_Tot_abs_Q>  (320) 
0

>  <s_epik_Chemistry_Notes>  (320) 
This compound has an imine and may undergo hydrolysis.

>  <s_lp_Force_Field>  (320) 
OPLS3e

>  <r_lp_Energy>  (320) 
43.5971

>  <b_lp_Chiralities_Consistent>  (320) 
1

>  <s_lp_Variant>  (320) 
88:0-3

>  <s_i_glide_gridfile>  (320) 
pfpi4k_grid

>  <i_i_glide_lignum>  (320) 
2

>  <i_i_glide_rotatable_bonds>  (320) 
4

>  <r_i_docking_score>  (320) 
-1.97917

>  <r_i_glide_ligand_efficiency>  (320) 
-0.0599747

>  <r_i_glide_ligand_efficiency_sa>  (320) 
-0.192371

>  <r_i_glide_ligand_efficiency_ln>  (320) 
-0.440156

>  <r_i_glide_gscore>  (320) 
-1.97917

>  <r_i_glide_lipo>  (320) 
-0.632334

>  <r_i_glide_hbond>  (320) 
0

>  <r_i_glide_metal>  (320) 
-0

>  <r_i_glide_rewards>  (320) 
-0.310026

>  <r_i_glide_evdw>  (320) 
-28.4616

>  <r_i_glide_ecoul>  (320) 
0.849967

>  <r_i_glide_erotb>  (320) 
0.291525

>  <r_i_glide_esite>  (320) 
-0.0327482

>  <r_i_glide_emodel>  (320) 
-28.7209

>  <r_i_glide_energy>  (320) 
-27.6116

>  <r_i_glide_einternal>  (320) 
3.37246

>  <r_i_glide_intrahb_reward>  (320) 
-0

>  <i_i_glide_confnum>  (320) 
4

>  <i_i_glide_posenum>  (320) 
32

>  <r_i_glide_eff_state_penalty>  (320) 
0

>  <ligand_id>  (320) 
88

>  <original_smiles>  (320) 
CC12C=CC(=O)C=C1C(=NOCCN1CCCC1)CC1C2CCC2(C)C1CCC21OCCO1

>  <smiles>  (320) 
[H]C1=C([H])C2(C([H])([H])[H])C(=C([H])C1=O)C(=NOC([H])([H])C([H])([H])N1C([H])([H])C([H])([H])C([H])([H])C1([H])[H])C([H])([H])C1([H])C2([H])C([H])([H])C([H])([H])C2(C([H])([H])[H])C3(OC([H])([H])C([H])([H])O3)C([H])([H])C([H])([H])C12[H]

$$$$
88:2:2
     RDKit          3D

 71 76  0  0  1  0  0  0  0  0999 V2000
    4.0538   -3.4187    5.2753 C   0  0  0  0  0  0  0  0  0  0  0  0
    3.4673   -2.0522    4.8383 C   0  0  1  0  0  0  0  0  0  0  0  0
    3.8883   -1.0718    5.9366 C   0  0  0  0  0  0  0  0  0  0  0  0
    4.8984   -0.1993    5.8433 C   0  0  0  0  0  0  0  0  0  0  0  0
    5.6817   -0.1056    4.6057 C   0  0  0  0  0  0  0  0  0  0  0  0
    6.7099    0.5465    4.5563 O   0  0  0  0  0  0  0  0  0  0  0  0
    5.1931   -0.8388    3.4252 C   0  0  0  0  0  0  0  0  0  0  0  0
    4.1952   -1.7471    3.5061 C   0  0  0  0  0  0  0  0  0  0  0  0
    3.5647   -2.1283    2.2175 C   0  0  0  0  0  0  0  0  0  0  0  0
    4.2984   -2.4104    1.2106 N   0  0  0  0  0  0  0  0  0  0  0  0
    3.5719   -2.8533    0.0917 O   0  0  0  0  0  0  0  0  0  0  0  0
    4.4920   -3.1941   -0.9315 C   0  0  0  0  0  0  0  0  0  0  0  0
    3.7470   -3.2225   -2.2733 C   0  0  0  0  0  0  0  0  0  0  0  0
    3.4111   -1.8732   -2.7351 N   0  0  0  0  0  0  0  0  0  0  0  0
    4.5702   -1.1191   -3.1818 C   0  0  0  0  0  0  0  0  0  0  0  0
    3.9801    0.0523   -3.9625 C   0  0  0  0  0  0  0  0  0  0  0  0
    2.6424   -0.4520   -4.4527 C   0  0  0  0  0  0  0  0  0  0  0  0
    2.5668   -1.8999   -3.9205 C   0  0  0  0  0  0  0  0  0  0  0  0
    2.0422   -2.2184    2.1573 C   0  0  0  0  0  0  0  0  0  0  0  0
    1.2824   -1.7129    3.4001 C   0  0  1  0  0  0  0  0  0  0  0  0
    1.9045   -2.2222    4.7053 C   0  0  2  0  0  0  0  0  0  0  0  0
    1.0116   -1.8325    5.9127 C   0  0  0  0  0  0  0  0  0  0  0  0
    0.6318   -0.3368    5.9438 C   0  0  0  0  0  0  0  0  0  0  0  0
   -0.0395    0.1463    4.6333 C   0  0  2  0  0  0  0  0  0  0  0  0
   -1.4852   -0.3814    4.5345 C   0  0  0  0  0  0  0  0  0  0  0  0
    0.8415   -0.2207    3.4142 C   0  0  1  0  0  0  0  0  0  0  0  0
    1.9408    0.8591    3.3755 C   0  0  0  0  0  0  0  0  0  0  0  0
    1.4065    2.0852    4.1377 C   0  0  0  0  0  0  0  0  0  0  0  0
   -0.0219    1.7017    4.5696 C   0  0  0  0  0  0  0  0  0  0  0  0
   -0.3516    2.2909    5.7837 O   0  0  0  0  0  0  0  0  0  0  0  0
   -0.7074    3.6186    5.4251 C   0  0  0  0  0  0  0  0  0  0  0  0
   -1.3626    3.4291    4.0533 C   0  0  0  0  0  0  0  0  0  0  0  0
   -0.9031    2.1654    3.6088 O   0  0  0  0  0  0  0  0  0  0  0  0
    5.1423   -3.3604    5.3868 H   0  0  0  0  0  0  0  0  0  0  0  0
    3.8624   -4.1920    4.5237 H   0  0  0  0  0  0  0  0  0  0  0  0
    3.6396   -3.7660    6.2277 H   0  0  0  0  0  0  0  0  0  0  0  0
    3.3712   -1.1441    6.8800 H   0  0  0  0  0  0  0  0  0  0  0  0
    5.1948    0.4300    6.6652 H   0  0  0  0  0  0  0  0  0  0  0  0
    5.6107   -0.5393    2.4733 H   0  0  0  0  0  0  0  0  0  0  0  0
    5.3143   -2.4817   -0.9576 H   0  0  0  0  0  0  0  0  0  0  0  0
    4.9424   -4.1673   -0.7303 H   0  0  0  0  0  0  0  0  0  0  0  0
    4.3589   -3.7256   -3.0217 H   0  0  0  0  0  0  0  0  0  0  0  0
    2.8366   -3.8134   -2.1577 H   0  0  0  0  0  0  0  0  0  0  0  0
    5.1998   -0.7765   -2.3601 H   0  0  0  0  0  0  0  0  0  0  0  0
    5.1465   -1.7624   -3.8464 H   0  0  0  0  0  0  0  0  0  0  0  0
    3.8369    0.9145   -3.3106 H   0  0  0  0  0  0  0  0  0  0  0  0
    4.6089    0.3634   -4.7950 H   0  0  0  0  0  0  0  0  0  0  0  0
    1.8807    0.2363   -4.0895 H   0  0  0  0  0  0  0  0  0  0  0  0
    2.5904   -0.4026   -5.5303 H   0  0  0  0  0  0  0  0  0  0  0  0
    2.9868   -2.5914   -4.6560 H   0  0  0  0  0  0  0  0  0  0  0  0
    1.5649   -2.2605   -3.6799 H   0  0  0  0  0  0  0  0  0  0  0  0
    1.7067   -1.6471    1.2956 H   0  0  0  0  0  0  0  0  0  0  0  0
    1.7807   -3.2612    1.9735 H   0  0  0  0  0  0  0  0  0  0  0  0
    0.3279   -2.2348    3.3285 H   0  0  0  0  0  0  0  0  0  0  0  0
    1.7673   -3.3019    4.6346 H   0  0  0  0  0  0  0  0  0  0  0  0
    0.0946   -2.4207    5.8569 H   0  0  0  0  0  0  0  0  0  0  0  0
    1.4701   -2.1364    6.8530 H   0  0  0  0  0  0  0  0  0  0  0  0
   -0.0382   -0.1579    6.7873 H   0  0  0  0  0  0  0  0  0  0  0  0
    1.5259    0.2494    6.1551 H   0  0  0  0  0  0  0  0  0  0  0  0
   -1.9323   -0.0858    3.5946 H   0  0  0  0  0  0  0  0  0  0  0  0
   -2.1153    0.0077    5.3314 H   0  0  0  0  0  0  0  0  0  0  0  0
   -1.5322   -1.4643    4.5738 H   0  0  0  0  0  0  0  0  0  0  0  0
    0.2344   -0.0500    2.5259 H   0  0  0  0  0  0  0  0  0  0  0  0
    2.8442    0.5390    3.8796 H   0  0  0  0  0  0  0  0  0  0  0  0
    2.2070    1.1148    2.3496 H   0  0  0  0  0  0  0  0  0  0  0  0
    2.0088    2.2624    5.0286 H   0  0  0  0  0  0  0  0  0  0  0  0
    1.4005    2.9930    3.5332 H   0  0  0  0  0  0  0  0  0  0  0  0
   -1.3501    4.1063    6.1600 H   0  0  0  0  0  0  0  0  0  0  0  0
    0.1994    4.2185    5.3246 H   0  0  0  0  0  0  0  0  0  0  0  0
   -2.4469    3.4025    4.1363 H   0  0  0  0  0  0  0  0  0  0  0  0
   -1.0950    4.2276    3.3589 H   0  0  0  0  0  0  0  0  0  0  0  0
  2  1  1  1
  1 34  1  0
  1 35  1  0
  1 36  1  0
  2  8  1  0
  2 21  1  0
  2  3  1  0
  3  4  2  0
  3 37  1  0
  4  5  1  0
  4 38  1  0
  5  6  2  0
  5  7  1  0
  7  8  2  0
  7 39  1  0
  8  9  1  0
  9 10  2  3
  9 19  1  0
 10 11  1  0
 11 12  1  0
 12 13  1  0
 12 40  1  0
 12 41  1  0
 13 14  1  0
 13 42  1  0
 13 43  1  0
 14 18  1  0
 14 15  1  0
 15 16  1  0
 15 44  1  0
 15 45  1  0
 16 17  1  0
 16 46  1  0
 16 47  1  0
 17 18  1  0
 17 48  1  0
 17 49  1  0
 18 50  1  0
 18 51  1  0
 19 20  1  0
 19 52  1  0
 19 53  1  0
 20 26  1  0
 20 21  1  0
 20 54  1  6
 21 22  1  0
 21 55  1  6
 22 23  1  0
 22 56  1  0
 22 57  1  0
 23 24  1  0
 23 58  1  0
 23 59  1  0
 24 29  1  0
 24 25  1  6
 24 26  1  0
 25 60  1  0
 25 61  1  0
 25 62  1  0
 26 27  1  0
 26 63  1  6
 27 28  1  0
 27 64  1  0
 27 65  1  0
 28 29  1  0
 28 66  1  0
 28 67  1  0
 29 33  1  0
 29 30  1  0
 30 31  1  0
 31 32  1  0
 31 68  1  0
 31 69  1  0
 32 33  1  0
 32 70  1  0
 32 71  1  0
M  END
>  <i_m_ct_stereo_status>  (321) 
1

>  <s_m_source_file>  (321) 
/var/tmp/pbs.5076255.sched01/tmpbrgkg_oh/138myny07gr.sdf

>  <i_m_source_file_index>  (321) 
2

>  <i_lp_mmshare_version>  (321) 
48012

>  <i_f3d_flags>  (321) 
0

>  <s_epik_input>  (321) 
TzFbQ0gyXVtDSDJdT0MxMltDQEBdMyhbQ0gzXSlbQ0BASF0oW0NIMl1bQ0gyXTIpW0NAQEhdNFtDQEhdKFtDSDJdW0NIMl0zKVtDQEBdNShbQ0gzXSlDKD1bQ0hdQyg9TylbQ0hdPVtDSF01KS9DKFtDSDJdNCk9Ti9PW0NIMl1bQ0gyXU42W0NIMl1bQ0gyXVtDSDJdW0NIMl02

>  <s_epik_cmdline>  (321) 
J2VwaWtfcHl0aG9uJywgJy1waHQnLCAnMi4wJywgJy1waCcsICc3LjAnLCAnLXRuJywgJzgnLCAnLW1hJywgJzIwMCcsICctaW1hZScsICc8aW5maWxlLm1hZT4nLCAnLW9tYWUnLCAnPG91dGZpbGUubWFlPic=

>  <r_epik_Ionization_Penalty>  (321) 
2.5313

>  <r_epik_Ionization_Penalty_Charging>  (321) 
0

>  <r_epik_Ionization_Penalty_Neutral>  (321) 
2.5313

>  <r_epik_State_Penalty>  (321) 
2.69849

>  <r_epik_Charging_Adjusted_Penalty>  (321) 
2.69849

>  <i_epik_Tot_Q>  (321) 
0

>  <i_epik_Tot_abs_Q>  (321) 
0

>  <s_epik_Chemistry_Notes>  (321) 
This compound has an imine and may undergo hydrolysis.

>  <s_lp_Force_Field>  (321) 
OPLS3e

>  <r_lp_Energy>  (321) 
43.5971

>  <b_lp_Chiralities_Consistent>  (321) 
1

>  <s_lp_Variant>  (321) 
88:0-3

>  <s_i_glide_gridfile>  (321) 
pfpi4k_grid

>  <i_i_glide_lignum>  (321) 
2

>  <i_i_glide_rotatable_bonds>  (321) 
4

>  <r_i_docking_score>  (321) 
-1.9647

>  <r_i_glide_ligand_efficiency>  (321) 
-0.0595364

>  <r_i_glide_ligand_efficiency_sa>  (321) 
-0.190965

>  <r_i_glide_ligand_efficiency_ln>  (321) 
-0.436939

>  <r_i_glide_gscore>  (321) 
-1.9647

>  <r_i_glide_lipo>  (321) 
-0.60494

>  <r_i_glide_hbond>  (321) 
0

>  <r_i_glide_metal>  (321) 
-0

>  <r_i_glide_rewards>  (321) 
-0.399431

>  <r_i_glide_evdw>  (321) 
-26.2334

>  <r_i_glide_ecoul>  (321) 
0.610872

>  <r_i_glide_erotb>  (321) 
0.291525

>  <r_i_glide_esite>  (321) 
-0.0318148

>  <r_i_glide_emodel>  (321) 
-26.5147

>  <r_i_glide_energy>  (321) 
-25.6225

>  <r_i_glide_einternal>  (321) 
3.50503

>  <r_i_glide_intrahb_reward>  (321) 
-0

>  <i_i_glide_confnum>  (321) 
4

>  <i_i_glide_posenum>  (321) 
15

>  <r_i_glide_eff_state_penalty>  (321) 
0

>  <ligand_id>  (321) 
88

>  <original_smiles>  (321) 
CC12C=CC(=O)C=C1C(=NOCCN1CCCC1)CC1C2CCC2(C)C1CCC21OCCO1

>  <smiles>  (321) 
[H]C1=C([H])C2(C([H])([H])[H])C(=C([H])C1=O)C(=NOC([H])([H])C([H])([H])N1C([H])([H])C([H])([H])C([H])([H])C1([H])[H])C([H])([H])C1([H])C2([H])C([H])([H])C([H])([H])C2(C([H])([H])[H])C3(OC([H])([H])C([H])([H])O3)C([H])([H])C([H])([H])C12[H]

$$$$
88:3:0
     RDKit          3D

 71 76  0  0  1  0  0  0  0  0999 V2000
    7.3934   -5.2080    1.6261 C   0  0  0  0  0  0  0  0  0  0  0  0
    5.9646   -5.5299    2.1227 C   0  0  1  0  0  0  0  0  0  0  0  0
    6.0623   -5.6470    3.6485 C   0  0  0  0  0  0  0  0  0  0  0  0
    5.6472   -4.7213    4.5258 C   0  0  0  0  0  0  0  0  0  0  0  0
    5.0129   -3.4878    4.0648 C   0  0  0  0  0  0  0  0  0  0  0  0
    4.7546   -2.5593    4.8301 O   0  0  0  0  0  0  0  0  0  0  0  0
    4.6899   -3.4053    2.6401 C   0  0  0  0  0  0  0  0  0  0  0  0
    5.1433   -4.2923    1.7264 C   0  0  0  0  0  0  0  0  0  0  0  0
    4.4422   -4.2661    0.4123 C   0  0  0  0  0  0  0  0  0  0  0  0
    4.2683   -3.2130   -0.2891 N   0  0  0  0  0  0  0  0  0  0  0  0
    4.9727   -2.0985    0.2042 O   0  0  0  0  0  0  0  0  0  0  0  0
    4.3293   -0.9178   -0.2364 C   0  0  0  0  0  0  0  0  0  0  0  0
    4.3429    0.1160    0.9029 C   0  0  0  0  0  0  0  0  0  0  0  0
    3.4953   -0.2533    2.0374 N   0  0  0  0  0  0  0  0  0  0  0  0
    3.5269    0.7424    3.0991 C   0  0  0  0  0  0  0  0  0  0  0  0
    2.3388    0.3696    3.9855 C   0  0  0  0  0  0  0  0  0  0  0  0
    1.3795   -0.3606    3.0515 C   0  0  0  0  0  0  0  0  0  0  0  0
    2.0821   -0.3524    1.6970 C   0  0  0  0  0  0  0  0  0  0  0  0
    3.9132   -5.5799   -0.1242 C   0  0  0  0  0  0  0  0  0  0  0  0
    4.1099   -6.8226    0.7633 C   0  0  1  0  0  0  0  0  0  0  0  0
    5.4933   -6.8549    1.4205 C   0  0  2  0  0  0  0  0  0  0  0  0
    5.6966   -8.1975    2.1617 C   0  0  0  0  0  0  0  0  0  0  0  0
    4.5353   -8.5594    3.1125 C   0  0  0  0  0  0  0  0  0  0  0  0
    3.1504   -8.5726    2.4110 C   0  0  2  0  0  0  0  0  0  0  0  0
    3.0074   -9.8158    1.5072 C   0  0  0  0  0  0  0  0  0  0  0  0
    2.9148   -7.2402    1.6661 C   0  0  1  0  0  0  0  0  0  0  0  0
    2.4597   -6.2483    2.7503 C   0  0  0  0  0  0  0  0  0  0  0  0
    1.9179   -7.0727    3.9315 C   0  0  0  0  0  0  0  0  0  0  0  0
    2.0120   -8.5380    3.4754 C   0  0  0  0  0  0  0  0  0  0  0  0
    2.2591   -9.3764    4.5510 O   0  0  0  0  0  0  0  0  0  0  0  0
    0.9870   -9.5608    5.1478 C   0  0  0  0  0  0  0  0  0  0  0  0
    0.0530   -9.5349    3.9374 C   0  0  0  0  0  0  0  0  0  0  0  0
    0.7942   -8.8877    2.9165 O   0  0  0  0  0  0  0  0  0  0  0  0
    7.7541   -4.2795    2.0746 H   0  0  0  0  0  0  0  0  0  0  0  0
    7.4096   -5.0557    0.5422 H   0  0  0  0  0  0  0  0  0  0  0  0
    8.1018   -6.0058    1.8665 H   0  0  0  0  0  0  0  0  0  0  0  0
    6.5716   -6.5243    4.0282 H   0  0  0  0  0  0  0  0  0  0  0  0
    5.7953   -4.8342    5.5848 H   0  0  0  0  0  0  0  0  0  0  0  0
    3.9655   -2.6645    2.3613 H   0  0  0  0  0  0  0  0  0  0  0  0
    4.8803   -0.5432   -1.1019 H   0  0  0  0  0  0  0  0  0  0  0  0
    3.3074   -1.0974   -0.5691 H   0  0  0  0  0  0  0  0  0  0  0  0
    5.3683    0.2549    1.2426 H   0  0  0  0  0  0  0  0  0  0  0  0
    3.9934    1.0542    0.4907 H   0  0  0  0  0  0  0  0  0  0  0  0
    4.4714    0.7332    3.6442 H   0  0  0  0  0  0  0  0  0  0  0  0
    3.3797    1.7419    2.6835 H   0  0  0  0  0  0  0  0  0  0  0  0
    2.6553   -0.2917    4.7931 H   0  0  0  0  0  0  0  0  0  0  0  0
    1.8835    1.2518    4.4341 H   0  0  0  0  0  0  0  0  0  0  0  0
    1.2293   -1.3849    3.3946 H   0  0  0  0  0  0  0  0  0  0  0  0
    0.4045    0.1222    2.9926 H   0  0  0  0  0  0  0  0  0  0  0  0
    1.7704    0.5163    1.1113 H   0  0  0  0  0  0  0  0  0  0  0  0
    1.8652   -1.2597    1.1349 H   0  0  0  0  0  0  0  0  0  0  0  0
    2.8519   -5.4539   -0.3299 H   0  0  0  0  0  0  0  0  0  0  0  0
    4.4137   -5.7436   -1.0790 H   0  0  0  0  0  0  0  0  0  0  0  0
    4.1635   -7.6380    0.0432 H   0  0  0  0  0  0  0  0  0  0  0  0
    6.1565   -6.9303    0.5622 H   0  0  0  0  0  0  0  0  0  0  0  0
    5.7898   -8.9886    1.4154 H   0  0  0  0  0  0  0  0  0  0  0  0
    6.6495   -8.2080    2.6869 H   0  0  0  0  0  0  0  0  0  0  0  0
    4.7344   -9.5388    3.5542 H   0  0  0  0  0  0  0  0  0  0  0  0
    4.5331   -7.8594    3.9460 H   0  0  0  0  0  0  0  0  0  0  0  0
    2.0654   -9.8312    0.9661 H   0  0  0  0  0  0  0  0  0  0  0  0
    3.0636  -10.7394    2.0812 H   0  0  0  0  0  0  0  0  0  0  0  0
    3.7902   -9.8532    0.7566 H   0  0  0  0  0  0  0  0  0  0  0  0
    2.0485   -7.3971    1.0242 H   0  0  0  0  0  0  0  0  0  0  0  0
    3.2855   -5.6604    3.1276 H   0  0  0  0  0  0  0  0  0  0  0  0
    1.7090   -5.5593    2.3656 H   0  0  0  0  0  0  0  0  0  0  0  0
    2.5517   -6.9372    4.8083 H   0  0  0  0  0  0  0  0  0  0  0  0
    0.8917   -6.8206    4.1974 H   0  0  0  0  0  0  0  0  0  0  0  0
    0.9103  -10.4691    5.7458 H   0  0  0  0  0  0  0  0  0  0  0  0
    0.7742   -8.7127    5.7988 H   0  0  0  0  0  0  0  0  0  0  0  0
   -0.1943  -10.5419    3.6129 H   0  0  0  0  0  0  0  0  0  0  0  0
   -0.8783   -9.0094    4.1548 H   0  0  0  0  0  0  0  0  0  0  0  0
  2  1  1  6
  1 34  1  0
  1 35  1  0
  1 36  1  0
  2  8  1  0
  2 21  1  0
  2  3  1  0
  3  4  2  0
  3 37  1  0
  4  5  1  0
  4 38  1  0
  5  6  2  0
  5  7  1  0
  7  8  2  0
  7 39  1  0
  8  9  1  0
  9 10  2  3
  9 19  1  0
 10 11  1  0
 11 12  1  0
 12 13  1  0
 12 40  1  0
 12 41  1  0
 13 14  1  0
 13 42  1  0
 13 43  1  0
 14 18  1  0
 14 15  1  0
 15 16  1  0
 15 44  1  0
 15 45  1  0
 16 17  1  0
 16 46  1  0
 16 47  1  0
 17 18  1  0
 17 48  1  0
 17 49  1  0
 18 50  1  0
 18 51  1  0
 19 20  1  0
 19 52  1  0
 19 53  1  0
 20 26  1  0
 20 21  1  0
 20 54  1  6
 21 22  1  0
 21 55  1  6
 22 23  1  0
 22 56  1  0
 22 57  1  0
 23 24  1  0
 23 58  1  0
 23 59  1  0
 24 29  1  0
 24 25  1  6
 24 26  1  0
 25 60  1  0
 25 61  1  0
 25 62  1  0
 26 27  1  0
 26 63  1  6
 27 28  1  0
 27 64  1  0
 27 65  1  0
 28 29  1  0
 28 66  1  0
 28 67  1  0
 29 33  1  0
 29 30  1  0
 30 31  1  0
 31 32  1  0
 31 68  1  0
 31 69  1  0
 32 33  1  0
 32 70  1  0
 32 71  1  0
M  END
>  <i_m_ct_stereo_status>  (322) 
1

>  <s_m_source_file>  (322) 
/var/tmp/pbs.5076255.sched01/tmpbrgkg_oh/138myny07gr.sdf

>  <i_m_source_file_index>  (322) 
3

>  <i_lp_mmshare_version>  (322) 
48012

>  <i_f3d_flags>  (322) 
0

>  <s_epik_input>  (322) 
TzFbQ0gyXVtDSDJdT0MxMltDQEBdMyhbQ0gzXSlbQ0BASF0oW0NIMl1bQ0gyXTIpW0NAQEhdNFtDQEhdKFtDSDJdW0NIMl0zKVtDQEBdNShbQ0gzXSlDKD1bQ0hdQyg9TylbQ0hdPVtDSF01KS9DKFtDSDJdNCk9Ti9PW0NIMl1bQ0gyXU42W0NIMl1bQ0gyXVtDSDJdW0NIMl02

>  <s_epik_cmdline>  (322) 
J2VwaWtfcHl0aG9uJywgJy1waHQnLCAnMi4wJywgJy1waCcsICc3LjAnLCAnLXRuJywgJzgnLCAnLW1hJywgJzIwMCcsICctaW1hZScsICc8aW5maWxlLm1hZT4nLCAnLW9tYWUnLCAnPG91dGZpbGUubWFlPic=

>  <r_epik_Ionization_Penalty>  (322) 
2.5313

>  <r_epik_Ionization_Penalty_Charging>  (322) 
0

>  <r_epik_Ionization_Penalty_Neutral>  (322) 
2.5313

>  <r_epik_State_Penalty>  (322) 
2.69849

>  <r_epik_Charging_Adjusted_Penalty>  (322) 
2.69849

>  <i_epik_Tot_Q>  (322) 
0

>  <i_epik_Tot_abs_Q>  (322) 
0

>  <s_epik_Chemistry_Notes>  (322) 
This compound has an imine and may undergo hydrolysis.

>  <s_lp_Force_Field>  (322) 
OPLS3e

>  <r_lp_Energy>  (322) 
43.7734

>  <b_lp_Chiralities_Consistent>  (322) 
1

>  <s_lp_Variant>  (322) 
88:0-4

>  <s_i_glide_gridfile>  (322) 
pfpi4k_grid

>  <i_i_glide_lignum>  (322) 
3

>  <i_i_glide_rotatable_bonds>  (322) 
4

>  <r_i_docking_score>  (322) 
-2.13489

>  <r_i_glide_ligand_efficiency>  (322) 
-0.0646935

>  <r_i_glide_ligand_efficiency_sa>  (322) 
-0.207507

>  <r_i_glide_ligand_efficiency_ln>  (322) 
-0.474787

>  <r_i_glide_gscore>  (322) 
-2.13489

>  <r_i_glide_lipo>  (322) 
-0.54956

>  <r_i_glide_hbond>  (322) 
0

>  <r_i_glide_metal>  (322) 
-0

>  <r_i_glide_rewards>  (322) 
-0.402589

>  <r_i_glide_evdw>  (322) 
-24.2739

>  <r_i_glide_ecoul>  (322) 
-1.68784

>  <r_i_glide_erotb>  (322) 
0.291525

>  <r_i_glide_esite>  (322) 
-0.00739067

>  <r_i_glide_emodel>  (322) 
-26.5149

>  <r_i_glide_energy>  (322) 
-25.9617

>  <r_i_glide_einternal>  (322) 
5.97915

>  <r_i_glide_intrahb_reward>  (322) 
-0

>  <i_i_glide_confnum>  (322) 
3

>  <i_i_glide_posenum>  (322) 
3

>  <r_i_glide_eff_state_penalty>  (322) 
0

>  <ligand_id>  (322) 
88

>  <original_smiles>  (322) 
CC12C=CC(=O)C=C1C(=NOCCN1CCCC1)CC1C2CCC2(C)C1CCC21OCCO1

>  <smiles>  (322) 
[H]C1=C([H])C2(C([H])([H])[H])C(=C([H])C1=O)C(=NOC([H])([H])C([H])([H])N1C([H])([H])C([H])([H])C([H])([H])C1([H])[H])C([H])([H])C1([H])C2([H])C([H])([H])C([H])([H])C2(C([H])([H])[H])C3(OC([H])([H])C([H])([H])O3)C([H])([H])C([H])([H])C12[H]

$$$$
88:3:1
     RDKit          3D

 71 76  0  0  1  0  0  0  0  0999 V2000
    3.6320   -2.2434    5.7696 C   0  0  0  0  0  0  0  0  0  0  0  0
    2.7225   -3.3509    5.1851 C   0  0  1  0  0  0  0  0  0  0  0  0
    1.9319   -3.8968    6.3777 C   0  0  0  0  0  0  0  0  0  0  0  0
    0.6506   -3.6161    6.6540 C   0  0  0  0  0  0  0  0  0  0  0  0
   -0.1330   -2.7510    5.7650 C   0  0  0  0  0  0  0  0  0  0  0  0
   -1.2669   -2.3820    6.0690 O   0  0  0  0  0  0  0  0  0  0  0  0
    0.4851   -2.3683    4.4911 C   0  0  0  0  0  0  0  0  0  0  0  0
    1.7971   -2.5846    4.2112 C   0  0  0  0  0  0  0  0  0  0  0  0
    2.1897   -2.4764    2.7840 C   0  0  0  0  0  0  0  0  0  0  0  0
    1.9381   -1.4490    2.0561 N   0  0  0  0  0  0  0  0  0  0  0  0
    1.3781   -0.3730    2.7758 O   0  0  0  0  0  0  0  0  0  0  0  0
    1.2995    0.7699    1.9310 C   0  0  0  0  0  0  0  0  0  0  0  0
   -0.1177    1.3597    2.0470 C   0  0  0  0  0  0  0  0  0  0  0  0
   -0.4101    1.9120    3.3715 N   0  0  0  0  0  0  0  0  0  0  0  0
    0.4511    3.0385    3.7153 C   0  0  0  0  0  0  0  0  0  0  0  0
   -0.2595    3.6933    4.8957 C   0  0  0  0  0  0  0  0  0  0  0  0
   -1.7269    3.3318    4.7018 C   0  0  0  0  0  0  0  0  0  0  0  0
   -1.7441    2.4963    3.4216 C   0  0  0  0  0  0  0  0  0  0  0  0
    2.9640   -3.6312    2.1486 C   0  0  0  0  0  0  0  0  0  0  0  0
    3.2528   -4.8395    3.0635 C   0  0  1  0  0  0  0  0  0  0  0  0
    3.6480   -4.4233    4.4871 C   0  0  2  0  0  0  0  0  0  0  0  0
    4.0784   -5.6658    5.3087 C   0  0  0  0  0  0  0  0  0  0  0  0
    3.0636   -6.8275    5.2489 C   0  0  0  0  0  0  0  0  0  0  0  0
    2.7227   -7.2698    3.7978 C   0  0  2  0  0  0  0  0  0  0  0  0
    3.8976   -8.0548    3.1710 C   0  0  0  0  0  0  0  0  0  0  0  0
    2.2782   -6.0464    2.9654 C   0  0  1  0  0  0  0  0  0  0  0  0
    0.8045   -5.8135    3.3484 C   0  0  0  0  0  0  0  0  0  0  0  0
    0.2596   -7.1349    3.9201 C   0  0  0  0  0  0  0  0  0  0  0  0
    1.4287   -8.1311    3.7998 C   0  0  0  0  0  0  0  0  0  0  0  0
    1.4017   -9.0509    4.8411 O   0  0  0  0  0  0  0  0  0  0  0  0
    0.4199   -9.9945    4.4241 C   0  0  0  0  0  0  0  0  0  0  0  0
    0.6070  -10.0249    2.9040 C   0  0  0  0  0  0  0  0  0  0  0  0
    1.2786   -8.8095    2.6009 O   0  0  0  0  0  0  0  0  0  0  0  0
    3.0362   -1.4657    6.2578 H   0  0  0  0  0  0  0  0  0  0  0  0
    4.2065   -1.7412    4.9861 H   0  0  0  0  0  0  0  0  0  0  0  0
    4.3396   -2.6324    6.5065 H   0  0  0  0  0  0  0  0  0  0  0  0
    2.4842   -4.4992    7.0832 H   0  0  0  0  0  0  0  0  0  0  0  0
    0.1642   -3.9992    7.5350 H   0  0  0  0  0  0  0  0  0  0  0  0
   -0.1780   -1.9780    3.7289 H   0  0  0  0  0  0  0  0  0  0  0  0
    2.0760    1.4859    2.2043 H   0  0  0  0  0  0  0  0  0  0  0  0
    1.4760    0.5351    0.8796 H   0  0  0  0  0  0  0  0  0  0  0  0
   -0.2242    2.1332    1.2894 H   0  0  0  0  0  0  0  0  0  0  0  0
   -0.8435    0.5839    1.8037 H   0  0  0  0  0  0  0  0  0  0  0  0
    1.4592    2.7215    3.9811 H   0  0  0  0  0  0  0  0  0  0  0  0
    0.5147    3.7398    2.8808 H   0  0  0  0  0  0  0  0  0  0  0  0
    0.1103    3.2780    5.8332 H   0  0  0  0  0  0  0  0  0  0  0  0
   -0.0880    4.7687    4.9126 H   0  0  0  0  0  0  0  0  0  0  0  0
   -2.0845    2.7446    5.5480 H   0  0  0  0  0  0  0  0  0  0  0  0
   -2.3616    4.2108    4.6122 H   0  0  0  0  0  0  0  0  0  0  0  0
   -1.9115    3.1408    2.5548 H   0  0  0  0  0  0  0  0  0  0  0  0
   -2.5332    1.7443    3.4375 H   0  0  0  0  0  0  0  0  0  0  0  0
    2.4052   -3.9693    1.2817 H   0  0  0  0  0  0  0  0  0  0  0  0
    3.9042   -3.2401    1.7608 H   0  0  0  0  0  0  0  0  0  0  0  0
    4.1675   -5.2532    2.6359 H   0  0  0  0  0  0  0  0  0  0  0  0
    4.5885   -3.8904    4.3302 H   0  0  0  0  0  0  0  0  0  0  0  0
    5.0312   -6.0219    4.9133 H   0  0  0  0  0  0  0  0  0  0  0  0
    4.3012   -5.3940    6.3400 H   0  0  0  0  0  0  0  0  0  0  0  0
    3.4665   -7.6753    5.8086 H   0  0  0  0  0  0  0  0  0  0  0  0
    2.1618   -6.5333    5.7856 H   0  0  0  0  0  0  0  0  0  0  0  0
    3.6970   -8.3345    2.1396 H   0  0  0  0  0  0  0  0  0  0  0  0
    4.1004   -8.9712    3.7232 H   0  0  0  0  0  0  0  0  0  0  0  0
    4.8145   -7.4749    3.1620 H   0  0  0  0  0  0  0  0  0  0  0  0
    2.2651   -6.3756    1.9270 H   0  0  0  0  0  0  0  0  0  0  0  0
    0.7013   -5.0623    4.1213 H   0  0  0  0  0  0  0  0  0  0  0  0
    0.2300   -5.4906    2.4840 H   0  0  0  0  0  0  0  0  0  0  0  0
    0.0084   -7.0125    4.9743 H   0  0  0  0  0  0  0  0  0  0  0  0
   -0.6203   -7.5027    3.3927 H   0  0  0  0  0  0  0  0  0  0  0  0
    0.5232  -10.9684    4.9067 H   0  0  0  0  0  0  0  0  0  0  0  0
   -0.5666   -9.5940    4.6671 H   0  0  0  0  0  0  0  0  0  0  0  0
    1.2281  -10.8671    2.6023 H   0  0  0  0  0  0  0  0  0  0  0  0
   -0.3465  -10.1041    2.3797 H   0  0  0  0  0  0  0  0  0  0  0  0
  2  1  1  1
  1 34  1  0
  1 35  1  0
  1 36  1  0
  2  8  1  0
  2 21  1  0
  2  3  1  0
  3  4  2  0
  3 37  1  0
  4  5  1  0
  4 38  1  0
  5  6  2  0
  5  7  1  0
  7  8  2  0
  7 39  1  0
  8  9  1  0
  9 10  2  3
  9 19  1  0
 10 11  1  0
 11 12  1  0
 12 13  1  0
 12 40  1  0
 12 41  1  0
 13 14  1  0
 13 42  1  0
 13 43  1  0
 14 18  1  0
 14 15  1  0
 15 16  1  0
 15 44  1  0
 15 45  1  0
 16 17  1  0
 16 46  1  0
 16 47  1  0
 17 18  1  0
 17 48  1  0
 17 49  1  0
 18 50  1  0
 18 51  1  0
 19 20  1  0
 19 52  1  0
 19 53  1  0
 20 26  1  0
 20 21  1  0
 20 54  1  6
 21 22  1  0
 21 55  1  6
 22 23  1  0
 22 56  1  0
 22 57  1  0
 23 24  1  0
 23 58  1  0
 23 59  1  0
 24 29  1  0
 24 25  1  6
 24 26  1  0
 25 60  1  0
 25 61  1  0
 25 62  1  0
 26 27  1  0
 26 63  1  6
 27 28  1  0
 27 64  1  0
 27 65  1  0
 28 29  1  0
 28 66  1  0
 28 67  1  0
 29 33  1  0
 29 30  1  0
 30 31  1  0
 31 32  1  0
 31 68  1  0
 31 69  1  0
 32 33  1  0
 32 70  1  0
 32 71  1  0
M  END
>  <i_m_ct_stereo_status>  (323) 
1

>  <s_m_source_file>  (323) 
/var/tmp/pbs.5076255.sched01/tmpbrgkg_oh/138myny07gr.sdf

>  <i_m_source_file_index>  (323) 
3

>  <i_lp_mmshare_version>  (323) 
48012

>  <i_f3d_flags>  (323) 
0

>  <s_epik_input>  (323) 
TzFbQ0gyXVtDSDJdT0MxMltDQEBdMyhbQ0gzXSlbQ0BASF0oW0NIMl1bQ0gyXTIpW0NAQEhdNFtDQEhdKFtDSDJdW0NIMl0zKVtDQEBdNShbQ0gzXSlDKD1bQ0hdQyg9TylbQ0hdPVtDSF01KS9DKFtDSDJdNCk9Ti9PW0NIMl1bQ0gyXU42W0NIMl1bQ0gyXVtDSDJdW0NIMl02

>  <s_epik_cmdline>  (323) 
J2VwaWtfcHl0aG9uJywgJy1waHQnLCAnMi4wJywgJy1waCcsICc3LjAnLCAnLXRuJywgJzgnLCAnLW1hJywgJzIwMCcsICctaW1hZScsICc8aW5maWxlLm1hZT4nLCAnLW9tYWUnLCAnPG91dGZpbGUubWFlPic=

>  <r_epik_Ionization_Penalty>  (323) 
2.5313

>  <r_epik_Ionization_Penalty_Charging>  (323) 
0

>  <r_epik_Ionization_Penalty_Neutral>  (323) 
2.5313

>  <r_epik_State_Penalty>  (323) 
2.69849

>  <r_epik_Charging_Adjusted_Penalty>  (323) 
2.69849

>  <i_epik_Tot_Q>  (323) 
0

>  <i_epik_Tot_abs_Q>  (323) 
0

>  <s_epik_Chemistry_Notes>  (323) 
This compound has an imine and may undergo hydrolysis.

>  <s_lp_Force_Field>  (323) 
OPLS3e

>  <r_lp_Energy>  (323) 
43.7734

>  <b_lp_Chiralities_Consistent>  (323) 
1

>  <s_lp_Variant>  (323) 
88:0-4

>  <s_i_glide_gridfile>  (323) 
pfpi4k_grid

>  <i_i_glide_lignum>  (323) 
3

>  <i_i_glide_rotatable_bonds>  (323) 
4

>  <r_i_docking_score>  (323) 
-1.8299

>  <r_i_glide_ligand_efficiency>  (323) 
-0.0554515

>  <r_i_glide_ligand_efficiency_sa>  (323) 
-0.177863

>  <r_i_glide_ligand_efficiency_ln>  (323) 
-0.40696

>  <r_i_glide_gscore>  (323) 
-1.8299

>  <r_i_glide_lipo>  (323) 
-0.113789

>  <r_i_glide_hbond>  (323) 
0

>  <r_i_glide_metal>  (323) 
-0

>  <r_i_glide_rewards>  (323) 
-0.309534

>  <r_i_glide_evdw>  (323) 
-25.1568

>  <r_i_glide_ecoul>  (323) 
-2.18315

>  <r_i_glide_erotb>  (323) 
0.291525

>  <r_i_glide_esite>  (323) 
-0.112786

>  <r_i_glide_emodel>  (323) 
-27.5625

>  <r_i_glide_energy>  (323) 
-27.34

>  <r_i_glide_einternal>  (323) 
5.53406

>  <r_i_glide_intrahb_reward>  (323) 
-0

>  <i_i_glide_confnum>  (323) 
3

>  <i_i_glide_posenum>  (323) 
36

>  <r_i_glide_eff_state_penalty>  (323) 
0

>  <ligand_id>  (323) 
88

>  <original_smiles>  (323) 
CC12C=CC(=O)C=C1C(=NOCCN1CCCC1)CC1C2CCC2(C)C1CCC21OCCO1

>  <smiles>  (323) 
[H]C1=C([H])C2(C([H])([H])[H])C(=C([H])C1=O)C(=NOC([H])([H])C([H])([H])N1C([H])([H])C([H])([H])C([H])([H])C1([H])[H])C([H])([H])C1([H])C2([H])C([H])([H])C([H])([H])C2(C([H])([H])[H])C3(OC([H])([H])C([H])([H])O3)C([H])([H])C([H])([H])C12[H]

$$$$
88:3:2
     RDKit          3D

 71 76  0  0  1  0  0  0  0  0999 V2000
    2.0448   -1.4584    8.3963 C   0  0  0  0  0  0  0  0  0  0  0  0
    1.9622   -1.2579    6.8633 C   0  0  1  0  0  0  0  0  0  0  0  0
    1.4009   -2.5706    6.3079 C   0  0  0  0  0  0  0  0  0  0  0  0
    0.1414   -2.7616    5.8875 C   0  0  0  0  0  0  0  0  0  0  0  0
   -0.8124   -1.6512    5.8971 C   0  0  0  0  0  0  0  0  0  0  0  0
   -2.0060   -1.8208    5.6692 O   0  0  0  0  0  0  0  0  0  0  0  0
   -0.3040   -0.3220    6.2245 C   0  0  0  0  0  0  0  0  0  0  0  0
    0.9503   -0.1087    6.7120 C   0  0  0  0  0  0  0  0  0  0  0  0
    1.4532    1.2856    6.6542 C   0  0  0  0  0  0  0  0  0  0  0  0
    0.8371    2.2827    7.1641 N   0  0  0  0  0  0  0  0  0  0  0  0
   -0.3119    1.9192    7.9047 O   0  0  0  0  0  0  0  0  0  0  0  0
   -1.2434    2.9914    7.8503 C   0  0  0  0  0  0  0  0  0  0  0  0
   -2.1473    2.9296    6.5979 C   0  0  0  0  0  0  0  0  0  0  0  0
   -1.4004    2.9310    5.3439 N   0  0  0  0  0  0  0  0  0  0  0  0
   -2.2304    2.7022    4.1747 C   0  0  0  0  0  0  0  0  0  0  0  0
   -1.3124    3.0867    3.0155 C   0  0  0  0  0  0  0  0  0  0  0  0
   -0.2985    4.0572    3.6190 C   0  0  0  0  0  0  0  0  0  0  0  0
   -0.6994    4.1765    5.0827 C   0  0  0  0  0  0  0  0  0  0  0  0
    2.7949    1.5544    5.9778 C   0  0  0  0  0  0  0  0  0  0  0  0
    3.5237    0.3201    5.4179 C   0  0  1  0  0  0  0  0  0  0  0  0
    3.4091   -0.9047    6.3371 C   0  0  2  0  0  0  0  0  0  0  0  0
    4.2899   -2.0595    5.8020 C   0  0  0  0  0  0  0  0  0  0  0  0
    4.0581   -2.3680    4.3077 C   0  0  0  0  0  0  0  0  0  0  0  0
    4.2293   -1.1268    3.3910 C   0  0  2  0  0  0  0  0  0  0  0  0
    5.7176   -0.7506    3.2436 C   0  0  0  0  0  0  0  0  0  0  0  0
    3.3504    0.0367    3.8999 C   0  0  1  0  0  0  0  0  0  0  0  0
    1.9335   -0.2744    3.3824 C   0  0  0  0  0  0  0  0  0  0  0  0
    2.0803   -1.2283    2.1823 C   0  0  0  0  0  0  0  0  0  0  0  0
    3.5999   -1.4073    1.9977 C   0  0  0  0  0  0  0  0  0  0  0  0
    3.8956   -2.6828    1.5238 O   0  0  0  0  0  0  0  0  0  0  0  0
    3.6360   -2.5836    0.1266 C   0  0  0  0  0  0  0  0  0  0  0  0
    4.0475   -1.1437   -0.1907 C   0  0  0  0  0  0  0  0  0  0  0  0
    4.0292   -0.4800    1.0632 O   0  0  0  0  0  0  0  0  0  0  0  0
    1.0596   -1.6893    8.8155 H   0  0  0  0  0  0  0  0  0  0  0  0
    2.3839   -0.5495    8.9044 H   0  0  0  0  0  0  0  0  0  0  0  0
    2.7236   -2.2698    8.6727 H   0  0  0  0  0  0  0  0  0  0  0  0
    2.0656   -3.4202    6.3285 H   0  0  0  0  0  0  0  0  0  0  0  0
   -0.2148   -3.7219    5.5533 H   0  0  0  0  0  0  0  0  0  0  0  0
   -0.9430    0.5017    5.9587 H   0  0  0  0  0  0  0  0  0  0  0  0
   -1.8837    2.8848    8.7292 H   0  0  0  0  0  0  0  0  0  0  0  0
   -0.7434    3.9539    7.9561 H   0  0  0  0  0  0  0  0  0  0  0  0
   -2.7323    2.0129    6.6458 H   0  0  0  0  0  0  0  0  0  0  0  0
   -2.8517    3.7590    6.6128 H   0  0  0  0  0  0  0  0  0  0  0  0
   -2.5769    1.6707    4.1048 H   0  0  0  0  0  0  0  0  0  0  0  0
   -3.1002    3.3573    4.2084 H   0  0  0  0  0  0  0  0  0  0  0  0
   -0.7959    2.2122    2.6148 H   0  0  0  0  0  0  0  0  0  0  0  0
   -1.8726    3.5410    2.1994 H   0  0  0  0  0  0  0  0  0  0  0  0
    0.7108    3.6512    3.5208 H   0  0  0  0  0  0  0  0  0  0  0  0
   -0.3096    5.0292    3.1251 H   0  0  0  0  0  0  0  0  0  0  0  0
   -1.3829    5.0089    5.2287 H   0  0  0  0  0  0  0  0  0  0  0  0
    0.1656    4.3264    5.7280 H   0  0  0  0  0  0  0  0  0  0  0  0
    2.6271    2.2671    5.1748 H   0  0  0  0  0  0  0  0  0  0  0  0
    3.4362    2.0610    6.6968 H   0  0  0  0  0  0  0  0  0  0  0  0
    4.5726    0.6140    5.4764 H   0  0  0  0  0  0  0  0  0  0  0  0
    3.9361   -0.5805    7.2352 H   0  0  0  0  0  0  0  0  0  0  0  0
    5.3362   -1.7810    5.9372 H   0  0  0  0  0  0  0  0  0  0  0  0
    4.1670   -2.9550    6.4089 H   0  0  0  0  0  0  0  0  0  0  0  0
    4.7503   -3.1561    4.0010 H   0  0  0  0  0  0  0  0  0  0  0  0
    3.0640   -2.7996    4.1883 H   0  0  0  0  0  0  0  0  0  0  0  0
    5.8587    0.1413    2.6389 H   0  0  0  0  0  0  0  0  0  0  0  0
    6.2637   -1.5578    2.7621 H   0  0  0  0  0  0  0  0  0  0  0  0
    6.1822   -0.5473    4.2041 H   0  0  0  0  0  0  0  0  0  0  0  0
    3.6735    0.9249    3.3578 H   0  0  0  0  0  0  0  0  0  0  0  0
    1.3324   -0.7822    4.1247 H   0  0  0  0  0  0  0  0  0  0  0  0
    1.4120    0.6377    3.0949 H   0  0  0  0  0  0  0  0  0  0  0  0
    1.6417   -2.1978    2.4217 H   0  0  0  0  0  0  0  0  0  0  0  0
    1.6195   -0.8371    1.2794 H   0  0  0  0  0  0  0  0  0  0  0  0
    4.1618   -3.3361   -0.4647 H   0  0  0  0  0  0  0  0  0  0  0  0
    2.5660   -2.7100   -0.0509 H   0  0  0  0  0  0  0  0  0  0  0  0
    5.0539   -1.1067   -0.6021 H   0  0  0  0  0  0  0  0  0  0  0  0
    3.3754   -0.6795   -0.9115 H   0  0  0  0  0  0  0  0  0  0  0  0
  2  1  1  1
  1 34  1  0
  1 35  1  0
  1 36  1  0
  2  8  1  0
  2 21  1  0
  2  3  1  0
  3  4  2  0
  3 37  1  0
  4  5  1  0
  4 38  1  0
  5  6  2  0
  5  7  1  0
  7  8  2  0
  7 39  1  0
  8  9  1  0
  9 10  2  3
  9 19  1  0
 10 11  1  0
 11 12  1  0
 12 13  1  0
 12 40  1  0
 12 41  1  0
 13 14  1  0
 13 42  1  0
 13 43  1  0
 14 18  1  0
 14 15  1  0
 15 16  1  0
 15 44  1  0
 15 45  1  0
 16 17  1  0
 16 46  1  0
 16 47  1  0
 17 18  1  0
 17 48  1  0
 17 49  1  0
 18 50  1  0
 18 51  1  0
 19 20  1  0
 19 52  1  0
 19 53  1  0
 20 26  1  0
 20 21  1  0
 20 54  1  6
 21 22  1  0
 21 55  1  1
 22 23  1  0
 22 56  1  0
 22 57  1  0
 23 24  1  0
 23 58  1  0
 23 59  1  0
 24 29  1  0
 24 25  1  6
 24 26  1  0
 25 60  1  0
 25 61  1  0
 25 62  1  0
 26 27  1  0
 26 63  1  6
 27 28  1  0
 27 64  1  0
 27 65  1  0
 28 29  1  0
 28 66  1  0
 28 67  1  0
 29 33  1  0
 29 30  1  0
 30 31  1  0
 31 32  1  0
 31 68  1  0
 31 69  1  0
 32 33  1  0
 32 70  1  0
 32 71  1  0
M  END
>  <i_m_ct_stereo_status>  (324) 
1

>  <s_m_source_file>  (324) 
/var/tmp/pbs.5076255.sched01/tmpbrgkg_oh/138myny07gr.sdf

>  <i_m_source_file_index>  (324) 
3

>  <i_lp_mmshare_version>  (324) 
48012

>  <i_f3d_flags>  (324) 
0

>  <s_epik_input>  (324) 
TzFbQ0gyXVtDSDJdT0MxMltDQEBdMyhbQ0gzXSlbQ0BASF0oW0NIMl1bQ0gyXTIpW0NAQEhdNFtDQEhdKFtDSDJdW0NIMl0zKVtDQEBdNShbQ0gzXSlDKD1bQ0hdQyg9TylbQ0hdPVtDSF01KS9DKFtDSDJdNCk9Ti9PW0NIMl1bQ0gyXU42W0NIMl1bQ0gyXVtDSDJdW0NIMl02

>  <s_epik_cmdline>  (324) 
J2VwaWtfcHl0aG9uJywgJy1waHQnLCAnMi4wJywgJy1waCcsICc3LjAnLCAnLXRuJywgJzgnLCAnLW1hJywgJzIwMCcsICctaW1hZScsICc8aW5maWxlLm1hZT4nLCAnLW9tYWUnLCAnPG91dGZpbGUubWFlPic=

>  <r_epik_Ionization_Penalty>  (324) 
2.5313

>  <r_epik_Ionization_Penalty_Charging>  (324) 
0

>  <r_epik_Ionization_Penalty_Neutral>  (324) 
2.5313

>  <r_epik_State_Penalty>  (324) 
2.69849

>  <r_epik_Charging_Adjusted_Penalty>  (324) 
2.69849

>  <i_epik_Tot_Q>  (324) 
0

>  <i_epik_Tot_abs_Q>  (324) 
0

>  <s_epik_Chemistry_Notes>  (324) 
This compound has an imine and may undergo hydrolysis.

>  <s_lp_Force_Field>  (324) 
OPLS3e

>  <r_lp_Energy>  (324) 
43.7734

>  <b_lp_Chiralities_Consistent>  (324) 
1

>  <s_lp_Variant>  (324) 
88:0-4

>  <s_i_glide_gridfile>  (324) 
pfpi4k_grid

>  <i_i_glide_lignum>  (324) 
3

>  <i_i_glide_rotatable_bonds>  (324) 
4

>  <r_i_docking_score>  (324) 
-1.77974

>  <r_i_glide_ligand_efficiency>  (324) 
-0.0539315

>  <r_i_glide_ligand_efficiency_sa>  (324) 
-0.172987

>  <r_i_glide_ligand_efficiency_ln>  (324) 
-0.395805

>  <r_i_glide_gscore>  (324) 
-1.77974

>  <r_i_glide_lipo>  (324) 
-0.226081

>  <r_i_glide_hbond>  (324) 
0

>  <r_i_glide_metal>  (324) 
-0

>  <r_i_glide_rewards>  (324) 
-0.309534

>  <r_i_glide_evdw>  (324) 
-22.4514

>  <r_i_glide_ecoul>  (324) 
-2.31305

>  <r_i_glide_erotb>  (324) 
0.291525

>  <r_i_glide_esite>  (324) 
-0.0661199

>  <r_i_glide_emodel>  (324) 
-24.9411

>  <r_i_glide_energy>  (324) 
-24.7645

>  <r_i_glide_einternal>  (324) 
4.93415

>  <r_i_glide_intrahb_reward>  (324) 
-0

>  <i_i_glide_confnum>  (324) 
3

>  <i_i_glide_posenum>  (324) 
13

>  <r_i_glide_eff_state_penalty>  (324) 
0

>  <ligand_id>  (324) 
88

>  <original_smiles>  (324) 
CC12C=CC(=O)C=C1C(=NOCCN1CCCC1)CC1C2CCC2(C)C1CCC21OCCO1

>  <smiles>  (324) 
[H]C1=C([H])C2(C([H])([H])[H])C(=C([H])C1=O)C(=NOC([H])([H])C([H])([H])N1C([H])([H])C([H])([H])C([H])([H])C1([H])[H])C([H])([H])C1([H])C2([H])C([H])([H])C([H])([H])C2(C([H])([H])[H])C3(OC([H])([H])C([H])([H])O3)C([H])([H])C([H])([H])C12[H]

$$$$
92:0:0
     RDKit          3D

 43 48  0  0  1  0  0  0  0  0999 V2000
    3.0026    1.6236    3.5088 N   0  0  0  0  0  0  0  0  0  0  0  0
    2.0256    2.5732    3.0137 C   0  0  2  0  0  0  0  0  0  0  0  0
    2.6241    3.8979    2.7234 N   0  0  0  0  0  0  0  0  0  0  0  0
    2.0250    4.8950    3.4822 C   0  0  0  0  0  0  0  0  0  0  0  0
    2.8323    5.8113    4.4345 C   0  0  1  0  0  0  0  0  0  0  0  0
    2.4805    7.3124    4.4264 C   0  0  0  0  0  0  0  0  0  0  0  0
    1.2165    7.4155    5.2814 C   0  0  1  0  0  0  0  0  0  0  0  0
    0.0608    7.3423    4.4792 O   0  0  0  0  0  0  0  0  0  0  0  0
    1.3020    6.2006    6.2229 C   0  0  0  0  0  0  0  0  0  0  0  0
    2.4188    5.3436    5.8049 N   0  0  0  0  0  0  0  0  0  0  0  0
    2.0512    3.9753    5.4631 C   0  0  2  0  0  0  0  0  0  0  0  0
    1.2053    4.2364    4.2580 C   0  0  0  0  0  0  0  0  0  0  0  0
    0.8799    2.7993    4.0640 C   0  0  1  0  0  0  0  0  0  0  0  0
   -0.4864    2.4820    3.4244 C   0  0  0  0  0  0  0  0  0  0  0  0
   -1.6743    3.3267    3.9012 C   0  0  0  0  0  0  0  0  0  0  0  0
   -2.3100    2.8726    5.2176 C   0  0  0  0  0  0  0  0  0  0  0  0
   -1.4932    3.1386    6.4485 C   0  0  0  0  0  0  0  0  0  0  0  0
   -1.9621    3.4675    7.6843 C   0  0  0  0  0  0  0  0  0  0  0  0
   -0.8758    3.6052    8.5151 N   0  0  0  0  0  0  0  0  0  0  0  0
    0.2760    3.3436    7.8853 N   0  0  0  0  0  0  0  0  0  0  0  0
   -0.0773    3.1017    6.6346 C   0  0  0  0  0  0  0  0  0  0  0  0
    1.0209    2.8750    5.6504 C   0  0  2  0  0  0  0  0  0  0  0  0
   -0.8984    3.8603    9.4896 H   0  0  0  0  0  0  0  0  0  0  0  0
    2.5211    0.9494    4.0876 H   0  0  0  0  0  0  0  0  0  0  0  0
    3.3798    1.1025    2.7275 H   0  0  0  0  0  0  0  0  0  0  0  0
    1.6389    2.1636    2.0776 H   0  0  0  0  0  0  0  0  0  0  0  0
    3.9063    5.6537    4.2668 H   0  0  0  0  0  0  0  0  0  0  0  0
    2.3913    7.8004    3.4511 H   0  0  0  0  0  0  0  0  0  0  0  0
    3.2547    7.8454    4.9807 H   0  0  0  0  0  0  0  0  0  0  0  0
    1.1623    8.3410    5.8570 H   0  0  0  0  0  0  0  0  0  0  0  0
    0.2023    7.8673    3.6886 H   0  0  0  0  0  0  0  0  0  0  0  0
    1.4942    6.5347    7.2411 H   0  0  0  0  0  0  0  0  0  0  0  0
    0.3616    5.6651    6.2728 H   0  0  0  0  0  0  0  0  0  0  0  0
    2.9799    3.4362    5.3041 H   0  0  0  0  0  0  0  0  0  0  0  0
   -0.4200    2.5985    2.3405 H   0  0  0  0  0  0  0  0  0  0  0  0
   -0.7146    1.4223    3.5598 H   0  0  0  0  0  0  0  0  0  0  0  0
   -1.4315    4.3914    3.9124 H   0  0  0  0  0  0  0  0  0  0  0  0
   -2.4357    3.2054    3.1363 H   0  0  0  0  0  0  0  0  0  0  0  0
   -3.2804    3.3615    5.3078 H   0  0  0  0  0  0  0  0  0  0  0  0
   -2.5470    1.8139    5.1481 H   0  0  0  0  0  0  0  0  0  0  0  0
   -2.9775    3.6122    8.0323 H   0  0  0  0  0  0  0  0  0  0  0  0
    1.5590    1.9822    5.9649 H   0  0  0  0  0  0  0  0  0  0  0  0
    3.6176    3.9215    2.5444 H   0  0  0  0  0  0  0  0  0  0  0  0
  1  2  1  0
  1 24  1  0
  1 25  1  0
  2 13  1  0
  2 26  1  6
  2  3  1  0
  3  4  1  0
  3 43  1  0
  4 12  2  0
  4  5  1  0
  5 10  1  0
  5  6  1  0
  5 27  1  1
  6  7  1  0
  6 28  1  0
  6 29  1  0
  7  8  1  0
  7  9  1  0
  7 30  1  1
  8 31  1  0
  9 10  1  0
  9 32  1  0
  9 33  1  0
 10 11  1  0
 11 22  1  0
 11 34  1  6
 11 12  1  0
 12 13  1  0
 13 22  1  0
 13 14  1  1
 14 15  1  0
 14 35  1  0
 14 36  1  0
 15 16  1  0
 15 37  1  0
 15 38  1  0
 16 39  1  0
 16 40  1  0
 16 17  1  0
 17 18  2  0
 17 21  1  0
 18 19  1  0
 18 41  1  0
 19 20  1  0
 19 23  1  0
 20 21  2  0
 21 22  1  0
 22 42  1  1
M  END
>  <i_m_ct_stereo_status>  (325) 
1

>  <s_m_source_file>  (325) 
/var/tmp/pbs.5076255.sched01/tmpbrgkg_oh/138myny07gr.sdf

>  <i_m_source_file_index>  (325) 
8

>  <i_lp_mmshare_version>  (325) 
48012

>  <i_f3d_flags>  (325) 
0

>  <s_epik_input>  (325) 
W05IMl1bQ0BASF0xTj1DKFtDQEBIXTJbQ0BdMTM0KVtDQEBIXTVOKFtDSDJdW0NAQEhdKFtDSDJdNSlbT0hdKVtDQEhdMltDQEhdNGM2YyhbQ0gyXVtDSDJdW0NIMl0zKVtjSF1uW25IXTY=

>  <s_epik_cmdline>  (325) 
J2VwaWtfcHl0aG9uJywgJy1waHQnLCAnMi4wJywgJy1waCcsICc3LjAnLCAnLXRuJywgJzgnLCAnLW1hJywgJzIwMCcsICctaW1hZScsICc8aW5maWxlLm1hZT4nLCAnLW9tYWUnLCAnPG91dGZpbGUubWFlPic=

>  <r_lp_tautomer_probability>  (325) 
4e-06

>  <r_epik_Ionization_Penalty>  (325) 
0.410388

>  <r_epik_Ionization_Penalty_Charging>  (325) 
0.000127799

>  <r_epik_Ionization_Penalty_Neutral>  (325) 
0.41026

>  <r_epik_State_Penalty>  (325) 
0.41068

>  <r_epik_Charging_Adjusted_Penalty>  (325) 
0.410808

>  <i_epik_Tot_Q>  (325) 
0

>  <i_epik_Tot_abs_Q>  (325) 
0

>  <s_epik_Chemistry_Notes>  (325) 
This compound has an imine and may undergo hydrolysis. This compound contains an acetal/aminal-like group ( X-CH(R)-Y where X, Y are N, S, or O) that may be acid/base labile, releasing an aldehyde.

>  <s_lp_Force_Field>  (325) 
OPLS3e

>  <r_lp_Energy>  (325) 
81.9556

>  <b_lp_Chiralities_Consistent>  (325) 
1

>  <s_lp_Variant>  (325) 
92:0-1

>  <s_i_glide_gridfile>  (325) 
pfpi4k_grid

>  <i_i_glide_lignum>  (325) 
8

>  <i_i_glide_rotatable_bonds>  (325) 
1

>  <r_i_docking_score>  (325) 
-4.12887

>  <r_i_glide_ligand_efficiency>  (325) 
-0.187676

>  <r_i_glide_ligand_efficiency_sa>  (325) 
-0.525875

>  <r_i_glide_ligand_efficiency_ln>  (325) 
-1.00925

>  <r_i_glide_gscore>  (325) 
-4.12887

>  <r_i_glide_lipo>  (325) 
-0.0799922

>  <r_i_glide_hbond>  (325) 
-0.392502

>  <r_i_glide_metal>  (325) 
-0

>  <r_i_glide_rewards>  (325) 
-1.36793

>  <r_i_glide_evdw>  (325) 
-17.0594

>  <r_i_glide_ecoul>  (325) 
-9.02492

>  <r_i_glide_erotb>  (325) 
0

>  <r_i_glide_esite>  (325) 
-0.0817371

>  <r_i_glide_emodel>  (325) 
-32.3164

>  <r_i_glide_energy>  (325) 
-26.0843

>  <r_i_glide_einternal>  (325) 
0.603602

>  <r_i_glide_intrahb_reward>  (325) 
-0

>  <i_i_glide_confnum>  (325) 
1

>  <i_i_glide_posenum>  (325) 
13

>  <r_i_glide_eff_state_penalty>  (325) 
0

>  <ligand_id>  (325) 
92

>  <original_smiles>  (325) 
NC1N=C2C3CC(O)CN3C3C2C12CCCc1cn[nH]c1C32

>  <smiles>  (325) 
[H]OC1([H])C([H])([H])N2C([H])(C3=C4C2([H])C2([H])c5nn([H])c([H])c5C([H])([H])C([H])([H])C([H])([H])C42C([H])(N([H])[H])N3[H])C1([H])[H]

$$$$
92:0:1
     RDKit          3D

 43 48  0  0  1  0  0  0  0  0999 V2000
    1.4232   -0.3029    3.6643 N   0  0  0  0  0  0  0  0  0  0  0  0
    0.6255    0.8015    3.1906 C   0  0  2  0  0  0  0  0  0  0  0  0
    1.4276    1.7695    2.4060 N   0  0  0  0  0  0  0  0  0  0  0  0
    1.3486    3.0355    2.9744 C   0  0  0  0  0  0  0  0  0  0  0  0
    2.6190    3.7951    3.4036 C   0  0  1  0  0  0  0  0  0  0  0  0
    2.6656    5.2881    3.0462 C   0  0  0  0  0  0  0  0  0  0  0  0
    1.7892    5.9662    4.1118 C   0  0  1  0  0  0  0  0  0  0  0  0
    0.4508    6.1328    3.7026 O   0  0  0  0  0  0  0  0  0  0  0  0
    1.8913    5.0095    5.3138 C   0  0  0  0  0  0  0  0  0  0  0  0
    2.5641    3.7754    4.9169 N   0  0  0  0  0  0  0  0  0  0  0  0
    1.7674    2.5642    5.0729 C   0  0  2  0  0  0  0  0  0  0  0  0
    0.6821    2.8411    4.0772 C   0  0  0  0  0  0  0  0  0  0  0  0
   -0.0415    1.5785    4.3910 C   0  0  1  0  0  0  0  0  0  0  0  0
   -1.5680    1.6372    4.2062 C   0  0  0  0  0  0  0  0  0  0  0  0
   -2.2822    2.8995    4.7049 C   0  0  0  0  0  0  0  0  0  0  0  0
   -2.5694    2.9410    6.2102 C   0  0  0  0  0  0  0  0  0  0  0  0
   -1.3679    3.1575    7.0786 C   0  0  0  0  0  0  0  0  0  0  0  0
   -1.3177    3.8502    8.2421 C   0  0  0  0  0  0  0  0  0  0  0  0
   -0.0294    3.7815    8.7132 N   0  0  0  0  0  0  0  0  0  0  0  0
    0.7544    3.0297    7.9249 N   0  0  0  0  0  0  0  0  0  0  0  0
   -0.0281    2.6828    6.9175 C   0  0  0  0  0  0  0  0  0  0  0  0
    0.6032    1.9301    5.8037 C   0  0  2  0  0  0  0  0  0  0  0  0
    0.3292    4.2131    9.5492 H   0  0  0  0  0  0  0  0  0  0  0  0
    1.0085   -0.6568    4.5232 H   0  0  0  0  0  0  0  0  0  0  0  0
    1.3727   -1.0636    2.9938 H   0  0  0  0  0  0  0  0  0  0  0  0
   -0.1341    0.3758    2.5254 H   0  0  0  0  0  0  0  0  0  0  0  0
    3.5045    3.2598    3.0294 H   0  0  0  0  0  0  0  0  0  0  0  0
    2.3893    5.5477    2.0333 H   0  0  0  0  0  0  0  0  0  0  0  0
    3.6781    5.6520    3.2060 H   0  0  0  0  0  0  0  0  0  0  0  0
    2.1701    6.9505    4.3893 H   0  0  0  0  0  0  0  0  0  0  0  0
    0.4366    6.8006    3.0051 H   0  0  0  0  0  0  0  0  0  0  0  0
    2.4668    5.4781    6.1075 H   0  0  0  0  0  0  0  0  0  0  0  0
    0.9062    4.8227    5.7353 H   0  0  0  0  0  0  0  0  0  0  0  0
    2.4135    1.7258    4.8537 H   0  0  0  0  0  0  0  0  0  0  0  0
   -1.8123    1.5253    3.1466 H   0  0  0  0  0  0  0  0  0  0  0  0
   -2.0227    0.7563    4.6745 H   0  0  0  0  0  0  0  0  0  0  0  0
   -1.7855    3.8067    4.3601 H   0  0  0  0  0  0  0  0  0  0  0  0
   -3.2497    2.8887    4.2123 H   0  0  0  0  0  0  0  0  0  0  0  0
   -3.2964    3.7312    6.3829 H   0  0  0  0  0  0  0  0  0  0  0  0
   -3.0751    2.0289    6.5186 H   0  0  0  0  0  0  0  0  0  0  0  0
   -2.1045    4.3882    8.7695 H   0  0  0  0  0  0  0  0  0  0  0  0
    0.9795    0.9938    6.2199 H   0  0  0  0  0  0  0  0  0  0  0  0
    2.2888    1.4601    1.9820 H   0  0  0  0  0  0  0  0  0  0  0  0
  1  2  1  0
  1 24  1  0
  1 25  1  0
  2 13  1  0
  2 26  1  6
  2  3  1  0
  3  4  1  0
  3 43  1  0
  4 12  2  0
  4  5  1  0
  5 10  1  0
  5  6  1  0
  5 27  1  1
  6  7  1  0
  6 28  1  0
  6 29  1  0
  7  8  1  0
  7  9  1  0
  7 30  1  1
  8 31  1  0
  9 10  1  0
  9 32  1  0
  9 33  1  0
 10 11  1  0
 11 22  1  0
 11 34  1  6
 11 12  1  0
 12 13  1  0
 13 22  1  0
 13 14  1  1
 14 15  1  0
 14 35  1  0
 14 36  1  0
 15 16  1  0
 15 37  1  0
 15 38  1  0
 16 39  1  0
 16 40  1  0
 16 17  1  0
 17 18  2  0
 17 21  1  0
 18 19  1  0
 18 41  1  0
 19 20  1  0
 19 23  1  0
 20 21  2  0
 21 22  1  0
 22 42  1  1
M  END
>  <i_m_ct_stereo_status>  (326) 
1

>  <s_m_source_file>  (326) 
/var/tmp/pbs.5076255.sched01/tmpbrgkg_oh/138myny07gr.sdf

>  <i_m_source_file_index>  (326) 
8

>  <i_lp_mmshare_version>  (326) 
48012

>  <i_f3d_flags>  (326) 
0

>  <s_epik_input>  (326) 
W05IMl1bQ0BASF0xTj1DKFtDQEBIXTJbQ0BdMTM0KVtDQEBIXTVOKFtDSDJdW0NAQEhdKFtDSDJdNSlbT0hdKVtDQEhdMltDQEhdNGM2YyhbQ0gyXVtDSDJdW0NIMl0zKVtjSF1uW25IXTY=

>  <s_epik_cmdline>  (326) 
J2VwaWtfcHl0aG9uJywgJy1waHQnLCAnMi4wJywgJy1waCcsICc3LjAnLCAnLXRuJywgJzgnLCAnLW1hJywgJzIwMCcsICctaW1hZScsICc8aW5maWxlLm1hZT4nLCAnLW9tYWUnLCAnPG91dGZpbGUubWFlPic=

>  <r_lp_tautomer_probability>  (326) 
4e-06

>  <r_epik_Ionization_Penalty>  (326) 
0.410388

>  <r_epik_Ionization_Penalty_Charging>  (326) 
0.000127799

>  <r_epik_Ionization_Penalty_Neutral>  (326) 
0.41026

>  <r_epik_State_Penalty>  (326) 
0.41068

>  <r_epik_Charging_Adjusted_Penalty>  (326) 
0.410808

>  <i_epik_Tot_Q>  (326) 
0

>  <i_epik_Tot_abs_Q>  (326) 
0

>  <s_epik_Chemistry_Notes>  (326) 
This compound has an imine and may undergo hydrolysis. This compound contains an acetal/aminal-like group ( X-CH(R)-Y where X, Y are N, S, or O) that may be acid/base labile, releasing an aldehyde.

>  <s_lp_Force_Field>  (326) 
OPLS3e

>  <r_lp_Energy>  (326) 
81.9556

>  <b_lp_Chiralities_Consistent>  (326) 
1

>  <s_lp_Variant>  (326) 
92:0-1

>  <s_i_glide_gridfile>  (326) 
pfpi4k_grid

>  <i_i_glide_lignum>  (326) 
8

>  <i_i_glide_rotatable_bonds>  (326) 
1

>  <r_i_docking_score>  (326) 
-3.42663

>  <r_i_glide_ligand_efficiency>  (326) 
-0.155756

>  <r_i_glide_ligand_efficiency_sa>  (326) 
-0.436434

>  <r_i_glide_ligand_efficiency_ln>  (326) 
-0.837594

>  <r_i_glide_gscore>  (326) 
-3.42663

>  <r_i_glide_lipo>  (326) 
-0.145985

>  <r_i_glide_hbond>  (326) 
-0.16

>  <r_i_glide_metal>  (326) 
-0

>  <r_i_glide_rewards>  (326) 
-1.36793

>  <r_i_glide_evdw>  (326) 
-20.5894

>  <r_i_glide_ecoul>  (326) 
-4.44093

>  <r_i_glide_erotb>  (326) 
0

>  <r_i_glide_esite>  (326) 
-0.0571088

>  <r_i_glide_emodel>  (326) 
-29.9708

>  <r_i_glide_energy>  (326) 
-25.0304

>  <r_i_glide_einternal>  (326) 
0.363461

>  <r_i_glide_intrahb_reward>  (326) 
-0

>  <i_i_glide_confnum>  (326) 
2

>  <i_i_glide_posenum>  (326) 
27

>  <r_i_glide_eff_state_penalty>  (326) 
0

>  <ligand_id>  (326) 
92

>  <original_smiles>  (326) 
NC1N=C2C3CC(O)CN3C3C2C12CCCc1cn[nH]c1C32

>  <smiles>  (326) 
[H]OC1([H])C([H])([H])N2C([H])(C3=C4C2([H])C2([H])c5nn([H])c([H])c5C([H])([H])C([H])([H])C([H])([H])C42C([H])(N([H])[H])N3[H])C1([H])[H]

$$$$
92:0:2
     RDKit          3D

 43 48  0  0  1  0  0  0  0  0999 V2000
    1.2420   -0.9181    2.4972 N   0  0  0  0  0  0  0  0  0  0  0  0
    1.1650    0.5212    2.3734 C   0  0  2  0  0  0  0  0  0  0  0  0
    2.4818    1.1749    2.5916 N   0  0  0  0  0  0  0  0  0  0  0  0
    2.4058    2.0717    3.6488 C   0  0  0  0  0  0  0  0  0  0  0  0
    3.3136    1.9672    4.9002 C   0  0  1  0  0  0  0  0  0  0  0  0
    3.9327    3.2772    5.4268 C   0  0  0  0  0  0  0  0  0  0  0  0
    2.8052    3.9444    6.2245 C   0  0  1  0  0  0  0  0  0  0  0  0
    2.0729    4.8699    5.4458 O   0  0  0  0  0  0  0  0  0  0  0  0
    1.9156    2.7710    6.6580 C   0  0  0  0  0  0  0  0  0  0  0  0
    2.3692    1.5424    5.9936 N   0  0  0  0  0  0  0  0  0  0  0  0
    1.3715    0.8751    5.1701 C   0  0  2  0  0  0  0  0  0  0  0  0
    1.1905    1.9154    4.1125 C   0  0  0  0  0  0  0  0  0  0  0  0
    0.1440    1.1399    3.4018 C   0  0  1  0  0  0  0  0  0  0  0  0
   -0.9211    1.9596    2.6486 C   0  0  0  0  0  0  0  0  0  0  0  0
   -1.4442    3.2128    3.3571 C   0  0  0  0  0  0  0  0  0  0  0  0
   -2.5385    2.9625    4.3937 C   0  0  0  0  0  0  0  0  0  0  0  0
   -2.0836    2.3042    5.6656 C   0  0  0  0  0  0  0  0  0  0  0  0
   -2.5638    2.5418    6.9150 C   0  0  0  0  0  0  0  0  0  0  0  0
   -1.8771    1.7335    7.7819 N   0  0  0  0  0  0  0  0  0  0  0  0
   -1.0258    0.9166    7.1407 N   0  0  0  0  0  0  0  0  0  0  0  0
   -1.0860    1.3062    5.8741 C   0  0  0  0  0  0  0  0  0  0  0  0
   -0.1166    0.6972    4.9121 C   0  0  2  0  0  0  0  0  0  0  0  0
   -1.9618    1.7340    8.7879 H   0  0  0  0  0  0  0  0  0  0  0  0
    0.3296   -1.2457    2.7928 H   0  0  0  0  0  0  0  0  0  0  0  0
    1.3819   -1.2975    1.5661 H   0  0  0  0  0  0  0  0  0  0  0  0
    0.8617    0.7094    1.3419 H   0  0  0  0  0  0  0  0  0  0  0  0
    4.0835    1.2021    4.7245 H   0  0  0  0  0  0  0  0  0  0  0  0
    4.4106    3.9247    4.6923 H   0  0  0  0  0  0  0  0  0  0  0  0
    4.6953    3.0121    6.1591 H   0  0  0  0  0  0  0  0  0  0  0  0
    3.1767    4.4830    7.0965 H   0  0  0  0  0  0  0  0  0  0  0  0
    2.6905    5.4500    5.0271 H   0  0  0  0  0  0  0  0  0  0  0  0
    2.0037    2.6293    7.7314 H   0  0  0  0  0  0  0  0  0  0  0  0
    0.8652    2.9776    6.4704 H   0  0  0  0  0  0  0  0  0  0  0  0
    1.8035   -0.0706    4.8520 H   0  0  0  0  0  0  0  0  0  0  0  0
   -0.5066    2.2835    1.6930 H   0  0  0  0  0  0  0  0  0  0  0  0
   -1.7612    1.3146    2.3721 H   0  0  0  0  0  0  0  0  0  0  0  0
   -0.6337    3.8206    3.7624 H   0  0  0  0  0  0  0  0  0  0  0  0
   -1.8918    3.8134    2.5721 H   0  0  0  0  0  0  0  0  0  0  0  0
   -2.9730    3.9260    4.6375 H   0  0  0  0  0  0  0  0  0  0  0  0
   -3.3481    2.4032    3.9325 H   0  0  0  0  0  0  0  0  0  0  0  0
   -3.3319    3.2282    7.2523 H   0  0  0  0  0  0  0  0  0  0  0  0
   -0.3134   -0.3742    4.8967 H   0  0  0  0  0  0  0  0  0  0  0  0
    3.3024    0.6020    2.4988 H   0  0  0  0  0  0  0  0  0  0  0  0
  1  2  1  0
  1 24  1  0
  1 25  1  0
  2 13  1  0
  2 26  1  6
  2  3  1  0
  3  4  1  0
  3 43  1  0
  4 12  2  0
  4  5  1  0
  5 10  1  0
  5  6  1  0
  5 27  1  6
  6  7  1  0
  6 28  1  0
  6 29  1  0
  7  8  1  0
  7  9  1  0
  7 30  1  1
  8 31  1  0
  9 10  1  0
  9 32  1  0
  9 33  1  0
 10 11  1  0
 11 22  1  0
 11 34  1  6
 11 12  1  0
 12 13  1  0
 13 22  1  0
 13 14  1  6
 14 15  1  0
 14 35  1  0
 14 36  1  0
 15 16  1  0
 15 37  1  0
 15 38  1  0
 16 39  1  0
 16 40  1  0
 16 17  1  0
 17 18  2  0
 17 21  1  0
 18 19  1  0
 18 41  1  0
 19 20  1  0
 19 23  1  0
 20 21  2  0
 21 22  1  0
 22 42  1  6
M  END
>  <i_m_ct_stereo_status>  (327) 
1

>  <s_m_source_file>  (327) 
/var/tmp/pbs.5076255.sched01/tmpbrgkg_oh/138myny07gr.sdf

>  <i_m_source_file_index>  (327) 
8

>  <i_lp_mmshare_version>  (327) 
48012

>  <i_f3d_flags>  (327) 
0

>  <s_epik_input>  (327) 
W05IMl1bQ0BASF0xTj1DKFtDQEBIXTJbQ0BdMTM0KVtDQEBIXTVOKFtDSDJdW0NAQEhdKFtDSDJdNSlbT0hdKVtDQEhdMltDQEhdNGM2YyhbQ0gyXVtDSDJdW0NIMl0zKVtjSF1uW25IXTY=

>  <s_epik_cmdline>  (327) 
J2VwaWtfcHl0aG9uJywgJy1waHQnLCAnMi4wJywgJy1waCcsICc3LjAnLCAnLXRuJywgJzgnLCAnLW1hJywgJzIwMCcsICctaW1hZScsICc8aW5maWxlLm1hZT4nLCAnLW9tYWUnLCAnPG91dGZpbGUubWFlPic=

>  <r_lp_tautomer_probability>  (327) 
4e-06

>  <r_epik_Ionization_Penalty>  (327) 
0.410388

>  <r_epik_Ionization_Penalty_Charging>  (327) 
0.000127799

>  <r_epik_Ionization_Penalty_Neutral>  (327) 
0.41026

>  <r_epik_State_Penalty>  (327) 
0.41068

>  <r_epik_Charging_Adjusted_Penalty>  (327) 
0.410808

>  <i_epik_Tot_Q>  (327) 
0

>  <i_epik_Tot_abs_Q>  (327) 
0

>  <s_epik_Chemistry_Notes>  (327) 
This compound has an imine and may undergo hydrolysis. This compound contains an acetal/aminal-like group ( X-CH(R)-Y where X, Y are N, S, or O) that may be acid/base labile, releasing an aldehyde.

>  <s_lp_Force_Field>  (327) 
OPLS3e

>  <r_lp_Energy>  (327) 
81.9556

>  <b_lp_Chiralities_Consistent>  (327) 
1

>  <s_lp_Variant>  (327) 
92:0-1

>  <s_i_glide_gridfile>  (327) 
pfpi4k_grid

>  <i_i_glide_lignum>  (327) 
8

>  <i_i_glide_rotatable_bonds>  (327) 
1

>  <r_i_docking_score>  (327) 
-3.41335

>  <r_i_glide_ligand_efficiency>  (327) 
-0.155152

>  <r_i_glide_ligand_efficiency_sa>  (327) 
-0.434742

>  <r_i_glide_ligand_efficiency_ln>  (327) 
-0.834346

>  <r_i_glide_gscore>  (327) 
-3.41335

>  <r_i_glide_lipo>  (327) 
-0.151077

>  <r_i_glide_hbond>  (327) 
-0.0527702

>  <r_i_glide_metal>  (327) 
-0

>  <r_i_glide_rewards>  (327) 
-1.36793

>  <r_i_glide_evdw>  (327) 
-20.9468

>  <r_i_glide_ecoul>  (327) 
-4.73776

>  <r_i_glide_erotb>  (327) 
0

>  <r_i_glide_esite>  (327) 
-0.08357

>  <r_i_glide_emodel>  (327) 
-30.6739

>  <r_i_glide_energy>  (327) 
-25.6845

>  <r_i_glide_einternal>  (327) 
0.358826

>  <r_i_glide_intrahb_reward>  (327) 
-0

>  <i_i_glide_confnum>  (327) 
2

>  <i_i_glide_posenum>  (327) 
38

>  <r_i_glide_eff_state_penalty>  (327) 
0

>  <ligand_id>  (327) 
92

>  <original_smiles>  (327) 
NC1N=C2C3CC(O)CN3C3C2C12CCCc1cn[nH]c1C32

>  <smiles>  (327) 
[H]OC1([H])C([H])([H])N2C([H])(C3=C4C2([H])C2([H])c5nn([H])c([H])c5C([H])([H])C([H])([H])C([H])([H])C42C([H])(N([H])[H])N3[H])C1([H])[H]

$$$$
92:1:0
     RDKit          3D

 43 48  0  0  1  0  0  0  0  0999 V2000
    7.7537   -5.9307    1.2135 N   0  0  0  0  0  0  0  0  0  0  0  0
    6.7850   -5.3218    2.1012 C   0  0  2  0  0  0  0  0  0  0  0  0
    5.9247   -6.3226    2.7673 N   0  0  0  0  0  0  0  0  0  0  0  0
    4.5891   -6.1116    2.4936 C   0  0  0  0  0  0  0  0  0  0  0  0
    3.6664   -7.1849    1.8748 C   0  0  1  0  0  0  0  0  0  0  0  0
    2.2208   -7.3152    2.4516 C   0  0  0  0  0  0  0  0  0  0  0  0
    1.2876   -6.8568    1.3140 C   0  0  1  0  0  0  0  0  0  0  0  0
    0.0929   -6.2607    1.7480 O   0  0  0  0  0  0  0  0  0  0  0  0
    2.1800   -5.9213    0.5174 C   0  0  0  0  0  0  0  0  0  0  0  0
    3.4617   -6.6317    0.5135 N   0  0  0  0  0  0  0  0  0  0  0  0
    4.6568   -5.8501    0.3143 C   0  0  2  0  0  0  0  0  0  0  0  0
    4.6214   -5.1228    1.6180 C   0  0  0  0  0  0  0  0  0  0  0  0
    5.8349   -4.3374    1.3388 C   0  0  1  0  0  0  0  0  0  0  0  0
    5.7697   -2.9296    1.9383 C   0  0  0  0  0  0  0  0  0  0  0  0
    6.2592   -1.8292    0.9839 C   0  0  0  0  0  0  0  0  0  0  0  0
    5.1251   -1.1718    0.1943 C   0  0  0  0  0  0  0  0  0  0  0  0
    4.3268   -2.1373   -0.6288 C   0  0  0  0  0  0  0  0  0  0  0  0
    3.2666   -1.7871   -1.5044 C   0  0  0  0  0  0  0  0  0  0  0  0
    2.7048   -2.8205   -2.0828 N   0  0  0  0  0  0  0  0  0  0  0  0
    3.3679   -3.8517   -1.5854 N   0  0  0  0  0  0  0  0  0  0  0  0
    4.3662   -3.4810   -0.7283 C   0  0  0  0  0  0  0  0  0  0  0  0
    5.2187   -4.5109   -0.1010 C   0  0  2  0  0  0  0  0  0  0  0  0
    3.1624   -4.8397   -1.8978 H   0  0  0  0  0  0  0  0  0  0  0  0
    7.9509   -5.2571    0.4908 H   0  0  0  0  0  0  0  0  0  0  0  0
    8.6356   -6.0650    1.6977 H   0  0  0  0  0  0  0  0  0  0  0  0
    7.3616   -4.8137    2.8585 H   0  0  0  0  0  0  0  0  0  0  0  0
    4.1847   -8.1615    1.8364 H   0  0  0  0  0  0  0  0  0  0  0  0
    2.0670   -6.7350    3.3688 H   0  0  0  0  0  0  0  0  0  0  0  0
    1.9903   -8.3535    2.6761 H   0  0  0  0  0  0  0  0  0  0  0  0
    1.0070   -7.6939    0.6794 H   0  0  0  0  0  0  0  0  0  0  0  0
   -0.4163   -6.9718    2.1796 H   0  0  0  0  0  0  0  0  0  0  0  0
    1.8176   -5.7973   -0.5000 H   0  0  0  0  0  0  0  0  0  0  0  0
    2.2339   -4.9332    0.9757 H   0  0  0  0  0  0  0  0  0  0  0  0
    5.4621   -6.5607    0.1586 H   0  0  0  0  0  0  0  0  0  0  0  0
    4.7687   -2.7142    2.3036 H   0  0  0  0  0  0  0  0  0  0  0  0
    6.3417   -2.8576    2.8419 H   0  0  0  0  0  0  0  0  0  0  0  0
    6.7573   -1.0505    1.5593 H   0  0  0  0  0  0  0  0  0  0  0  0
    7.0151   -2.2291    0.3062 H   0  0  0  0  0  0  0  0  0  0  0  0
    4.4787   -0.6231    0.8865 H   0  0  0  0  0  0  0  0  0  0  0  0
    5.5462   -0.4158   -0.4653 H   0  0  0  0  0  0  0  0  0  0  0  0
    2.8263   -0.8088   -1.6809 H   0  0  0  0  0  0  0  0  0  0  0  0
    6.0538   -4.6713   -0.7723 H   0  0  0  0  0  0  0  0  0  0  0  0
    6.3108   -7.2534    2.8714 H   0  0  0  0  0  0  0  0  0  0  0  0
  1  2  1  0
  1 24  1  0
  1 25  1  0
  2 13  1  0
  2 26  1  1
  2  3  1  0
  3  4  1  0
  3 43  1  0
  4 12  2  0
  4  5  1  0
  5 10  1  0
  5  6  1  0
  5 27  1  6
  6  7  1  0
  6 28  1  0
  6 29  1  0
  7  8  1  0
  7  9  1  0
  7 30  1  6
  8 31  1  0
  9 10  1  0
  9 32  1  0
  9 33  1  0
 10 11  1  0
 11 22  1  0
 11 34  1  1
 11 12  1  0
 12 13  1  0
 13 22  1  0
 13 14  1  1
 14 15  1  0
 14 35  1  0
 14 36  1  0
 15 16  1  0
 15 37  1  0
 15 38  1  0
 16 39  1  0
 16 40  1  0
 16 17  1  0
 17 21  2  0
 17 18  1  0
 18 41  1  0
 18 19  2  0
 19 20  1  0
 20 23  1  0
 20 21  1  0
 21 22  1  0
 22 42  1  6
M  END
>  <i_m_ct_stereo_status>  (328) 
1

>  <s_m_source_file>  (328) 
/var/tmp/pbs.5076255.sched01/tmpbrgkg_oh/138myny07gr.sdf

>  <i_m_source_file_index>  (328) 
9

>  <i_lp_mmshare_version>  (328) 
48012

>  <i_f3d_flags>  (328) 
0

>  <s_epik_input>  (328) 
W05IMl1bQ0BASF0xTj1DKFtDQEBIXTJbQ0BdMTM0KVtDQEBIXTVOKFtDSDJdW0NAQEhdKFtDSDJdNSlbT0hdKVtDQEhdMltDQEhdNGM2YyhbQ0gyXVtDSDJdW0NIMl0zKVtjSF1uW25IXTY=

>  <s_epik_cmdline>  (328) 
J2VwaWtfcHl0aG9uJywgJy1waHQnLCAnMi4wJywgJy1waCcsICc3LjAnLCAnLXRuJywgJzgnLCAnLW1hJywgJzIwMCcsICctaW1hZScsICc8aW5maWxlLm1hZT4nLCAnLW9tYWUnLCAnPG91dGZpbGUubWFlPic=

>  <r_lp_tautomer_probability>  (328) 
4e-06

>  <r_epik_Ionization_Penalty>  (328) 
0.35158

>  <r_epik_Ionization_Penalty_Charging>  (328) 
0.000213843

>  <r_epik_Ionization_Penalty_Neutral>  (328) 
0.351366

>  <r_epik_State_Penalty>  (328) 
0.41068

>  <r_epik_Charging_Adjusted_Penalty>  (328) 
0.410894

>  <i_epik_Tot_Q>  (328) 
0

>  <i_epik_Tot_abs_Q>  (328) 
0

>  <s_epik_Chemistry_Notes>  (328) 
This compound has an imine and may undergo hydrolysis. This compound contains an acetal/aminal-like group ( X-CH(R)-Y where X, Y are N, S, or O) that may be acid/base labile, releasing an aldehyde.

>  <s_lp_Force_Field>  (328) 
OPLS3e

>  <r_lp_Energy>  (328) 
78.1852

>  <b_lp_Chiralities_Consistent>  (328) 
1

>  <s_lp_Variant>  (328) 
92:0-2

>  <s_i_glide_gridfile>  (328) 
pfpi4k_grid

>  <i_i_glide_lignum>  (328) 
9

>  <i_i_glide_rotatable_bonds>  (328) 
1

>  <r_i_docking_score>  (328) 
-4.55343

>  <r_i_glide_ligand_efficiency>  (328) 
-0.206974

>  <r_i_glide_ligand_efficiency_sa>  (328) 
-0.57995

>  <r_i_glide_ligand_efficiency_ln>  (328) 
-1.11303

>  <r_i_glide_gscore>  (328) 
-4.55343

>  <r_i_glide_lipo>  (328) 
-0.529156

>  <r_i_glide_hbond>  (328) 
-0.555262

>  <r_i_glide_metal>  (328) 
-0

>  <r_i_glide_rewards>  (328) 
-1.43637

>  <r_i_glide_evdw>  (328) 
-11.7328

>  <r_i_glide_ecoul>  (328) 
-9.60752

>  <r_i_glide_erotb>  (328) 
0

>  <r_i_glide_esite>  (328) 
-0.00487443

>  <r_i_glide_emodel>  (328) 
-27.1559

>  <r_i_glide_energy>  (328) 
-21.3403

>  <r_i_glide_einternal>  (328) 
0.330274

>  <r_i_glide_intrahb_reward>  (328) 
-0

>  <i_i_glide_confnum>  (328) 
1

>  <i_i_glide_posenum>  (328) 
26

>  <r_i_glide_eff_state_penalty>  (328) 
0

>  <ligand_id>  (328) 
92

>  <original_smiles>  (328) 
NC1N=C2C3CC(O)CN3C3C2C12CCCc1cn[nH]c1C32

>  <smiles>  (328) 
[H]OC1([H])C([H])([H])N2C([H])(C3=C4C2([H])C2([H])c5c(c([H])nn5[H])C([H])([H])C([H])([H])C([H])([H])C42C([H])(N([H])[H])N3[H])C1([H])[H]

$$$$
92:1:1
     RDKit          3D

 43 48  0  0  1  0  0  0  0  0999 V2000
    8.9294   -2.3087    0.4472 N   0  0  0  0  0  0  0  0  0  0  0  0
    8.2931   -3.4082   -0.2478 C   0  0  2  0  0  0  0  0  0  0  0  0
    7.7987   -2.9851   -1.5672 N   0  0  0  0  0  0  0  0  0  0  0  0
    6.4286   -3.1990   -1.6959 C   0  0  0  0  0  0  0  0  0  0  0  0
    5.4332   -2.0642   -2.0406 C   0  0  1  0  0  0  0  0  0  0  0  0
    4.3488   -2.4398   -3.0954 C   0  0  0  0  0  0  0  0  0  0  0  0
    3.0361   -2.3787   -2.2973 C   0  0  1  0  0  0  0  0  0  0  0  0
    2.0360   -3.2807   -2.7133 O   0  0  0  0  0  0  0  0  0  0  0  0
    3.4944   -2.6033   -0.8688 C   0  0  0  0  0  0  0  0  0  0  0  0
    4.7142   -1.8230   -0.7561 N   0  0  0  0  0  0  0  0  0  0  0  0
    5.7213   -2.2709    0.1920 C   0  0  2  0  0  0  0  0  0  0  0  0
    6.0847   -3.5609   -0.4872 C   0  0  0  0  0  0  0  0  0  0  0  0
    7.0692   -3.9464    0.5582 C   0  0  1  0  0  0  0  0  0  0  0  0
    7.1531   -5.4647    0.7822 C   0  0  0  0  0  0  0  0  0  0  0  0
    7.1657   -5.8457    2.2726 C   0  0  0  0  0  0  0  0  0  0  0  0
    5.7699   -6.1186    2.8634 C   0  0  0  0  0  0  0  0  0  0  0  0
    4.7774   -4.9877    2.7312 C   0  0  0  0  0  0  0  0  0  0  0  0
    3.4308   -4.9807    3.2029 C   0  0  0  0  0  0  0  0  0  0  0  0
    2.7754   -3.8606    2.9390 N   0  0  0  0  0  0  0  0  0  0  0  0
    3.7032   -3.1107    2.3196 N   0  0  0  0  0  0  0  0  0  0  0  0
    4.9014   -3.7614    2.1451 C   0  0  0  0  0  0  0  0  0  0  0  0
    6.0100   -3.1283    1.4014 C   0  0  2  0  0  0  0  0  0  0  0  0
    3.4865   -2.1943    1.9499 H   0  0  0  0  0  0  0  0  0  0  0  0
    8.8810   -2.4931    1.4384 H   0  0  0  0  0  0  0  0  0  0  0  0
    9.9189   -2.2434    0.1894 H   0  0  0  0  0  0  0  0  0  0  0  0
    9.0419   -4.1733   -0.4145 H   0  0  0  0  0  0  0  0  0  0  0  0
    5.9685   -1.1444   -2.2920 H   0  0  0  0  0  0  0  0  0  0  0  0
    4.5019   -3.4357   -3.5256 H   0  0  0  0  0  0  0  0  0  0  0  0
    4.2863   -1.7371   -3.9256 H   0  0  0  0  0  0  0  0  0  0  0  0
    2.6410   -1.3624   -2.3393 H   0  0  0  0  0  0  0  0  0  0  0  0
    2.3824   -4.1698   -2.6834 H   0  0  0  0  0  0  0  0  0  0  0  0
    2.7741   -2.2397   -0.1453 H   0  0  0  0  0  0  0  0  0  0  0  0
    3.6598   -3.6713   -0.7039 H   0  0  0  0  0  0  0  0  0  0  0  0
    6.5014   -1.5200    0.2145 H   0  0  0  0  0  0  0  0  0  0  0  0
    6.3236   -5.9638    0.2806 H   0  0  0  0  0  0  0  0  0  0  0  0
    8.0556   -5.8843    0.3315 H   0  0  0  0  0  0  0  0  0  0  0  0
    7.7692   -6.7449    2.4059 H   0  0  0  0  0  0  0  0  0  0  0  0
    7.6677   -5.0620    2.8457 H   0  0  0  0  0  0  0  0  0  0  0  0
    5.3686   -7.0189    2.3937 H   0  0  0  0  0  0  0  0  0  0  0  0
    5.8941   -6.3604    3.9200 H   0  0  0  0  0  0  0  0  0  0  0  0
    2.9127   -5.7788    3.7184 H   0  0  0  0  0  0  0  0  0  0  0  0
    6.5565   -2.4934    2.0961 H   0  0  0  0  0  0  0  0  0  0  0  0
    8.3272   -2.3211   -2.1471 H   0  0  0  0  0  0  0  0  0  0  0  0
  1  2  1  0
  1 24  1  0
  1 25  1  0
  2 13  1  0
  2 26  1  6
  2  3  1  0
  3  4  1  0
  3 43  1  0
  4 12  2  0
  4  5  1  0
  5 10  1  0
  5  6  1  0
  5 27  1  6
  6  7  1  0
  6 28  1  0
  6 29  1  0
  7  8  1  0
  7  9  1  0
  7 30  1  1
  8 31  1  0
  9 10  1  0
  9 32  1  0
  9 33  1  0
 10 11  1  0
 11 22  1  0
 11 34  1  6
 11 12  1  0
 12 13  1  0
 13 22  1  0
 13 14  1  1
 14 15  1  0
 14 35  1  0
 14 36  1  0
 15 16  1  0
 15 37  1  0
 15 38  1  0
 16 39  1  0
 16 40  1  0
 16 17  1  0
 17 21  2  0
 17 18  1  0
 18 41  1  0
 18 19  2  0
 19 20  1  0
 20 23  1  0
 20 21  1  0
 21 22  1  0
 22 42  1  1
M  END
>  <i_m_ct_stereo_status>  (329) 
1

>  <s_m_source_file>  (329) 
/var/tmp/pbs.5076255.sched01/tmpbrgkg_oh/138myny07gr.sdf

>  <i_m_source_file_index>  (329) 
9

>  <i_lp_mmshare_version>  (329) 
48012

>  <i_f3d_flags>  (329) 
0

>  <s_epik_input>  (329) 
W05IMl1bQ0BASF0xTj1DKFtDQEBIXTJbQ0BdMTM0KVtDQEBIXTVOKFtDSDJdW0NAQEhdKFtDSDJdNSlbT0hdKVtDQEhdMltDQEhdNGM2YyhbQ0gyXVtDSDJdW0NIMl0zKVtjSF1uW25IXTY=

>  <s_epik_cmdline>  (329) 
J2VwaWtfcHl0aG9uJywgJy1waHQnLCAnMi4wJywgJy1waCcsICc3LjAnLCAnLXRuJywgJzgnLCAnLW1hJywgJzIwMCcsICctaW1hZScsICc8aW5maWxlLm1hZT4nLCAnLW9tYWUnLCAnPG91dGZpbGUubWFlPic=

>  <r_lp_tautomer_probability>  (329) 
4e-06

>  <r_epik_Ionization_Penalty>  (329) 
0.35158

>  <r_epik_Ionization_Penalty_Charging>  (329) 
0.000213843

>  <r_epik_Ionization_Penalty_Neutral>  (329) 
0.351366

>  <r_epik_State_Penalty>  (329) 
0.41068

>  <r_epik_Charging_Adjusted_Penalty>  (329) 
0.410894

>  <i_epik_Tot_Q>  (329) 
0

>  <i_epik_Tot_abs_Q>  (329) 
0

>  <s_epik_Chemistry_Notes>  (329) 
This compound has an imine and may undergo hydrolysis. This compound contains an acetal/aminal-like group ( X-CH(R)-Y where X, Y are N, S, or O) that may be acid/base labile, releasing an aldehyde.

>  <s_lp_Force_Field>  (329) 
OPLS3e

>  <r_lp_Energy>  (329) 
78.1852

>  <b_lp_Chiralities_Consistent>  (329) 
1

>  <s_lp_Variant>  (329) 
92:0-2

>  <s_i_glide_gridfile>  (329) 
pfpi4k_grid

>  <i_i_glide_lignum>  (329) 
9

>  <i_i_glide_rotatable_bonds>  (329) 
1

>  <r_i_docking_score>  (329) 
-4.16785

>  <r_i_glide_ligand_efficiency>  (329) 
-0.189448

>  <r_i_glide_ligand_efficiency_sa>  (329) 
-0.53084

>  <r_i_glide_ligand_efficiency_ln>  (329) 
-1.01878

>  <r_i_glide_gscore>  (329) 
-4.16785

>  <r_i_glide_lipo>  (329) 
-0.728666

>  <r_i_glide_hbond>  (329) 
-0.35649

>  <r_i_glide_metal>  (329) 
-0

>  <r_i_glide_rewards>  (329) 
-1.5984

>  <r_i_glide_evdw>  (329) 
-25.6123

>  <r_i_glide_ecoul>  (329) 
-0.918945

>  <r_i_glide_erotb>  (329) 
0

>  <r_i_glide_esite>  (329) 
-0.0658342

>  <r_i_glide_emodel>  (329) 
-30.8214

>  <r_i_glide_energy>  (329) 
-26.5313

>  <r_i_glide_einternal>  (329) 
0.00718347

>  <r_i_glide_intrahb_reward>  (329) 
-0

>  <i_i_glide_confnum>  (329) 
1

>  <i_i_glide_posenum>  (329) 
4

>  <r_i_glide_eff_state_penalty>  (329) 
0

>  <ligand_id>  (329) 
92

>  <original_smiles>  (329) 
NC1N=C2C3CC(O)CN3C3C2C12CCCc1cn[nH]c1C32

>  <smiles>  (329) 
[H]OC1([H])C([H])([H])N2C([H])(C3=C4C2([H])C2([H])c5c(c([H])nn5[H])C([H])([H])C([H])([H])C([H])([H])C42C([H])(N([H])[H])N3[H])C1([H])[H]

$$$$
92:1:2
     RDKit          3D

 43 48  0  0  1  0  0  0  0  0999 V2000
    8.6770   -2.3480    0.4100 N   0  0  0  0  0  0  0  0  0  0  0  0
    8.0592   -3.4031   -0.3463 C   0  0  2  0  0  0  0  0  0  0  0  0
    7.6359   -2.9440   -1.6768 N   0  0  0  0  0  0  0  0  0  0  0  0
    6.2872   -3.1135   -1.8719 C   0  0  0  0  0  0  0  0  0  0  0  0
    5.3256   -1.9603   -2.2364 C   0  0  1  0  0  0  0  0  0  0  0  0
    4.3073   -2.2798   -3.3618 C   0  0  0  0  0  0  0  0  0  0  0  0
    2.9716   -2.1950   -2.6249 C   0  0  1  0  0  0  0  0  0  0  0  0
    2.0233   -3.0796   -3.1412 O   0  0  0  0  0  0  0  0  0  0  0  0
    3.3384   -2.5168   -1.1874 C   0  0  0  0  0  0  0  0  0  0  0  0
    4.5458   -1.7557   -0.9688 N   0  0  0  0  0  0  0  0  0  0  0  0
    5.4955   -2.2648    0.0054 C   0  0  2  0  0  0  0  0  0  0  0  0
    5.8720   -3.5222   -0.6851 C   0  0  0  0  0  0  0  0  0  0  0  0
    6.7844   -3.9633    0.3824 C   0  0  1  0  0  0  0  0  0  0  0  0
    6.8294   -5.4912    0.5571 C   0  0  0  0  0  0  0  0  0  0  0  0
    6.7599   -5.9263    2.0253 C   0  0  0  0  0  0  0  0  0  0  0  0
    5.3271   -6.2083    2.5166 C   0  0  0  0  0  0  0  0  0  0  0  0
    4.3489   -5.0536    2.3823 C   0  0  0  0  0  0  0  0  0  0  0  0
    2.9780   -5.0459    2.7743 C   0  0  0  0  0  0  0  0  0  0  0  0
    2.3686   -3.9055    2.5133 N   0  0  0  0  0  0  0  0  0  0  0  0
    3.3336   -3.1424    1.9865 N   0  0  0  0  0  0  0  0  0  0  0  0
    4.5274   -3.8096    1.8606 C   0  0  0  0  0  0  0  0  0  0  0  0
    5.6897   -3.1675    1.2046 C   0  0  2  0  0  0  0  0  0  0  0  0
    3.1567   -2.2163    1.6325 H   0  0  0  0  0  0  0  0  0  0  0  0
    8.5582   -2.5689    1.3934 H   0  0  0  0  0  0  0  0  0  0  0  0
    9.6770   -2.3188    0.2213 H   0  0  0  0  0  0  0  0  0  0  0  0
    8.8071   -4.1873   -0.4882 H   0  0  0  0  0  0  0  0  0  0  0  0
    5.8072   -0.9940   -2.4584 H   0  0  0  0  0  0  0  0  0  0  0  0
    4.4626   -3.2673   -3.7952 H   0  0  0  0  0  0  0  0  0  0  0  0
    4.3074   -1.5599   -4.1684 H   0  0  0  0  0  0  0  0  0  0  0  0
    2.5893   -1.1696   -2.6545 H   0  0  0  0  0  0  0  0  0  0  0  0
    1.2052   -2.9074   -2.6930 H   0  0  0  0  0  0  0  0  0  0  0  0
    2.6046   -2.1924   -0.4710 H   0  0  0  0  0  0  0  0  0  0  0  0
    3.4989   -3.5954   -1.1064 H   0  0  0  0  0  0  0  0  0  0  0  0
    6.2801   -1.5415    0.1263 H   0  0  0  0  0  0  0  0  0  0  0  0
    6.0135   -5.9395   -0.0082 H   0  0  0  0  0  0  0  0  0  0  0  0
    7.7470   -5.9042    0.1314 H   0  0  0  0  0  0  0  0  0  0  0  0
    7.3325   -6.8388    2.1449 H   0  0  0  0  0  0  0  0  0  0  0  0
    7.2315   -5.1766    2.6573 H   0  0  0  0  0  0  0  0  0  0  0  0
    4.9378   -7.0783    1.9805 H   0  0  0  0  0  0  0  0  0  0  0  0
    5.3833   -6.4983    3.5663 H   0  0  0  0  0  0  0  0  0  0  0  0
    2.4250   -5.8506    3.2157 H   0  0  0  0  0  0  0  0  0  0  0  0
    6.2000   -2.5661    1.9630 H   0  0  0  0  0  0  0  0  0  0  0  0
    8.2278   -2.3390   -2.2414 H   0  0  0  0  0  0  0  0  0  0  0  0
  1  2  1  0
  1 24  1  0
  1 25  1  0
  2 13  1  0
  2 26  1  6
  2  3  1  0
  3  4  1  0
  3 43  1  0
  4 12  2  0
  4  5  1  0
  5 10  1  0
  5  6  1  0
  5 27  1  6
  6  7  1  0
  6 28  1  0
  6 29  1  0
  7  8  1  0
  7  9  1  0
  7 30  1  1
  8 31  1  0
  9 10  1  0
  9 32  1  0
  9 33  1  0
 10 11  1  0
 11 22  1  0
 11 34  1  1
 11 12  1  0
 12 13  1  0
 13 22  1  0
 13 14  1  1
 14 15  1  0
 14 35  1  0
 14 36  1  0
 15 16  1  0
 15 37  1  0
 15 38  1  0
 16 39  1  0
 16 40  1  0
 16 17  1  0
 17 21  2  0
 17 18  1  0
 18 41  1  0
 18 19  2  0
 19 20  1  0
 20 23  1  0
 20 21  1  0
 21 22  1  0
 22 42  1  1
M  END
>  <i_m_ct_stereo_status>  (330) 
1

>  <s_m_source_file>  (330) 
/var/tmp/pbs.5076255.sched01/tmpbrgkg_oh/138myny07gr.sdf

>  <i_m_source_file_index>  (330) 
9

>  <i_lp_mmshare_version>  (330) 
48012

>  <i_f3d_flags>  (330) 
0

>  <s_epik_input>  (330) 
W05IMl1bQ0BASF0xTj1DKFtDQEBIXTJbQ0BdMTM0KVtDQEBIXTVOKFtDSDJdW0NAQEhdKFtDSDJdNSlbT0hdKVtDQEhdMltDQEhdNGM2YyhbQ0gyXVtDSDJdW0NIMl0zKVtjSF1uW25IXTY=

>  <s_epik_cmdline>  (330) 
J2VwaWtfcHl0aG9uJywgJy1waHQnLCAnMi4wJywgJy1waCcsICc3LjAnLCAnLXRuJywgJzgnLCAnLW1hJywgJzIwMCcsICctaW1hZScsICc8aW5maWxlLm1hZT4nLCAnLW9tYWUnLCAnPG91dGZpbGUubWFlPic=

>  <r_lp_tautomer_probability>  (330) 
4e-06

>  <r_epik_Ionization_Penalty>  (330) 
0.35158

>  <r_epik_Ionization_Penalty_Charging>  (330) 
0.000213843

>  <r_epik_Ionization_Penalty_Neutral>  (330) 
0.351366

>  <r_epik_State_Penalty>  (330) 
0.41068

>  <r_epik_Charging_Adjusted_Penalty>  (330) 
0.410894

>  <i_epik_Tot_Q>  (330) 
0

>  <i_epik_Tot_abs_Q>  (330) 
0

>  <s_epik_Chemistry_Notes>  (330) 
This compound has an imine and may undergo hydrolysis. This compound contains an acetal/aminal-like group ( X-CH(R)-Y where X, Y are N, S, or O) that may be acid/base labile, releasing an aldehyde.

>  <s_lp_Force_Field>  (330) 
OPLS3e

>  <r_lp_Energy>  (330) 
78.1852

>  <b_lp_Chiralities_Consistent>  (330) 
1

>  <s_lp_Variant>  (330) 
92:0-2

>  <s_i_glide_gridfile>  (330) 
pfpi4k_grid

>  <i_i_glide_lignum>  (330) 
9

>  <i_i_glide_rotatable_bonds>  (330) 
1

>  <r_i_docking_score>  (330) 
-3.52961

>  <r_i_glide_ligand_efficiency>  (330) 
-0.160437

>  <r_i_glide_ligand_efficiency_sa>  (330) 
-0.44955

>  <r_i_glide_ligand_efficiency_ln>  (330) 
-0.862765

>  <r_i_glide_gscore>  (330) 
-3.52961

>  <r_i_glide_lipo>  (330) 
-0.686715

>  <r_i_glide_hbond>  (330) 
-0.0306136

>  <r_i_glide_metal>  (330) 
-0

>  <r_i_glide_rewards>  (330) 
-1.67308

>  <r_i_glide_evdw>  (330) 
-25.8469

>  <r_i_glide_ecoul>  (330) 
1.42028

>  <r_i_glide_erotb>  (330) 
0

>  <r_i_glide_esite>  (330) 
-0.0598994

>  <r_i_glide_emodel>  (330) 
-27.0994

>  <r_i_glide_energy>  (330) 
-24.4266

>  <r_i_glide_einternal>  (330) 
0.32642

>  <r_i_glide_intrahb_reward>  (330) 
-0

>  <i_i_glide_confnum>  (330) 
1

>  <i_i_glide_posenum>  (330) 
1

>  <r_i_glide_eff_state_penalty>  (330) 
0

>  <ligand_id>  (330) 
92

>  <original_smiles>  (330) 
NC1N=C2C3CC(O)CN3C3C2C12CCCc1cn[nH]c1C32

>  <smiles>  (330) 
[H]OC1([H])C([H])([H])N2C([H])(C3=C4C2([H])C2([H])c5c(c([H])nn5[H])C([H])([H])C([H])([H])C([H])([H])C42C([H])(N([H])[H])N3[H])C1([H])[H]

$$$$
93:0:0
     RDKit          3D

 53 55  0  0  1  0  0  0  0  0999 V2000
    4.7269   -4.4989   -4.5081 C   0  0  0  0  0  0  0  0  0  0  0  0
    3.9752   -3.3299   -4.3229 O   0  0  0  0  0  0  0  0  0  0  0  0
    4.1385   -2.7302   -3.1010 C   0  0  0  0  0  0  0  0  0  0  0  0
    4.2311   -3.4589   -1.8931 C   0  0  0  0  0  0  0  0  0  0  0  0
    4.2421   -2.7874   -0.6678 C   0  0  0  0  0  0  0  0  0  0  0  0
    4.2687   -1.3852   -0.6598 C   0  0  0  0  0  0  0  0  0  0  0  0
    4.3406   -0.6512    0.6591 C   0  0  0  0  0  0  0  0  0  0  0  0
    2.9809   -0.3543    1.2021 N   0  0  1  0  0  0  0  0  0  0  0  0
    2.3023   -1.4786    1.8626 C   0  0  0  0  0  0  0  0  0  0  0  0
    1.1494   -0.8460    2.6573 C   0  0  0  0  0  0  0  0  0  0  0  0
    1.6216    0.6150    2.9338 C   0  0  2  0  0  0  0  0  0  0  0  0
    1.7177    0.9630    4.4510 C   0  0  0  0  0  0  0  0  0  0  0  0
    0.6854    2.0783    4.6743 C   0  0  0  0  0  0  0  0  0  0  0  0
   -0.2466    1.9510    3.5384 N   0  0  1  0  0  0  0  0  0  0  0  0
   -1.1653    3.1231    3.3637 C   0  0  0  0  0  0  0  0  0  0  0  0
   -2.5413    2.6542    2.9011 C   0  0  0  0  0  0  0  0  0  0  0  0
   -3.3711    3.7706    2.6706 O   0  0  0  0  0  0  0  0  0  0  0  0
    0.6165    1.6257    2.3639 C   0  0  0  0  0  0  0  0  0  0  0  0
    2.9667    0.7356    2.1892 C   0  0  0  0  0  0  0  0  0  0  0  0
    4.2509   -0.6523   -1.8717 C   0  0  0  0  0  0  0  0  0  0  0  0
    4.1674   -1.3285   -3.1017 C   0  0  0  0  0  0  0  0  0  0  0  0
    4.1439   -0.6973   -4.3303 O   0  0  0  0  0  0  0  0  0  0  0  0
    3.6548    0.6353   -4.3966 C   0  0  0  0  0  0  0  0  0  0  0  0
    4.6281   -4.8617   -5.5282 H   0  0  0  0  0  0  0  0  0  0  0  0
    4.3733   -5.3462   -3.9266 H   0  0  0  0  0  0  0  0  0  0  0  0
    5.7606   -4.2186   -4.3041 H   0  0  0  0  0  0  0  0  0  0  0  0
    4.2526   -4.5429   -1.8989 H   0  0  0  0  0  0  0  0  0  0  0  0
    4.2235   -3.3637    0.2494 H   0  0  0  0  0  0  0  0  0  0  0  0
    4.9434   -1.2329    1.3717 H   0  0  0  0  0  0  0  0  0  0  0  0
    4.9260    0.2618    0.4973 H   0  0  0  0  0  0  0  0  0  0  0  0
    1.9611   -2.2616    1.1754 H   0  0  0  0  0  0  0  0  0  0  0  0
    2.9776   -1.9124    2.5917 H   0  0  0  0  0  0  0  0  0  0  0  0
    0.2347   -0.8685    2.0452 H   0  0  0  0  0  0  0  0  0  0  0  0
    0.9600   -1.4538    3.5500 H   0  0  0  0  0  0  0  0  0  0  0  0
    1.4403    0.1200    5.0913 H   0  0  0  0  0  0  0  0  0  0  0  0
    2.7197    1.3078    4.7649 H   0  0  0  0  0  0  0  0  0  0  0  0
    0.1503    1.9294    5.5994 H   0  0  0  0  0  0  0  0  0  0  0  0
    1.1697    3.0602    4.6266 H   0  0  0  0  0  0  0  0  0  0  0  0
   -1.3047    3.6319    4.3103 H   0  0  0  0  0  0  0  0  0  0  0  0
   -0.7738    3.8923    2.6885 H   0  0  0  0  0  0  0  0  0  0  0  0
   -2.4962    2.0303    1.9998 H   0  0  0  0  0  0  0  0  0  0  0  0
   -2.9933    2.0703    3.6986 H   0  0  0  0  0  0  0  0  0  0  0  0
   -4.1941    3.4589    2.3150 H   0  0  0  0  0  0  0  0  0  0  0  0
    1.0609    2.5850    2.0928 H   0  0  0  0  0  0  0  0  0  0  0  0
    0.0009    1.2453    1.5469 H   0  0  0  0  0  0  0  0  0  0  0  0
    3.7962    0.5832    2.8745 H   0  0  0  0  0  0  0  0  0  0  0  0
    3.1363    1.7146    1.7263 H   0  0  0  0  0  0  0  0  0  0  0  0
    4.2740    0.4138   -1.8983 H   0  0  0  0  0  0  0  0  0  0  0  0
    3.7045    1.0096   -5.4160 H   0  0  0  0  0  0  0  0  0  0  0  0
    4.2171    1.3411   -3.7824 H   0  0  0  0  0  0  0  0  0  0  0  0
    2.6078    0.6235   -4.1009 H   0  0  0  0  0  0  0  0  0  0  0  0
   -0.8138    1.1088    3.6546 H   0  0  0  0  0  0  0  0  0  0  0  0
    2.3626   -0.0917    0.4466 H   0  0  0  0  0  0  0  0  0  0  0  0
  1  2  1  0
  1 24  1  0
  1 25  1  0
  1 26  1  0
  2  3  1  0
  3 21  2  0
  3  4  1  0
  4  5  2  0
  4 27  1  0
  5  6  1  0
  5 28  1  0
  6  7  1  0
  6 20  2  0
  7  8  1  0
  7 29  1  0
  7 30  1  0
  8 19  1  0
  8  9  1  0
  8 53  1  6
  9 10  1  0
  9 31  1  0
  9 32  1  0
 11 10  1  1
 10 33  1  0
 10 34  1  0
 11 18  1  0
 11 12  1  0
 11 19  1  0
 12 13  1  0
 12 35  1  0
 12 36  1  0
 13 14  1  0
 13 37  1  0
 13 38  1  0
 14 15  1  0
 14 18  1  0
 14 52  1  1
 15 16  1  0
 15 39  1  0
 15 40  1  0
 16 17  1  0
 16 41  1  0
 16 42  1  0
 17 43  1  0
 18 44  1  0
 18 45  1  0
 19 46  1  0
 19 47  1  0
 20 21  1  0
 20 48  1  0
 21 22  1  0
 22 23  1  0
 23 49  1  0
 23 50  1  0
 23 51  1  0
M  CHG  2   8   1  14   1
M  END
>  <i_m_ct_stereo_status>  (331) 
1

>  <s_m_source_file>  (331) 
/var/tmp/pbs.5076255.sched01/tmpbrgkg_oh/138myny07gr.sdf

>  <i_m_source_file_index>  (331) 
10

>  <i_lp_mmshare_version>  (331) 
48012

>  <i_f3d_flags>  (331) 
0

>  <s_epik_input>  (331) 
W0NIM11PYzFbY0hdW2NIXWMoW2NIXWMxT1tDSDNdKVtDSDJdTihbQ0gyXTIpW0NIMl1bQ0gyXVtDQEBdMjNbQ0gyXVtDSDJdTihbQ0gyXTMpW0NIMl1bQ0gyXVtPSF0=

>  <s_epik_cmdline>  (331) 
J2VwaWtfcHl0aG9uJywgJy1waHQnLCAnMi4wJywgJy1waCcsICc3LjAnLCAnLXRuJywgJzgnLCAnLW1hJywgJzIwMCcsICctaW1hZScsICc8aW5maWxlLm1hZT4nLCAnLW9tYWUnLCAnPG91dGZpbGUubWFlPic=

>  <r_lp_tautomer_probability>  (331) 
1

>  <r_epik_Ionization_Penalty>  (331) 
0.080897

>  <r_epik_Ionization_Penalty_Charging>  (331) 
0.0808959

>  <r_epik_Ionization_Penalty_Neutral>  (331) 
1.11238e-06

>  <r_epik_State_Penalty>  (331) 
0.0628308

>  <r_epik_Charging_Adjusted_Penalty>  (331) 
0.143727

>  <i_epik_Tot_Q>  (331) 
2

>  <i_epik_Tot_abs_Q>  (331) 
2

>  <s_lp_Force_Field>  (331) 
OPLS3e

>  <r_lp_Energy>  (331) 
40.7466

>  <b_lp_Chiralities_Consistent>  (331) 
1

>  <s_lp_Variant>  (331) 
93:0-1

>  <s_i_glide_gridfile>  (331) 
pfpi4k_grid

>  <i_i_glide_lignum>  (331) 
10

>  <i_i_glide_rotatable_bonds>  (331) 
7

>  <r_i_docking_score>  (331) 
-4.01932

>  <r_i_glide_ligand_efficiency>  (331) 
-0.174753

>  <r_i_glide_ligand_efficiency_sa>  (331) 
-0.496975

>  <r_i_glide_ligand_efficiency_ln>  (331) 
-0.971909

>  <r_i_glide_gscore>  (331) 
-4.01932

>  <r_i_glide_lipo>  (331) 
-0.327135

>  <r_i_glide_hbond>  (331) 
-0.271859

>  <r_i_glide_metal>  (331) 
-0

>  <r_i_glide_rewards>  (331) 
-1.21062

>  <r_i_glide_evdw>  (331) 
-22.284

>  <r_i_glide_ecoul>  (331) 
-11.4888

>  <r_i_glide_erotb>  (331) 
0.71946

>  <r_i_glide_esite>  (331) 
-0.0916443

>  <r_i_glide_emodel>  (331) 
-40.3679

>  <r_i_glide_energy>  (331) 
-33.7728

>  <r_i_glide_einternal>  (331) 
5.87025

>  <r_i_glide_intrahb_reward>  (331) 
-0

>  <i_i_glide_confnum>  (331) 
3

>  <i_i_glide_posenum>  (331) 
16

>  <r_i_glide_eff_state_penalty>  (331) 
0

>  <ligand_id>  (331) 
93

>  <original_smiles>  (331) 
COc1ccc(CN2CCC3(CCN(CCO)C3)C2)cc1OC

>  <smiles>  (331) 
[H]OC([H])([H])C([H])([H])[N+]1([H])C([H])([H])C([H])([H])C2(C([H])([H])C([H])([H])[N+]([H])(C([H])([H])c3c([H])c([H])c(OC([H])([H])[H])c(OC([H])([H])[H])c3[H])C2([H])[H])C1([H])[H]

$$$$
93:0:1
     RDKit          3D

 53 55  0  0  1  0  0  0  0  0999 V2000
   -1.0372   -7.4735    2.4705 C   0  0  0  0  0  0  0  0  0  0  0  0
   -0.2373   -6.7977    3.4336 O   0  0  0  0  0  0  0  0  0  0  0  0
    1.0248   -6.4222    3.0323 C   0  0  0  0  0  0  0  0  0  0  0  0
    1.3701   -5.0646    3.1633 C   0  0  0  0  0  0  0  0  0  0  0  0
    2.6447   -4.6083    2.7818 C   0  0  0  0  0  0  0  0  0  0  0  0
    3.5945   -5.5171    2.2924 C   0  0  0  0  0  0  0  0  0  0  0  0
    4.9873   -5.0465    1.9061 C   0  0  0  0  0  0  0  0  0  0  0  0
    4.9622   -3.9978    0.8617 N   0  0  1  0  0  0  0  0  0  0  0  0
    6.2983   -3.5410    0.4632 C   0  0  0  0  0  0  0  0  0  0  0  0
    6.0712   -2.7409   -0.8160 C   0  0  0  0  0  0  0  0  0  0  0  0
    4.7651   -3.3219   -1.4176 C   0  0  2  0  0  0  0  0  0  0  0  0
    5.0157   -3.8905   -2.8354 C   0  0  0  0  0  0  0  0  0  0  0  0
    4.1228   -3.0573   -3.7523 C   0  0  0  0  0  0  0  0  0  0  0  0
    3.9058   -1.8016   -3.0123 N   0  0  1  0  0  0  0  0  0  0  0  0
    2.8443   -0.9412   -3.5677 C   0  0  0  0  0  0  0  0  0  0  0  0
    3.4080    0.0052   -4.6315 C   0  0  0  0  0  0  0  0  0  0  0  0
    2.4051    0.8622   -5.1100 O   0  0  0  0  0  0  0  0  0  0  0  0
    3.7021   -2.2255   -1.5978 C   0  0  0  0  0  0  0  0  0  0  0  0
    4.2965   -4.3811   -0.3959 C   0  0  0  0  0  0  0  0  0  0  0  0
    3.2656   -6.8805    2.1789 C   0  0  0  0  0  0  0  0  0  0  0  0
    1.9873   -7.3518    2.5655 C   0  0  0  0  0  0  0  0  0  0  0  0
    1.6334   -8.6861    2.5462 O   0  0  0  0  0  0  0  0  0  0  0  0
    2.5611   -9.6385    2.0569 C   0  0  0  0  0  0  0  0  0  0  0  0
   -1.9642   -7.8114    2.9367 H   0  0  0  0  0  0  0  0  0  0  0  0
   -0.5806   -8.3488    2.0074 H   0  0  0  0  0  0  0  0  0  0  0  0
   -1.2832   -6.7735    1.6825 H   0  0  0  0  0  0  0  0  0  0  0  0
    0.6382   -4.3674    3.5477 H   0  0  0  0  0  0  0  0  0  0  0  0
    2.8704   -3.5536    2.8724 H   0  0  0  0  0  0  0  0  0  0  0  0
    5.4988   -4.6608    2.7887 H   0  0  0  0  0  0  0  0  0  0  0  0
    5.5742   -5.8930    1.5508 H   0  0  0  0  0  0  0  0  0  0  0  0
    6.8116   -2.9698    1.2390 H   0  0  0  0  0  0  0  0  0  0  0  0
    6.9042   -4.4115    0.2164 H   0  0  0  0  0  0  0  0  0  0  0  0
    5.9723   -1.6793   -0.5739 H   0  0  0  0  0  0  0  0  0  0  0  0
    6.9407   -2.8407   -1.4733 H   0  0  0  0  0  0  0  0  0  0  0  0
    6.0622   -3.7678   -3.1367 H   0  0  0  0  0  0  0  0  0  0  0  0
    4.7888   -4.9583   -2.9299 H   0  0  0  0  0  0  0  0  0  0  0  0
    4.5610   -2.8740   -4.7221 H   0  0  0  0  0  0  0  0  0  0  0  0
    3.1736   -3.5798   -3.8961 H   0  0  0  0  0  0  0  0  0  0  0  0
    2.0783   -1.5796   -4.0029 H   0  0  0  0  0  0  0  0  0  0  0  0
    2.3777   -0.3572   -2.7718 H   0  0  0  0  0  0  0  0  0  0  0  0
    4.2105    0.6222   -4.2166 H   0  0  0  0  0  0  0  0  0  0  0  0
    3.8156   -0.5545   -5.4714 H   0  0  0  0  0  0  0  0  0  0  0  0
    2.1338    1.4282   -4.3913 H   0  0  0  0  0  0  0  0  0  0  0  0
    2.6856   -2.6100   -1.5285 H   0  0  0  0  0  0  0  0  0  0  0  0
    3.8053   -1.3853   -0.9173 H   0  0  0  0  0  0  0  0  0  0  0  0
    4.6366   -5.3786   -0.6888 H   0  0  0  0  0  0  0  0  0  0  0  0
    3.2073   -4.4461   -0.2973 H   0  0  0  0  0  0  0  0  0  0  0  0
    4.0194   -7.5624    1.8184 H   0  0  0  0  0  0  0  0  0  0  0  0
    2.0896  -10.6178    2.0796 H   0  0  0  0  0  0  0  0  0  0  0  0
    3.4506   -9.6862    2.6844 H   0  0  0  0  0  0  0  0  0  0  0  0
    2.8475   -9.4352    1.0249 H   0  0  0  0  0  0  0  0  0  0  0  0
    4.7619   -1.2630   -2.9920 H   0  0  0  0  0  0  0  0  0  0  0  0
    4.4610   -3.2020    1.2261 H   0  0  0  0  0  0  0  0  0  0  0  0
  1  2  1  0
  1 24  1  0
  1 25  1  0
  1 26  1  0
  2  3  1  0
  3 21  2  0
  3  4  1  0
  4  5  2  0
  4 27  1  0
  5  6  1  0
  5 28  1  0
  6  7  1  0
  6 20  2  0
  7  8  1  0
  7 29  1  0
  7 30  1  0
  8 19  1  0
  8  9  1  0
  8 53  1  1
  9 10  1  0
  9 31  1  0
  9 32  1  0
 11 10  1  1
 10 33  1  0
 10 34  1  0
 11 18  1  0
 11 12  1  0
 11 19  1  0
 12 13  1  0
 12 35  1  0
 12 36  1  0
 13 14  1  0
 13 37  1  0
 13 38  1  0
 14 15  1  0
 14 18  1  0
 14 52  1  1
 15 16  1  0
 15 39  1  0
 15 40  1  0
 16 17  1  0
 16 41  1  0
 16 42  1  0
 17 43  1  0
 18 44  1  0
 18 45  1  0
 19 46  1  0
 19 47  1  0
 20 21  1  0
 20 48  1  0
 21 22  1  0
 22 23  1  0
 23 49  1  0
 23 50  1  0
 23 51  1  0
M  CHG  2   8   1  14   1
M  END
>  <i_m_ct_stereo_status>  (332) 
1

>  <s_m_source_file>  (332) 
/var/tmp/pbs.5076255.sched01/tmpbrgkg_oh/138myny07gr.sdf

>  <i_m_source_file_index>  (332) 
10

>  <i_lp_mmshare_version>  (332) 
48012

>  <i_f3d_flags>  (332) 
0

>  <s_epik_input>  (332) 
W0NIM11PYzFbY0hdW2NIXWMoW2NIXWMxT1tDSDNdKVtDSDJdTihbQ0gyXTIpW0NIMl1bQ0gyXVtDQEBdMjNbQ0gyXVtDSDJdTihbQ0gyXTMpW0NIMl1bQ0gyXVtPSF0=

>  <s_epik_cmdline>  (332) 
J2VwaWtfcHl0aG9uJywgJy1waHQnLCAnMi4wJywgJy1waCcsICc3LjAnLCAnLXRuJywgJzgnLCAnLW1hJywgJzIwMCcsICctaW1hZScsICc8aW5maWxlLm1hZT4nLCAnLW9tYWUnLCAnPG91dGZpbGUubWFlPic=

>  <r_lp_tautomer_probability>  (332) 
1

>  <r_epik_Ionization_Penalty>  (332) 
0.080897

>  <r_epik_Ionization_Penalty_Charging>  (332) 
0.0808959

>  <r_epik_Ionization_Penalty_Neutral>  (332) 
1.11238e-06

>  <r_epik_State_Penalty>  (332) 
0.0628308

>  <r_epik_Charging_Adjusted_Penalty>  (332) 
0.143727

>  <i_epik_Tot_Q>  (332) 
2

>  <i_epik_Tot_abs_Q>  (332) 
2

>  <s_lp_Force_Field>  (332) 
OPLS3e

>  <r_lp_Energy>  (332) 
40.7466

>  <b_lp_Chiralities_Consistent>  (332) 
1

>  <s_lp_Variant>  (332) 
93:0-1

>  <s_i_glide_gridfile>  (332) 
pfpi4k_grid

>  <i_i_glide_lignum>  (332) 
10

>  <i_i_glide_rotatable_bonds>  (332) 
7

>  <r_i_docking_score>  (332) 
-3.88667

>  <r_i_glide_ligand_efficiency>  (332) 
-0.168986

>  <r_i_glide_ligand_efficiency_sa>  (332) 
-0.480573

>  <r_i_glide_ligand_efficiency_ln>  (332) 
-0.939832

>  <r_i_glide_gscore>  (332) 
-3.88667

>  <r_i_glide_lipo>  (332) 
-0.67686

>  <r_i_glide_hbond>  (332) 
-0.379185

>  <r_i_glide_metal>  (332) 
-0

>  <r_i_glide_rewards>  (332) 
-1.21062

>  <r_i_glide_evdw>  (332) 
-25.4534

>  <r_i_glide_ecoul>  (332) 
-7.11199

>  <r_i_glide_erotb>  (332) 
0.71946

>  <r_i_glide_esite>  (332) 
0

>  <r_i_glide_emodel>  (332) 
-37.8322

>  <r_i_glide_energy>  (332) 
-32.5654

>  <r_i_glide_einternal>  (332) 
9.37031

>  <r_i_glide_intrahb_reward>  (332) 
-0

>  <i_i_glide_confnum>  (332) 
5

>  <i_i_glide_posenum>  (332) 
3

>  <r_i_glide_eff_state_penalty>  (332) 
0

>  <ligand_id>  (332) 
93

>  <original_smiles>  (332) 
COc1ccc(CN2CCC3(CCN(CCO)C3)C2)cc1OC

>  <smiles>  (332) 
[H]OC([H])([H])C([H])([H])[N+]1([H])C([H])([H])C([H])([H])C2(C([H])([H])C([H])([H])[N+]([H])(C([H])([H])c3c([H])c([H])c(OC([H])([H])[H])c(OC([H])([H])[H])c3[H])C2([H])[H])C1([H])[H]

$$$$
93:0:2
     RDKit          3D

 53 55  0  0  1  0  0  0  0  0999 V2000
   -1.2717    3.1976    8.1303 C   0  0  0  0  0  0  0  0  0  0  0  0
   -1.4858    2.0436    7.3278 O   0  0  0  0  0  0  0  0  0  0  0  0
   -0.3888    1.4199    6.7717 C   0  0  0  0  0  0  0  0  0  0  0  0
    0.9443    1.8736    6.9383 C   0  0  0  0  0  0  0  0  0  0  0  0
    2.0128    1.1746    6.3543 C   0  0  0  0  0  0  0  0  0  0  0  0
    1.7722    0.0121    5.6065 C   0  0  0  0  0  0  0  0  0  0  0  0
    2.9423   -0.7376    4.9998 C   0  0  0  0  0  0  0  0  0  0  0  0
    2.9034   -0.7106    3.5257 N   0  0  1  0  0  0  0  0  0  0  0  0
    2.8529    0.6297    2.9186 C   0  0  0  0  0  0  0  0  0  0  0  0
    3.1895    0.4011    1.4526 C   0  0  0  0  0  0  0  0  0  0  0  0
    4.0373   -0.8931    1.4362 C   0  0  2  0  0  0  0  0  0  0  0  0
    5.4536   -0.6451    0.8449 C   0  0  0  0  0  0  0  0  0  0  0  0
    5.5138   -1.5088   -0.4120 C   0  0  0  0  0  0  0  0  0  0  0  0
    4.0946   -1.7506   -0.7647 N   0  0  1  0  0  0  0  0  0  0  0  0
    3.9104   -2.8187   -1.7773 C   0  0  0  0  0  0  0  0  0  0  0  0
    2.6556   -2.5645   -2.6082 C   0  0  0  0  0  0  0  0  0  0  0  0
    2.6604   -3.4587   -3.7008 O   0  0  0  0  0  0  0  0  0  0  0  0
    3.4157   -1.9470    0.5116 C   0  0  0  0  0  0  0  0  0  0  0  0
    4.0615   -1.3687    2.8959 C   0  0  0  0  0  0  0  0  0  0  0  0
    0.4544   -0.4352    5.4133 C   0  0  0  0  0  0  0  0  0  0  0  0
   -0.6363    0.2641    5.9961 C   0  0  0  0  0  0  0  0  0  0  0  0
   -1.9493   -0.1317    5.8792 O   0  0  0  0  0  0  0  0  0  0  0  0
   -2.2788   -1.0532    4.8559 C   0  0  0  0  0  0  0  0  0  0  0  0
   -2.2330    3.5695    8.4824 H   0  0  0  0  0  0  0  0  0  0  0  0
   -0.7961    4.0003    7.5652 H   0  0  0  0  0  0  0  0  0  0  0  0
   -0.6661    2.9641    9.0065 H   0  0  0  0  0  0  0  0  0  0  0  0
    1.1743    2.7538    7.5210 H   0  0  0  0  0  0  0  0  0  0  0  0
    3.0179    1.5366    6.4940 H   0  0  0  0  0  0  0  0  0  0  0  0
    3.8779   -0.2894    5.3445 H   0  0  0  0  0  0  0  0  0  0  0  0
    2.9507   -1.7679    5.3642 H   0  0  0  0  0  0  0  0  0  0  0  0
    1.8971    1.1377    3.0517 H   0  0  0  0  0  0  0  0  0  0  0  0
    3.6352    1.2420    3.3643 H   0  0  0  0  0  0  0  0  0  0  0  0
    2.2627    0.2916    0.8818 H   0  0  0  0  0  0  0  0  0  0  0  0
    3.7098    1.2760    1.0606 H   0  0  0  0  0  0  0  0  0  0  0  0
    5.5888    0.4017    0.5501 H   0  0  0  0  0  0  0  0  0  0  0  0
    6.2760   -0.8901    1.5357 H   0  0  0  0  0  0  0  0  0  0  0  0
    6.0325   -1.0167   -1.2224 H   0  0  0  0  0  0  0  0  0  0  0  0
    5.9923   -2.4627   -0.1807 H   0  0  0  0  0  0  0  0  0  0  0  0
    4.7653   -2.8156   -2.4399 H   0  0  0  0  0  0  0  0  0  0  0  0
    3.8850   -3.8047   -1.3128 H   0  0  0  0  0  0  0  0  0  0  0  0
    1.7489   -2.7010   -2.0204 H   0  0  0  0  0  0  0  0  0  0  0  0
    2.6391   -1.5485   -2.9988 H   0  0  0  0  0  0  0  0  0  0  0  0
    2.5458   -4.3374   -3.3794 H   0  0  0  0  0  0  0  0  0  0  0  0
    3.6404   -2.9635    0.8536 H   0  0  0  0  0  0  0  0  0  0  0  0
    2.3247   -1.8631    0.4389 H   0  0  0  0  0  0  0  0  0  0  0  0
    4.9723   -1.0194    3.3930 H   0  0  0  0  0  0  0  0  0  0  0  0
    4.0420   -2.4587    3.0207 H   0  0  0  0  0  0  0  0  0  0  0  0
    0.2887   -1.3214    4.8228 H   0  0  0  0  0  0  0  0  0  0  0  0
   -3.3500   -1.2393    4.8797 H   0  0  0  0  0  0  0  0  0  0  0  0
   -1.7804   -2.0114    4.9922 H   0  0  0  0  0  0  0  0  0  0  0  0
   -2.0289   -0.6479    3.8736 H   0  0  0  0  0  0  0  0  0  0  0  0
    3.7151   -0.8848   -1.1523 H   0  0  0  0  0  0  0  0  0  0  0  0
    2.0773   -1.2011    3.2138 H   0  0  0  0  0  0  0  0  0  0  0  0
  1  2  1  0
  1 24  1  0
  1 25  1  0
  1 26  1  0
  2  3  1  0
  3 21  2  0
  3  4  1  0
  4  5  2  0
  4 27  1  0
  5  6  1  0
  5 28  1  0
  6  7  1  0
  6 20  2  0
  7  8  1  0
  7 29  1  0
  7 30  1  0
  8 19  1  0
  8  9  1  0
  8 53  1  6
  9 10  1  0
  9 31  1  0
  9 32  1  0
 11 10  1  1
 10 33  1  0
 10 34  1  0
 11 18  1  0
 11 12  1  0
 11 19  1  0
 12 13  1  0
 12 35  1  0
 12 36  1  0
 13 14  1  0
 13 37  1  0
 13 38  1  0
 14 15  1  0
 14 18  1  0
 14 52  1  6
 15 16  1  0
 15 39  1  0
 15 40  1  0
 16 17  1  0
 16 41  1  0
 16 42  1  0
 17 43  1  0
 18 44  1  0
 18 45  1  0
 19 46  1  0
 19 47  1  0
 20 21  1  0
 20 48  1  0
 21 22  1  0
 22 23  1  0
 23 49  1  0
 23 50  1  0
 23 51  1  0
M  CHG  2   8   1  14   1
M  END
>  <i_m_ct_stereo_status>  (333) 
1

>  <s_m_source_file>  (333) 
/var/tmp/pbs.5076255.sched01/tmpbrgkg_oh/138myny07gr.sdf

>  <i_m_source_file_index>  (333) 
10

>  <i_lp_mmshare_version>  (333) 
48012

>  <i_f3d_flags>  (333) 
0

>  <s_epik_input>  (333) 
W0NIM11PYzFbY0hdW2NIXWMoW2NIXWMxT1tDSDNdKVtDSDJdTihbQ0gyXTIpW0NIMl1bQ0gyXVtDQEBdMjNbQ0gyXVtDSDJdTihbQ0gyXTMpW0NIMl1bQ0gyXVtPSF0=

>  <s_epik_cmdline>  (333) 
J2VwaWtfcHl0aG9uJywgJy1waHQnLCAnMi4wJywgJy1waCcsICc3LjAnLCAnLXRuJywgJzgnLCAnLW1hJywgJzIwMCcsICctaW1hZScsICc8aW5maWxlLm1hZT4nLCAnLW9tYWUnLCAnPG91dGZpbGUubWFlPic=

>  <r_lp_tautomer_probability>  (333) 
1

>  <r_epik_Ionization_Penalty>  (333) 
0.080897

>  <r_epik_Ionization_Penalty_Charging>  (333) 
0.0808959

>  <r_epik_Ionization_Penalty_Neutral>  (333) 
1.11238e-06

>  <r_epik_State_Penalty>  (333) 
0.0628308

>  <r_epik_Charging_Adjusted_Penalty>  (333) 
0.143727

>  <i_epik_Tot_Q>  (333) 
2

>  <i_epik_Tot_abs_Q>  (333) 
2

>  <s_lp_Force_Field>  (333) 
OPLS3e

>  <r_lp_Energy>  (333) 
40.7466

>  <b_lp_Chiralities_Consistent>  (333) 
1

>  <s_lp_Variant>  (333) 
93:0-1

>  <s_i_glide_gridfile>  (333) 
pfpi4k_grid

>  <i_i_glide_lignum>  (333) 
10

>  <i_i_glide_rotatable_bonds>  (333) 
7

>  <r_i_docking_score>  (333) 
-3.86987

>  <r_i_glide_ligand_efficiency>  (333) 
-0.168255

>  <r_i_glide_ligand_efficiency_sa>  (333) 
-0.478496

>  <r_i_glide_ligand_efficiency_ln>  (333) 
-0.93577

>  <r_i_glide_gscore>  (333) 
-3.86987

>  <r_i_glide_lipo>  (333) 
-0.295122

>  <r_i_glide_hbond>  (333) 
-0.450289

>  <r_i_glide_metal>  (333) 
-0

>  <r_i_glide_rewards>  (333) 
-1.21062

>  <r_i_glide_evdw>  (333) 
-19.2893

>  <r_i_glide_ecoul>  (333) 
-10.8683

>  <r_i_glide_erotb>  (333) 
0.71946

>  <r_i_glide_esite>  (333) 
-0.0385863

>  <r_i_glide_emodel>  (333) 
-37.9744

>  <r_i_glide_energy>  (333) 
-30.1576

>  <r_i_glide_einternal>  (333) 
4.28459

>  <r_i_glide_intrahb_reward>  (333) 
-0

>  <i_i_glide_confnum>  (333) 
3

>  <i_i_glide_posenum>  (333) 
15

>  <r_i_glide_eff_state_penalty>  (333) 
0

>  <ligand_id>  (333) 
93

>  <original_smiles>  (333) 
COc1ccc(CN2CCC3(CCN(CCO)C3)C2)cc1OC

>  <smiles>  (333) 
[H]OC([H])([H])C([H])([H])[N+]1([H])C([H])([H])C([H])([H])C2(C([H])([H])C([H])([H])[N+]([H])(C([H])([H])c3c([H])c([H])c(OC([H])([H])[H])c(OC([H])([H])[H])c3[H])C2([H])[H])C1([H])[H]

$$$$
93:1:0
     RDKit          3D

 52 54  0  0  1  0  0  0  0  0999 V2000
   -1.3037   -9.1505    2.7050 C   0  0  0  0  0  0  0  0  0  0  0  0
   -0.4329   -8.1636    2.1697 O   0  0  0  0  0  0  0  0  0  0  0  0
   -0.0030   -7.1519    2.9961 C   0  0  0  0  0  0  0  0  0  0  0  0
   -0.5179   -6.9421    4.3075 C   0  0  0  0  0  0  0  0  0  0  0  0
   -0.0574   -5.8615    5.0849 C   0  0  0  0  0  0  0  0  0  0  0  0
    0.9167   -4.9842    4.5706 C   0  0  0  0  0  0  0  0  0  0  0  0
    1.3904   -3.8149    5.4161 C   0  0  0  0  0  0  0  0  0  0  0  0
    1.6710   -2.6116    4.6465 N   0  0  0  0  0  0  0  0  0  0  0  0
    2.3001   -1.5699    5.4385 C   0  0  0  0  0  0  0  0  0  0  0  0
    2.1934   -0.3426    4.5411 C   0  0  0  0  0  0  0  0  0  0  0  0
    0.9214   -0.6008    3.6971 C   0  0  2  0  0  0  0  0  0  0  0  0
    1.1560   -0.4975    2.1796 C   0  0  0  0  0  0  0  0  0  0  0  0
    0.3256    0.6777    1.6926 C   0  0  0  0  0  0  0  0  0  0  0  0
    0.0611    1.4669    2.9065 N   0  0  1  0  0  0  0  0  0  0  0  0
   -0.9710    2.4828    2.8046 C   0  0  0  0  0  0  0  0  0  0  0  0
   -0.7090    3.6768    3.7503 C   0  0  0  0  0  0  0  0  0  0  0  0
   -1.3880    4.8176    3.2747 O   0  0  0  0  0  0  0  0  0  0  0  0
   -0.1536    0.4659    3.9567 C   0  0  0  0  0  0  0  0  0  0  0  0
    0.4531   -1.9961    4.1291 C   0  0  0  0  0  0  0  0  0  0  0  0
    1.4489   -5.2038    3.2827 C   0  0  0  0  0  0  0  0  0  0  0  0
    0.9813   -6.2819    2.4786 C   0  0  0  0  0  0  0  0  0  0  0  0
    1.4147   -6.5065    1.1903 O   0  0  0  0  0  0  0  0  0  0  0  0
    2.4910   -5.7218    0.6852 C   0  0  0  0  0  0  0  0  0  0  0  0
   -1.4951   -9.9020    1.9427 H   0  0  0  0  0  0  0  0  0  0  0  0
   -2.2619   -8.7168    2.9909 H   0  0  0  0  0  0  0  0  0  0  0  0
   -0.8608   -9.6553    3.5651 H   0  0  0  0  0  0  0  0  0  0  0  0
   -1.2753   -7.5866    4.7280 H   0  0  0  0  0  0  0  0  0  0  0  0
   -0.4624   -5.6989    6.0711 H   0  0  0  0  0  0  0  0  0  0  0  0
    0.6641   -3.5826    6.2011 H   0  0  0  0  0  0  0  0  0  0  0  0
    2.3116   -4.1175    5.9094 H   0  0  0  0  0  0  0  0  0  0  0  0
    1.7417   -1.4086    6.3608 H   0  0  0  0  0  0  0  0  0  0  0  0
    3.3395   -1.7947    5.6680 H   0  0  0  0  0  0  0  0  0  0  0  0
    2.1472    0.5522    5.1647 H   0  0  0  0  0  0  0  0  0  0  0  0
    3.0993   -0.2195    3.9369 H   0  0  0  0  0  0  0  0  0  0  0  0
    2.1903   -0.3060    1.9092 H   0  0  0  0  0  0  0  0  0  0  0  0
    0.8600   -1.3877    1.6368 H   0  0  0  0  0  0  0  0  0  0  0  0
    0.8222    1.2253    0.8841 H   0  0  0  0  0  0  0  0  0  0  0  0
   -0.6145    0.2823    1.3227 H   0  0  0  0  0  0  0  0  0  0  0  0
   -0.9844    2.8355    1.7715 H   0  0  0  0  0  0  0  0  0  0  0  0
   -1.9919    2.0955    2.9744 H   0  0  0  0  0  0  0  0  0  0  0  0
   -1.0241    3.4453    4.7686 H   0  0  0  0  0  0  0  0  0  0  0  0
    0.3507    3.9254    3.7692 H   0  0  0  0  0  0  0  0  0  0  0  0
   -1.0255    4.9770    2.4071 H   0  0  0  0  0  0  0  0  0  0  0  0
   -1.1499    0.0213    3.8496 H   0  0  0  0  0  0  0  0  0  0  0  0
   -0.1189    0.9170    4.9634 H   0  0  0  0  0  0  0  0  0  0  0  0
    0.0249   -2.5997    3.3245 H   0  0  0  0  0  0  0  0  0  0  0  0
   -0.3016   -1.9427    4.9236 H   0  0  0  0  0  0  0  0  0  0  0  0
    2.1912   -4.5207    2.9027 H   0  0  0  0  0  0  0  0  0  0  0  0
    2.7461   -6.0583   -0.3166 H   0  0  0  0  0  0  0  0  0  0  0  0
    3.3859   -5.8190    1.3023 H   0  0  0  0  0  0  0  0  0  0  0  0
    2.2153   -4.6697    0.6114 H   0  0  0  0  0  0  0  0  0  0  0  0
    0.9617    1.8861    3.0838 H   0  0  0  0  0  0  0  0  0  0  0  0
  1  2  1  0
  1 24  1  0
  1 25  1  0
  1 26  1  0
  2  3  1  0
  3 21  2  0
  3  4  1  0
  4  5  2  0
  4 27  1  0
  5  6  1  0
  5 28  1  0
  6  7  1  0
  6 20  2  0
  7  8  1  0
  7 29  1  0
  7 30  1  0
  8 19  1  0
  8  9  1  0
  9 10  1  0
  9 31  1  0
  9 32  1  0
 11 10  1  1
 10 33  1  0
 10 34  1  0
 11 18  1  0
 11 12  1  0
 11 19  1  0
 12 13  1  0
 12 35  1  0
 12 36  1  0
 13 14  1  0
 13 37  1  0
 13 38  1  0
 14 15  1  0
 14 18  1  0
 14 52  1  1
 15 16  1  0
 15 39  1  0
 15 40  1  0
 16 17  1  0
 16 41  1  0
 16 42  1  0
 17 43  1  0
 18 44  1  0
 18 45  1  0
 19 46  1  0
 19 47  1  0
 20 21  1  0
 20 48  1  0
 21 22  1  0
 22 23  1  0
 23 49  1  0
 23 50  1  0
 23 51  1  0
M  CHG  1  14   1
M  END
>  <i_m_ct_stereo_status>  (334) 
1

>  <s_m_source_file>  (334) 
/var/tmp/pbs.5076255.sched01/tmpbrgkg_oh/138myny07gr.sdf

>  <i_m_source_file_index>  (334) 
11

>  <i_lp_mmshare_version>  (334) 
48012

>  <i_f3d_flags>  (334) 
0

>  <s_epik_input>  (334) 
W0NIM11PYzFbY0hdW2NIXWMoW2NIXWMxT1tDSDNdKVtDSDJdTihbQ0gyXTIpW0NIMl1bQ0gyXVtDQEBdMjNbQ0gyXVtDSDJdTihbQ0gyXTMpW0NIMl1bQ0gyXVtPSF0=

>  <s_epik_cmdline>  (334) 
J2VwaWtfcHl0aG9uJywgJy1waHQnLCAnMi4wJywgJy1waCcsICc3LjAnLCAnLXRuJywgJzgnLCAnLW1hJywgJzIwMCcsICctaW1hZScsICc8aW5maWxlLm1hZT4nLCAnLW9tYWUnLCAnPG91dGZpbGUubWFlPic=

>  <r_lp_tautomer_probability>  (334) 
1

>  <r_epik_Ionization_Penalty>  (334) 
1.28835

>  <r_epik_Ionization_Penalty_Charging>  (334) 
0.000589453

>  <r_epik_Ionization_Penalty_Neutral>  (334) 
1.28776

>  <r_epik_State_Penalty>  (334) 
1.36061

>  <r_epik_Charging_Adjusted_Penalty>  (334) 
1.3612

>  <i_epik_Tot_Q>  (334) 
1

>  <i_epik_Tot_abs_Q>  (334) 
1

>  <s_lp_Force_Field>  (334) 
OPLS3e

>  <r_lp_Energy>  (334) 
25.1966

>  <b_lp_Chiralities_Consistent>  (334) 
1

>  <s_lp_Variant>  (334) 
93:0-2

>  <s_i_glide_gridfile>  (334) 
pfpi4k_grid

>  <i_i_glide_lignum>  (334) 
11

>  <i_i_glide_rotatable_bonds>  (334) 
7

>  <r_i_docking_score>  (334) 
-3.37237

>  <r_i_glide_ligand_efficiency>  (334) 
-0.146625

>  <r_i_glide_ligand_efficiency_sa>  (334) 
-0.416982

>  <r_i_glide_ligand_efficiency_ln>  (334) 
-0.815471

>  <r_i_glide_gscore>  (334) 
-3.37237

>  <r_i_glide_lipo>  (334) 
-0.0825363

>  <r_i_glide_hbond>  (334) 
-0.310426

>  <r_i_glide_metal>  (334) 
-0

>  <r_i_glide_rewards>  (334) 
-1.21749

>  <r_i_glide_evdw>  (334) 
-20.6036

>  <r_i_glide_ecoul>  (334) 
-9.38594

>  <r_i_glide_erotb>  (334) 
0.723442

>  <r_i_glide_esite>  (334) 
-0.0472929

>  <r_i_glide_emodel>  (334) 
-36.2739

>  <r_i_glide_energy>  (334) 
-29.9895

>  <r_i_glide_einternal>  (334) 
4.10161

>  <r_i_glide_intrahb_reward>  (334) 
-0

>  <i_i_glide_confnum>  (334) 
3

>  <i_i_glide_posenum>  (334) 
2

>  <r_i_glide_eff_state_penalty>  (334) 
0

>  <ligand_id>  (334) 
93

>  <original_smiles>  (334) 
COc1ccc(CN2CCC3(CCN(CCO)C3)C2)cc1OC

>  <smiles>  (334) 
[H]OC([H])([H])C([H])([H])[N+]1([H])C([H])([H])C([H])([H])C2(C([H])([H])N(C([H])([H])c3c([H])c([H])c(OC([H])([H])[H])c(OC([H])([H])[H])c3[H])C([H])([H])C2([H])[H])C1([H])[H]

$$$$
93:1:1
     RDKit          3D

 52 54  0  0  1  0  0  0  0  0999 V2000
   -1.2437   -9.2820    2.5113 C   0  0  0  0  0  0  0  0  0  0  0  0
   -0.4005   -8.2225    2.0773 O   0  0  0  0  0  0  0  0  0  0  0  0
   -0.0288   -7.2699    2.9897 C   0  0  0  0  0  0  0  0  0  0  0  0
   -0.5814   -7.1689    4.2960 C   0  0  0  0  0  0  0  0  0  0  0  0
   -0.1704   -6.1409    5.1641 C   0  0  0  0  0  0  0  0  0  0  0  0
    0.7917   -5.2068    4.7539 C   0  0  0  0  0  0  0  0  0  0  0  0
    1.1789   -4.0703    5.6877 C   0  0  0  0  0  0  0  0  0  0  0  0
    1.5379   -2.8383    5.0048 N   0  0  0  0  0  0  0  0  0  0  0  0
    1.8954   -1.7729    5.9255 C   0  0  0  0  0  0  0  0  0  0  0  0
    1.9025   -0.5350    5.0402 C   0  0  0  0  0  0  0  0  0  0  0  0
    0.8940   -0.8673    3.9141 C   0  0  2  0  0  0  0  0  0  0  0  0
    1.4833   -0.7245    2.4824 C   0  0  0  0  0  0  0  0  0  0  0  0
    0.7162    0.3997    1.8303 C   0  0  0  0  0  0  0  0  0  0  0  0
    0.1232    1.1482    2.9559 N   0  0  1  0  0  0  0  0  0  0  0  0
   -0.9531    2.0695    2.6099 C   0  0  0  0  0  0  0  0  0  0  0  0
   -1.2237    3.1084    3.7220 C   0  0  0  0  0  0  0  0  0  0  0  0
   -0.2981    4.1709    3.6477 O   0  0  0  0  0  0  0  0  0  0  0  0
   -0.2776    0.1133    3.9232 C   0  0  0  0  0  0  0  0  0  0  0  0
    0.4299   -2.2956    4.2297 C   0  0  0  0  0  0  0  0  0  0  0  0
    1.3677   -5.3209    3.4660 C   0  0  0  0  0  0  0  0  0  0  0  0
    0.9489   -6.3302    2.5701 C   0  0  0  0  0  0  0  0  0  0  0  0
    1.4154   -6.4373    1.2771 O   0  0  0  0  0  0  0  0  0  0  0  0
    2.4968   -5.6013    0.8744 C   0  0  0  0  0  0  0  0  0  0  0  0
   -1.3884   -9.9763    1.6859 H   0  0  0  0  0  0  0  0  0  0  0  0
   -2.2236   -8.9066    2.8070 H   0  0  0  0  0  0  0  0  0  0  0  0
   -0.8004   -9.8388    3.3391 H   0  0  0  0  0  0  0  0  0  0  0  0
   -1.3302   -7.8641    4.6441 H   0  0  0  0  0  0  0  0  0  0  0  0
   -0.6138   -6.0615    6.1470 H   0  0  0  0  0  0  0  0  0  0  0  0
    0.3652   -3.8731    6.3891 H   0  0  0  0  0  0  0  0  0  0  0  0
    2.0354   -4.3948    6.2743 H   0  0  0  0  0  0  0  0  0  0  0  0
    1.1288   -1.6704    6.6928 H   0  0  0  0  0  0  0  0  0  0  0  0
    2.8618   -1.9259    6.4007 H   0  0  0  0  0  0  0  0  0  0  0  0
    1.6265    0.3412    5.6299 H   0  0  0  0  0  0  0  0  0  0  0  0
    2.9062   -0.3299    4.6624 H   0  0  0  0  0  0  0  0  0  0  0  0
    2.5403   -0.4689    2.5009 H   0  0  0  0  0  0  0  0  0  0  0  0
    1.3923   -1.6327    1.8882 H   0  0  0  0  0  0  0  0  0  0  0  0
    1.3313    0.9980    1.1590 H   0  0  0  0  0  0  0  0  0  0  0  0
   -0.0987   -0.0370    1.2739 H   0  0  0  0  0  0  0  0  0  0  0  0
   -0.6876    2.5473    1.6811 H   0  0  0  0  0  0  0  0  0  0  0  0
   -1.8722    1.5130    2.3858 H   0  0  0  0  0  0  0  0  0  0  0  0
   -2.2338    3.4961    3.6123 H   0  0  0  0  0  0  0  0  0  0  0  0
   -1.1636    2.6709    4.7153 H   0  0  0  0  0  0  0  0  0  0  0  0
   -0.1854    4.4221    2.7317 H   0  0  0  0  0  0  0  0  0  0  0  0
   -1.1963   -0.3770    3.5787 H   0  0  0  0  0  0  0  0  0  0  0  0
   -0.5033    0.5214    4.9163 H   0  0  0  0  0  0  0  0  0  0  0  0
    0.2323   -2.8791    3.3281 H   0  0  0  0  0  0  0  0  0  0  0  0
   -0.4885   -2.3069    4.8268 H   0  0  0  0  0  0  0  0  0  0  0  0
    2.0938   -4.5871    3.1574 H   0  0  0  0  0  0  0  0  0  0  0  0
    2.7839   -5.8526   -0.1458 H   0  0  0  0  0  0  0  0  0  0  0  0
    3.3729   -5.7438    1.5085 H   0  0  0  0  0  0  0  0  0  0  0  0
    2.2143   -4.5484    0.8841 H   0  0  0  0  0  0  0  0  0  0  0  0
    0.8967    1.6608    3.3648 H   0  0  0  0  0  0  0  0  0  0  0  0
  1  2  1  0
  1 24  1  0
  1 25  1  0
  1 26  1  0
  2  3  1  0
  3 21  2  0
  3  4  1  0
  4  5  2  0
  4 27  1  0
  5  6  1  0
  5 28  1  0
  6  7  1  0
  6 20  2  0
  7  8  1  0
  7 29  1  0
  7 30  1  0
  8 19  1  0
  8  9  1  0
  9 10  1  0
  9 31  1  0
  9 32  1  0
 11 10  1  1
 10 33  1  0
 10 34  1  0
 11 18  1  0
 11 12  1  0
 11 19  1  0
 12 13  1  0
 12 35  1  0
 12 36  1  0
 13 14  1  0
 13 37  1  0
 13 38  1  0
 14 15  1  0
 14 18  1  0
 14 52  1  1
 15 16  1  0
 15 39  1  0
 15 40  1  0
 16 17  1  0
 16 41  1  0
 16 42  1  0
 17 43  1  0
 18 44  1  0
 18 45  1  0
 19 46  1  0
 19 47  1  0
 20 21  1  0
 20 48  1  0
 21 22  1  0
 22 23  1  0
 23 49  1  0
 23 50  1  0
 23 51  1  0
M  CHG  1  14   1
M  END
>  <i_m_ct_stereo_status>  (335) 
1

>  <s_m_source_file>  (335) 
/var/tmp/pbs.5076255.sched01/tmpbrgkg_oh/138myny07gr.sdf

>  <i_m_source_file_index>  (335) 
11

>  <i_lp_mmshare_version>  (335) 
48012

>  <i_f3d_flags>  (335) 
0

>  <s_epik_input>  (335) 
W0NIM11PYzFbY0hdW2NIXWMoW2NIXWMxT1tDSDNdKVtDSDJdTihbQ0gyXTIpW0NIMl1bQ0gyXVtDQEBdMjNbQ0gyXVtDSDJdTihbQ0gyXTMpW0NIMl1bQ0gyXVtPSF0=

>  <s_epik_cmdline>  (335) 
J2VwaWtfcHl0aG9uJywgJy1waHQnLCAnMi4wJywgJy1waCcsICc3LjAnLCAnLXRuJywgJzgnLCAnLW1hJywgJzIwMCcsICctaW1hZScsICc8aW5maWxlLm1hZT4nLCAnLW9tYWUnLCAnPG91dGZpbGUubWFlPic=

>  <r_lp_tautomer_probability>  (335) 
1

>  <r_epik_Ionization_Penalty>  (335) 
1.28835

>  <r_epik_Ionization_Penalty_Charging>  (335) 
0.000589453

>  <r_epik_Ionization_Penalty_Neutral>  (335) 
1.28776

>  <r_epik_State_Penalty>  (335) 
1.36061

>  <r_epik_Charging_Adjusted_Penalty>  (335) 
1.3612

>  <i_epik_Tot_Q>  (335) 
1

>  <i_epik_Tot_abs_Q>  (335) 
1

>  <s_lp_Force_Field>  (335) 
OPLS3e

>  <r_lp_Energy>  (335) 
25.1966

>  <b_lp_Chiralities_Consistent>  (335) 
1

>  <s_lp_Variant>  (335) 
93:0-2

>  <s_i_glide_gridfile>  (335) 
pfpi4k_grid

>  <i_i_glide_lignum>  (335) 
11

>  <i_i_glide_rotatable_bonds>  (335) 
7

>  <r_i_docking_score>  (335) 
-3.17611

>  <r_i_glide_ligand_efficiency>  (335) 
-0.138092

>  <r_i_glide_ligand_efficiency_sa>  (335) 
-0.392715

>  <r_i_glide_ligand_efficiency_ln>  (335) 
-0.768013

>  <r_i_glide_gscore>  (335) 
-3.17611

>  <r_i_glide_lipo>  (335) 
-0.250068

>  <r_i_glide_hbond>  (335) 
-0.175975

>  <r_i_glide_metal>  (335) 
-0

>  <r_i_glide_rewards>  (335) 
-1.21749

>  <r_i_glide_evdw>  (335) 
-22.3684

>  <r_i_glide_ecoul>  (335) 
-7.30425

>  <r_i_glide_erotb>  (335) 
0.723442

>  <r_i_glide_esite>  (335) 
-0.0419606

>  <r_i_glide_emodel>  (335) 
-34.646

>  <r_i_glide_energy>  (335) 
-29.6727

>  <r_i_glide_einternal>  (335) 
5.55238

>  <r_i_glide_intrahb_reward>  (335) 
-0

>  <i_i_glide_confnum>  (335) 
3

>  <i_i_glide_posenum>  (335) 
16

>  <r_i_glide_eff_state_penalty>  (335) 
0

>  <ligand_id>  (335) 
93

>  <original_smiles>  (335) 
COc1ccc(CN2CCC3(CCN(CCO)C3)C2)cc1OC

>  <smiles>  (335) 
[H]OC([H])([H])C([H])([H])[N+]1([H])C([H])([H])C([H])([H])C2(C([H])([H])N(C([H])([H])c3c([H])c([H])c(OC([H])([H])[H])c(OC([H])([H])[H])c3[H])C([H])([H])C2([H])[H])C1([H])[H]

$$$$
93:1:2
     RDKit          3D

 52 54  0  0  1  0  0  0  0  0999 V2000
   -1.0238   -9.4250    3.3843 C   0  0  0  0  0  0  0  0  0  0  0  0
   -0.2180   -8.4245    2.7993 O   0  0  0  0  0  0  0  0  0  0  0  0
    0.0802   -7.2946    3.5164 C   0  0  0  0  0  0  0  0  0  0  0  0
   -0.4146   -7.0439    4.8192 C   0  0  0  0  0  0  0  0  0  0  0  0
   -0.0273   -5.8933    5.5268 C   0  0  0  0  0  0  0  0  0  0  0  0
    0.8583   -4.9677    4.9506 C   0  0  0  0  0  0  0  0  0  0  0  0
    1.2927   -3.7359    5.7305 C   0  0  0  0  0  0  0  0  0  0  0  0
    1.5720   -2.5817    4.8864 N   0  0  0  0  0  0  0  0  0  0  0  0
    2.2310   -1.5061    5.6048 C   0  0  0  0  0  0  0  0  0  0  0  0
    2.1239   -0.3321    4.6409 C   0  0  0  0  0  0  0  0  0  0  0  0
    0.8349   -0.6178    3.8351 C   0  0  2  0  0  0  0  0  0  0  0  0
    1.0634   -0.6198    2.2962 C   0  0  0  0  0  0  0  0  0  0  0  0
    0.2340    0.5496    1.7672 C   0  0  0  0  0  0  0  0  0  0  0  0
    0.0323    1.4193    2.9410 N   0  0  1  0  0  0  0  0  0  0  0  0
   -1.0088    2.4553    2.8034 C   0  0  0  0  0  0  0  0  0  0  0  0
   -0.7465    3.6421    3.7507 C   0  0  0  0  0  0  0  0  0  0  0  0
   -1.3988    4.7929    3.2699 O   0  0  0  0  0  0  0  0  0  0  0  0
   -0.1998    0.4943    4.0616 C   0  0  0  0  0  0  0  0  0  0  0  0
    0.3533   -1.9839    4.3641 C   0  0  0  0  0  0  0  0  0  0  0  0
    1.3558   -5.2194    3.6479 C   0  0  0  0  0  0  0  0  0  0  0  0
    0.9367   -6.3428    2.9184 C   0  0  0  0  0  0  0  0  0  0  0  0
    1.4313   -6.4995    1.6415 O   0  0  0  0  0  0  0  0  0  0  0  0
    0.4975   -6.7391    0.6022 C   0  0  0  0  0  0  0  0  0  0  0  0
   -1.1874  -10.2104    2.6497 H   0  0  0  0  0  0  0  0  0  0  0  0
   -2.0053   -9.0566    3.6824 H   0  0  0  0  0  0  0  0  0  0  0  0
   -0.5268   -9.8630    4.2474 H   0  0  0  0  0  0  0  0  0  0  0  0
   -1.0836   -7.7430    5.2873 H   0  0  0  0  0  0  0  0  0  0  0  0
   -0.3897   -5.7183    6.5295 H   0  0  0  0  0  0  0  0  0  0  0  0
    0.5235   -3.4775    6.4601 H   0  0  0  0  0  0  0  0  0  0  0  0
    2.1908   -3.9873    6.2929 H   0  0  0  0  0  0  0  0  0  0  0  0
    1.7029   -1.2812    6.5323 H   0  0  0  0  0  0  0  0  0  0  0  0
    3.2691   -1.7391    5.8347 H   0  0  0  0  0  0  0  0  0  0  0  0
    2.0860    0.6058    5.2016 H   0  0  0  0  0  0  0  0  0  0  0  0
    3.0113   -0.2740    4.0052 H   0  0  0  0  0  0  0  0  0  0  0  0
    2.1151   -0.4703    2.0330 H   0  0  0  0  0  0  0  0  0  0  0  0
    0.7353   -1.5459    1.8174 H   0  0  0  0  0  0  0  0  0  0  0  0
    0.7127    1.0424    0.9188 H   0  0  0  0  0  0  0  0  0  0  0  0
   -0.7378    0.1771    1.4483 H   0  0  0  0  0  0  0  0  0  0  0  0
   -0.9765    2.7805    1.7698 H   0  0  0  0  0  0  0  0  0  0  0  0
   -2.0119    2.0440    2.9682 H   0  0  0  0  0  0  0  0  0  0  0  0
   -1.0871    3.4158    4.7612 H   0  0  0  0  0  0  0  0  0  0  0  0
    0.3175    3.8742    3.8017 H   0  0  0  0  0  0  0  0  0  0  0  0
   -1.0360    4.9553    2.3996 H   0  0  0  0  0  0  0  0  0  0  0  0
   -1.2142    0.0766    3.9932 H   0  0  0  0  0  0  0  0  0  0  0  0
   -0.1065    0.9891    5.0355 H   0  0  0  0  0  0  0  0  0  0  0  0
   -0.1111   -2.6168    3.6056 H   0  0  0  0  0  0  0  0  0  0  0  0
   -0.3813   -1.8516    5.1653 H   0  0  0  0  0  0  0  0  0  0  0  0
    2.0500   -4.5398    3.1734 H   0  0  0  0  0  0  0  0  0  0  0  0
    1.0339   -6.8966   -0.3209 H   0  0  0  0  0  0  0  0  0  0  0  0
   -0.1267   -5.8705    0.4365 H   0  0  0  0  0  0  0  0  0  0  0  0
   -0.1773   -7.5714    0.7243 H   0  0  0  0  0  0  0  0  0  0  0  0
    0.9323    1.8613    3.0897 H   0  0  0  0  0  0  0  0  0  0  0  0
  1  2  1  0
  1 24  1  0
  1 25  1  0
  1 26  1  0
  2  3  1  0
  3 21  2  0
  3  4  1  0
  4  5  2  0
  4 27  1  0
  5  6  1  0
  5 28  1  0
  6  7  1  0
  6 20  2  0
  7  8  1  0
  7 29  1  0
  7 30  1  0
  8 19  1  0
  8  9  1  0
  9 10  1  0
  9 31  1  0
  9 32  1  0
 11 10  1  1
 10 33  1  0
 10 34  1  0
 11 18  1  0
 11 12  1  0
 11 19  1  0
 12 13  1  0
 12 35  1  0
 12 36  1  0
 13 14  1  0
 13 37  1  0
 13 38  1  0
 14 15  1  0
 14 18  1  0
 14 52  1  1
 15 16  1  0
 15 39  1  0
 15 40  1  0
 16 17  1  0
 16 41  1  0
 16 42  1  0
 17 43  1  0
 18 44  1  0
 18 45  1  0
 19 46  1  0
 19 47  1  0
 20 21  1  0
 20 48  1  0
 21 22  1  0
 22 23  1  0
 23 49  1  0
 23 50  1  0
 23 51  1  0
M  CHG  1  14   1
M  END
>  <i_m_ct_stereo_status>  (336) 
1

>  <s_m_source_file>  (336) 
/var/tmp/pbs.5076255.sched01/tmpbrgkg_oh/138myny07gr.sdf

>  <i_m_source_file_index>  (336) 
11

>  <i_lp_mmshare_version>  (336) 
48012

>  <i_f3d_flags>  (336) 
0

>  <s_epik_input>  (336) 
W0NIM11PYzFbY0hdW2NIXWMoW2NIXWMxT1tDSDNdKVtDSDJdTihbQ0gyXTIpW0NIMl1bQ0gyXVtDQEBdMjNbQ0gyXVtDSDJdTihbQ0gyXTMpW0NIMl1bQ0gyXVtPSF0=

>  <s_epik_cmdline>  (336) 
J2VwaWtfcHl0aG9uJywgJy1waHQnLCAnMi4wJywgJy1waCcsICc3LjAnLCAnLXRuJywgJzgnLCAnLW1hJywgJzIwMCcsICctaW1hZScsICc8aW5maWxlLm1hZT4nLCAnLW9tYWUnLCAnPG91dGZpbGUubWFlPic=

>  <r_lp_tautomer_probability>  (336) 
1

>  <r_epik_Ionization_Penalty>  (336) 
1.28835

>  <r_epik_Ionization_Penalty_Charging>  (336) 
0.000589453

>  <r_epik_Ionization_Penalty_Neutral>  (336) 
1.28776

>  <r_epik_State_Penalty>  (336) 
1.36061

>  <r_epik_Charging_Adjusted_Penalty>  (336) 
1.3612

>  <i_epik_Tot_Q>  (336) 
1

>  <i_epik_Tot_abs_Q>  (336) 
1

>  <s_lp_Force_Field>  (336) 
OPLS3e

>  <r_lp_Energy>  (336) 
25.1966

>  <b_lp_Chiralities_Consistent>  (336) 
1

>  <s_lp_Variant>  (336) 
93:0-2

>  <s_i_glide_gridfile>  (336) 
pfpi4k_grid

>  <i_i_glide_lignum>  (336) 
11

>  <i_i_glide_rotatable_bonds>  (336) 
7

>  <r_i_docking_score>  (336) 
-2.91877

>  <r_i_glide_ligand_efficiency>  (336) 
-0.126903

>  <r_i_glide_ligand_efficiency_sa>  (336) 
-0.360895

>  <r_i_glide_ligand_efficiency_ln>  (336) 
-0.705785

>  <r_i_glide_gscore>  (336) 
-2.91877

>  <r_i_glide_lipo>  (336) 
-0.0317903

>  <r_i_glide_hbond>  (336) 
-0.310657

>  <r_i_glide_metal>  (336) 
-0

>  <r_i_glide_rewards>  (336) 
-1.21749

>  <r_i_glide_evdw>  (336) 
-18.3893

>  <r_i_glide_ecoul>  (336) 
-7.44768

>  <r_i_glide_erotb>  (336) 
0.723442

>  <r_i_glide_esite>  (336) 
-0.0456552

>  <r_i_glide_emodel>  (336) 
-27.1645

>  <r_i_glide_energy>  (336) 
-25.837

>  <r_i_glide_einternal>  (336) 
11.2502

>  <r_i_glide_intrahb_reward>  (336) 
-0

>  <i_i_glide_confnum>  (336) 
3

>  <i_i_glide_posenum>  (336) 
13

>  <r_i_glide_eff_state_penalty>  (336) 
0

>  <ligand_id>  (336) 
93

>  <original_smiles>  (336) 
COc1ccc(CN2CCC3(CCN(CCO)C3)C2)cc1OC

>  <smiles>  (336) 
[H]OC([H])([H])C([H])([H])[N+]1([H])C([H])([H])C([H])([H])C2(C([H])([H])N(C([H])([H])c3c([H])c([H])c(OC([H])([H])[H])c(OC([H])([H])[H])c3[H])C([H])([H])C2([H])[H])C1([H])[H]

$$$$
94:0:0
     RDKit          3D

 66 71  0  0  1  0  0  0  0  0999 V2000
    4.5945   -9.0331    1.5727 C   0  0  0  0  0  0  0  0  0  0  0  0
    4.3024   -7.7193    1.6483 C   0  0  0  0  0  0  0  0  0  0  0  0
    4.6973   -6.6715    0.6392 C   0  0  2  0  0  0  0  0  0  0  0  0
    6.1938   -6.3105    0.9064 C   0  0  0  0  0  0  0  0  0  0  0  0
    6.5335   -5.4407    2.1468 C   0  0  0  0  0  0  0  0  0  0  0  0
    5.4488   -4.4119    2.4331 C   0  0  2  0  0  0  0  0  0  0  0  0
    4.5243   -4.8694    3.5885 C   0  0  0  0  0  0  0  0  0  0  0  0
    4.1391   -6.3751    3.7931 C   0  0  1  0  0  0  0  0  0  0  0  0
    3.3489   -6.4467    5.1171 C   0  0  0  0  0  0  0  0  0  0  0  0
    3.3637   -7.1044    2.6434 C   0  0  1  0  0  0  0  0  0  0  0  0
    2.5127   -6.2316    1.7096 C   0  0  1  0  0  0  0  0  0  0  0  0
    1.4963   -5.4669    2.3549 O   0  0  0  0  0  0  0  0  0  0  0  0
    0.5528   -6.2063    3.1380 C   0  0  0  0  0  0  0  0  0  0  0  0
    3.5096   -5.6119    0.6594 C   0  0  1  0  0  0  0  0  0  0  0  0
    3.7527   -4.0228    0.5061 C   0  0  2  0  0  0  0  0  0  0  0  0
    2.5277   -3.1419    1.0065 C   0  0  0  0  0  0  0  0  0  0  0  0
    2.2864   -2.9521    2.2074 O   0  0  0  0  0  0  0  0  0  0  0  0
    3.7791   -3.6713   -1.0376 C   0  0  2  0  0  0  0  0  0  0  0  0
    4.9086   -4.2801   -1.8674 C   0  0  0  0  0  0  0  0  0  0  0  0
    5.6650   -3.0549   -1.3917 C   0  0  2  0  0  0  0  0  0  0  0  0
    6.2037   -3.1833    0.0426 C   0  0  0  0  0  0  0  0  0  0  0  0
    5.1451   -3.6013    1.1222 C   0  0  2  0  0  0  0  0  0  0  0  0
    5.5893   -2.9260    2.4119 C   0  0  1  0  0  0  0  0  0  0  0  0
    4.6656   -2.0729    3.0908 O   0  0  0  0  0  0  0  0  0  0  0  0
    4.6154   -0.7728    2.7871 C   0  0  0  0  0  0  0  0  0  0  0  0
    3.4942   -0.0358    3.5620 C   0  0  0  0  0  0  0  0  0  0  0  0
    5.3477   -0.2184    1.9625 O   0  0  0  0  0  0  0  0  0  0  0  0
    4.3256   -2.3170   -1.5482 C   0  0  0  0  0  0  0  0  0  0  0  0
    3.9293   -1.8444   -2.9735 C   0  0  0  0  0  0  0  0  0  0  0  0
    4.1567   -1.0863   -0.6342 C   0  0  0  0  0  0  0  0  0  0  0  0
    4.1764   -9.7214    2.2869 H   0  0  0  0  0  0  0  0  0  0  0  0
    5.2056   -9.4354    0.7816 H   0  0  0  0  0  0  0  0  0  0  0  0
    4.6711   -7.1899   -0.3290 H   0  0  0  0  0  0  0  0  0  0  0  0
    6.7683   -7.2318    0.9982 H   0  0  0  0  0  0  0  0  0  0  0  0
    6.6206   -5.8549    0.0229 H   0  0  0  0  0  0  0  0  0  0  0  0
    6.7253   -6.0537    3.0319 H   0  0  0  0  0  0  0  0  0  0  0  0
    7.4726   -4.9205    1.9569 H   0  0  0  0  0  0  0  0  0  0  0  0
    5.0603   -4.5657    4.4930 H   0  0  0  0  0  0  0  0  0  0  0  0
    3.6087   -4.2805    3.5625 H   0  0  0  0  0  0  0  0  0  0  0  0
    5.0490   -6.9675    3.9520 H   0  0  0  0  0  0  0  0  0  0  0  0
    2.4224   -5.8622    5.0651 H   0  0  0  0  0  0  0  0  0  0  0  0
    3.9728   -6.0826    5.9449 H   0  0  0  0  0  0  0  0  0  0  0  0
    3.0817   -7.4789    5.3392 H   0  0  0  0  0  0  0  0  0  0  0  0
    2.7703   -7.9379    3.0431 H   0  0  0  0  0  0  0  0  0  0  0  0
    1.9203   -6.9310    1.1127 H   0  0  0  0  0  0  0  0  0  0  0  0
   -0.1272   -5.4827    3.5865 H   0  0  0  0  0  0  0  0  0  0  0  0
    1.0155   -6.7404    3.9719 H   0  0  0  0  0  0  0  0  0  0  0  0
   -0.0239   -6.8863    2.5015 H   0  0  0  0  0  0  0  0  0  0  0  0
    2.9920   -5.8263   -0.2726 H   0  0  0  0  0  0  0  0  0  0  0  0
    1.9456   -2.7061    0.2164 H   0  0  0  0  0  0  0  0  0  0  0  0
    2.8263   -3.8789   -1.5116 H   0  0  0  0  0  0  0  0  0  0  0  0
    5.2845   -5.2243   -1.4770 H   0  0  0  0  0  0  0  0  0  0  0  0
    4.7363   -4.3334   -2.9600 H   0  0  0  0  0  0  0  0  0  0  0  0
    6.4034   -2.7493   -2.1196 H   0  0  0  0  0  0  0  0  0  0  0  0
    7.0781   -3.8354    0.0392 H   0  0  0  0  0  0  0  0  0  0  0  0
    6.6357   -2.2168    0.3181 H   0  0  0  0  0  0  0  0  0  0  0  0
    6.5735   -2.4948    2.4651 H   0  0  0  0  0  0  0  0  0  0  0  0
    2.5497   -0.6092    3.5545 H   0  0  0  0  0  0  0  0  0  0  0  0
    3.2668    0.9322    3.1288 H   0  0  0  0  0  0  0  0  0  0  0  0
    3.7833    0.1144    4.6084 H   0  0  0  0  0  0  0  0  0  0  0  0
    4.5764   -1.0200   -3.3004 H   0  0  0  0  0  0  0  0  0  0  0  0
    2.9075   -1.4489   -2.9640 H   0  0  0  0  0  0  0  0  0  0  0  0
    3.9632   -2.6094   -3.7596 H   0  0  0  0  0  0  0  0  0  0  0  0
    4.8446   -0.2989   -0.9918 H   0  0  0  0  0  0  0  0  0  0  0  0
    4.3881   -1.2590    0.3432 H   0  0  0  0  0  0  0  0  0  0  0  0
    3.1189   -0.7039   -0.7329 H   0  0  0  0  0  0  0  0  0  0  0  0
  1  2  2  0
  1 31  1  0
  1 32  1  0
  2 10  1  0
  2  3  1  0
  3 14  1  0
  3  4  1  0
  3 33  1  6
  4  5  1  0
  4 34  1  0
  4 35  1  0
  6  5  1  6
  5 36  1  0
  5 37  1  0
  6 22  1  0
  6 23  1  0
  6  7  1  0
  7  8  1  0
  7 38  1  0
  7 39  1  0
  8  9  1  0
  8 10  1  0
  8 40  1  1
  9 41  1  0
  9 42  1  0
  9 43  1  0
 10 11  1  0
 10 44  1  1
 11 12  1  0
 11 14  1  0
 11 45  1  6
 12 13  1  0
 13 46  1  0
 13 47  1  0
 13 48  1  0
 14 15  1  0
 14 49  1  6
 15 22  1  0
 15 16  1  1
 15 18  1  0
 16 17  2  0
 16 50  1  0
 18 28  1  0
 18 19  1  0
 18 51  1  6
 19 20  1  0
 19 52  1  0
 19 53  1  0
 20 21  1  0
 20 28  1  0
 20 54  1  6
 22 21  1  6
 21 55  1  0
 21 56  1  0
 22 23  1  0
 23 24  1  0
 23 57  1  6
 24 25  1  0
 25 26  1  0
 25 27  2  0
 26 58  1  0
 26 59  1  0
 26 60  1  0
 28 29  1  0
 28 30  1  0
 29 61  1  0
 29 62  1  0
 29 63  1  0
 30 64  1  0
 30 65  1  0
 30 66  1  0
M  END
>  <i_m_ct_stereo_status>  (337) 
1

>  <s_m_source_file>  (337) 
/var/tmp/pbs.5076255.sched01/tmpbrgkg_oh/138myny07gr.sdf

>  <i_m_source_file_index>  (337) 
12

>  <i_lp_mmshare_version>  (337) 
48012

>  <i_f3d_flags>  (337) 
0

>  <s_epik_input>  (337) 
W0NIM11PW0NAQEhdMVtDQEhdKFtDQEBIXShbQ0gyXTIpW0NIM10pQyg9W0NIMl0pW0NASF0oW0NIMl1bQ0gyXTMpW0NAQEhdMVtDQF0oW0NIXT1PKShbQ0BASF00W0NIMl1bQ0BIXShbQ0gyXTUpQzQoW0NIM10pW0NIM10pW0NAXTUoW0NAQF0yMzYpW0NASF02T0MoPU8pW0NIM10=

>  <s_epik_cmdline>  (337) 
J2VwaWtfcHl0aG9uJywgJy1waHQnLCAnMi4wJywgJy1waCcsICc3LjAnLCAnLXRuJywgJzgnLCAnLW1hJywgJzIwMCcsICctaW1hZScsICc8aW5maWxlLm1hZT4nLCAnLW9tYWUnLCAnPG91dGZpbGUubWFlPic=

>  <r_lp_tautomer_probability>  (337) 
1

>  <r_epik_Ionization_Penalty>  (337) 
1.48819e-11

>  <r_epik_Ionization_Penalty_Charging>  (337) 
0

>  <r_epik_Ionization_Penalty_Neutral>  (337) 
1.48819e-11

>  <r_epik_State_Penalty>  (337) 
-0

>  <r_epik_Charging_Adjusted_Penalty>  (337) 
0

>  <i_epik_Tot_Q>  (337) 
0

>  <i_epik_Tot_abs_Q>  (337) 
0

>  <s_epik_Chemistry_Notes>  (337) 
This compound has an ester and may undergo hydrolysis at high or low pH.

>  <s_lp_Force_Field>  (337) 
OPLS3e

>  <r_lp_Energy>  (337) 
122.157

>  <b_lp_Chiralities_Consistent>  (337) 
1

>  <s_lp_Variant>  (337) 
94:0-1

>  <s_i_glide_gridfile>  (337) 
pfpi4k_grid

>  <i_i_glide_lignum>  (337) 
12

>  <i_i_glide_rotatable_bonds>  (337) 
4

>  <r_i_docking_score>  (337) 
-2.50111

>  <r_i_glide_ligand_efficiency>  (337) 
-0.0833705

>  <r_i_glide_ligand_efficiency_sa>  (337) 
-0.259051

>  <r_i_glide_ligand_efficiency_ln>  (337) 
-0.56828

>  <r_i_glide_gscore>  (337) 
-2.50111

>  <r_i_glide_lipo>  (337) 
-0.527524

>  <r_i_glide_hbond>  (337) 
-0.221675

>  <r_i_glide_metal>  (337) 
-0

>  <r_i_glide_rewards>  (337) 
-0.702362

>  <r_i_glide_evdw>  (337) 
-22.2871

>  <r_i_glide_ecoul>  (337) 
-0.158149

>  <r_i_glide_erotb>  (337) 
0.115859

>  <r_i_glide_esite>  (337) 
-0.0273341

>  <r_i_glide_emodel>  (337) 
-22.9647

>  <r_i_glide_energy>  (337) 
-22.4453

>  <r_i_glide_einternal>  (337) 
2.51231

>  <r_i_glide_intrahb_reward>  (337) 
-0

>  <i_i_glide_confnum>  (337) 
2

>  <i_i_glide_posenum>  (337) 
2

>  <r_i_glide_eff_state_penalty>  (337) 
0

>  <ligand_id>  (337) 
94

>  <original_smiles>  (337) 
C=C1C2CCC34CC(C)C1C(OC)C2C1(C=O)C2CC(CC31C4OC(C)=O)C2(C)C

>  <smiles>  (337) 
[H]C(=O)C12C3([H])C([H])(OC([H])([H])[H])C4([H])C(=C([H])[H])C3([H])C([H])([H])C([H])([H])C3(C([H])([H])C4([H])C([H])([H])[H])C([H])(OC(=O)C([H])([H])[H])C13C([H])([H])C1([H])C([H])([H])C2([H])C1(C([H])([H])[H])C([H])([H])[H]

$$$$
94:0:1
     RDKit          3D

 66 71  0  0  1  0  0  0  0  0999 V2000
    8.1026   -5.8798    2.0015 C   0  0  0  0  0  0  0  0  0  0  0  0
    6.9366   -5.2840    1.6691 C   0  0  0  0  0  0  0  0  0  0  0  0
    6.7295   -4.3687    0.4937 C   0  0  2  0  0  0  0  0  0  0  0  0
    7.2625   -2.9597    0.8697 C   0  0  0  0  0  0  0  0  0  0  0  0
    6.4248   -2.0852    1.8480 C   0  0  0  0  0  0  0  0  0  0  0  0
    4.9648   -2.2997    1.6930 C   0  0  2  0  0  0  0  0  0  0  0  0
    4.3930   -3.2491    2.7821 C   0  0  0  0  0  0  0  0  0  0  0  0
    5.1899   -4.4864    3.3025 C   0  0  1  0  0  0  0  0  0  0  0  0
    4.3645   -5.1016    4.4430 C   0  0  0  0  0  0  0  0  0  0  0  0
    5.6143   -5.5962    2.2950 C   0  0  1  0  0  0  0  0  0  0  0  0
    4.7559   -5.7617    1.0390 C   0  0  1  0  0  0  0  0  0  0  0  0
    3.3768   -6.0185    1.2853 O   0  0  0  0  0  0  0  0  0  0  0  0
    3.0695   -7.2581    1.9144 C   0  0  0  0  0  0  0  0  0  0  0  0
    5.2185   -4.6466    0.0329 C   0  0  1  0  0  0  0  0  0  0  0  0
    4.2693   -3.4583   -0.4906 C   0  0  2  0  0  0  0  0  0  0  0  0
    2.7672   -3.8162   -0.4518 C   0  0  0  0  0  0  0  0  0  0  0  0
    2.1753   -3.8779    0.6018 O   0  0  0  0  0  0  0  0  0  0  0  0
    4.4819   -3.3144   -2.0456 C   0  0  2  0  0  0  0  0  0  0  0  0
    5.8736   -2.8287   -2.4692 C   0  0  0  0  0  0  0  0  0  0  0  0
    5.2532   -1.4691   -2.1804 C   0  0  2  0  0  0  0  0  0  0  0  0
    5.2308   -1.0622   -0.7274 C   0  0  0  0  0  0  0  0  0  0  0  0
    4.5576   -2.0913    0.2009 C   0  0  2  0  0  0  0  0  0  0  0  0
    3.9972   -1.2203    1.3396 C   0  0  1  0  0  0  0  0  0  0  0  0
    2.6085   -1.3633    1.5491 O   0  0  0  0  0  0  0  0  0  0  0  0
    2.0744   -0.8907    2.6804 C   0  0  0  0  0  0  0  0  0  0  0  0
    0.5691   -1.0553    2.7115 C   0  0  0  0  0  0  0  0  0  0  0  0
    2.6836   -0.3795    3.6131 O   0  0  0  0  0  0  0  0  0  0  0  0
    3.9579   -2.0281   -2.7636 C   0  0  0  0  0  0  0  0  0  0  0  0
    3.7774   -2.1184   -4.2902 C   0  0  0  0  0  0  0  0  0  0  0  0
    2.6924   -1.3246   -2.3578 C   0  0  0  0  0  0  0  0  0  0  0  0
    8.1321   -6.5931    2.8064 H   0  0  0  0  0  0  0  0  0  0  0  0
    9.0085   -5.6872    1.4539 H   0  0  0  0  0  0  0  0  0  0  0  0
    7.3950   -4.7361   -0.2933 H   0  0  0  0  0  0  0  0  0  0  0  0
    8.2597   -3.0871    1.2715 H   0  0  0  0  0  0  0  0  0  0  0  0
    7.4837   -2.4154   -0.0455 H   0  0  0  0  0  0  0  0  0  0  0  0
    6.6128   -2.2483    2.8995 H   0  0  0  0  0  0  0  0  0  0  0  0
    6.6588   -1.0370    1.6778 H   0  0  0  0  0  0  0  0  0  0  0  0
    4.2541   -2.5941    3.6442 H   0  0  0  0  0  0  0  0  0  0  0  0
    3.3964   -3.5883    2.5230 H   0  0  0  0  0  0  0  0  0  0  0  0
    6.1065   -4.1513    3.7918 H   0  0  0  0  0  0  0  0  0  0  0  0
    3.4065   -5.4846    4.0907 H   0  0  0  0  0  0  0  0  0  0  0  0
    4.1329   -4.3567    5.2027 H   0  0  0  0  0  0  0  0  0  0  0  0
    4.9093   -5.9144    4.9246 H   0  0  0  0  0  0  0  0  0  0  0  0
    5.7261   -6.5534    2.8142 H   0  0  0  0  0  0  0  0  0  0  0  0
    5.0991   -6.6827    0.5642 H   0  0  0  0  0  0  0  0  0  0  0  0
    1.9856   -7.3135    2.0294 H   0  0  0  0  0  0  0  0  0  0  0  0
    3.4994   -7.3648    2.9124 H   0  0  0  0  0  0  0  0  0  0  0  0
    3.3915   -8.1116    1.3157 H   0  0  0  0  0  0  0  0  0  0  0  0
    5.3475   -5.2323   -0.8727 H   0  0  0  0  0  0  0  0  0  0  0  0
    2.2760   -3.9642   -1.4146 H   0  0  0  0  0  0  0  0  0  0  0  0
    4.2069   -4.1963   -2.5982 H   0  0  0  0  0  0  0  0  0  0  0  0
    6.6938   -3.1319   -1.8427 H   0  0  0  0  0  0  0  0  0  0  0  0
    6.1301   -3.0511   -3.5153 H   0  0  0  0  0  0  0  0  0  0  0  0
    5.5964   -0.6028   -2.7022 H   0  0  0  0  0  0  0  0  0  0  0  0
    6.2315   -0.7948   -0.4273 H   0  0  0  0  0  0  0  0  0  0  0  0
    4.6769   -0.1334   -0.6886 H   0  0  0  0  0  0  0  0  0  0  0  0
    4.3246   -0.1794    1.4273 H   0  0  0  0  0  0  0  0  0  0  0  0
    0.1434   -0.5493    1.8441 H   0  0  0  0  0  0  0  0  0  0  0  0
    0.1340   -0.6044    3.6034 H   0  0  0  0  0  0  0  0  0  0  0  0
    0.2893   -2.1059    2.6942 H   0  0  0  0  0  0  0  0  0  0  0  0
    3.7068   -1.1294   -4.7500 H   0  0  0  0  0  0  0  0  0  0  0  0
    2.8671   -2.6627   -4.5488 H   0  0  0  0  0  0  0  0  0  0  0  0
    4.5843   -2.6679   -4.7202 H   0  0  0  0  0  0  0  0  0  0  0  0
    2.6078   -0.3293   -2.8056 H   0  0  0  0  0  0  0  0  0  0  0  0
    2.6828   -1.1745   -1.2801 H   0  0  0  0  0  0  0  0  0  0  0  0
    1.8385   -1.9392   -2.6317 H   0  0  0  0  0  0  0  0  0  0  0  0
  1  2  2  0
  1 31  1  0
  1 32  1  0
  2 10  1  0
  2  3  1  0
  3 14  1  0
  3  4  1  0
  3 33  1  6
  4  5  1  0
  4 34  1  0
  4 35  1  0
  6  5  1  6
  5 36  1  0
  5 37  1  0
  6 22  1  0
  6 23  1  0
  6  7  1  0
  7  8  1  0
  7 38  1  0
  7 39  1  0
  8  9  1  0
  8 10  1  0
  8 40  1  1
  9 41  1  0
  9 42  1  0
  9 43  1  0
 10 11  1  0
 10 44  1  1
 11 12  1  0
 11 14  1  0
 11 45  1  6
 12 13  1  0
 13 46  1  0
 13 47  1  0
 13 48  1  0
 14 15  1  0
 14 49  1  6
 15 22  1  0
 15 16  1  6
 15 18  1  0
 16 17  2  0
 16 50  1  0
 18 28  1  0
 18 19  1  0
 18 51  1  6
 19 20  1  0
 19 52  1  0
 19 53  1  0
 20 21  1  0
 20 28  1  0
 20 54  1  6
 22 21  1  6
 21 55  1  0
 21 56  1  0
 22 23  1  0
 23 24  1  0
 23 57  1  6
 24 25  1  0
 25 26  1  0
 25 27  2  0
 26 58  1  0
 26 59  1  0
 26 60  1  0
 28 29  1  0
 28 30  1  0
 29 61  1  0
 29 62  1  0
 29 63  1  0
 30 64  1  0
 30 65  1  0
 30 66  1  0
M  END
>  <i_m_ct_stereo_status>  (338) 
1

>  <s_m_source_file>  (338) 
/var/tmp/pbs.5076255.sched01/tmpbrgkg_oh/138myny07gr.sdf

>  <i_m_source_file_index>  (338) 
12

>  <i_lp_mmshare_version>  (338) 
48012

>  <i_f3d_flags>  (338) 
0

>  <s_epik_input>  (338) 
W0NIM11PW0NAQEhdMVtDQEhdKFtDQEBIXShbQ0gyXTIpW0NIM10pQyg9W0NIMl0pW0NASF0oW0NIMl1bQ0gyXTMpW0NAQEhdMVtDQF0oW0NIXT1PKShbQ0BASF00W0NIMl1bQ0BIXShbQ0gyXTUpQzQoW0NIM10pW0NIM10pW0NAXTUoW0NAQF0yMzYpW0NASF02T0MoPU8pW0NIM10=

>  <s_epik_cmdline>  (338) 
J2VwaWtfcHl0aG9uJywgJy1waHQnLCAnMi4wJywgJy1waCcsICc3LjAnLCAnLXRuJywgJzgnLCAnLW1hJywgJzIwMCcsICctaW1hZScsICc8aW5maWxlLm1hZT4nLCAnLW9tYWUnLCAnPG91dGZpbGUubWFlPic=

>  <r_lp_tautomer_probability>  (338) 
1

>  <r_epik_Ionization_Penalty>  (338) 
1.48819e-11

>  <r_epik_Ionization_Penalty_Charging>  (338) 
0

>  <r_epik_Ionization_Penalty_Neutral>  (338) 
1.48819e-11

>  <r_epik_State_Penalty>  (338) 
-0

>  <r_epik_Charging_Adjusted_Penalty>  (338) 
0

>  <i_epik_Tot_Q>  (338) 
0

>  <i_epik_Tot_abs_Q>  (338) 
0

>  <s_epik_Chemistry_Notes>  (338) 
This compound has an ester and may undergo hydrolysis at high or low pH.

>  <s_lp_Force_Field>  (338) 
OPLS3e

>  <r_lp_Energy>  (338) 
122.157

>  <b_lp_Chiralities_Consistent>  (338) 
1

>  <s_lp_Variant>  (338) 
94:0-1

>  <s_i_glide_gridfile>  (338) 
pfpi4k_grid

>  <i_i_glide_lignum>  (338) 
12

>  <i_i_glide_rotatable_bonds>  (338) 
4

>  <r_i_docking_score>  (338) 
-2.21474

>  <r_i_glide_ligand_efficiency>  (338) 
-0.0738248

>  <r_i_glide_ligand_efficiency_sa>  (338) 
-0.229391

>  <r_i_glide_ligand_efficiency_ln>  (338) 
-0.503214

>  <r_i_glide_gscore>  (338) 
-2.21474

>  <r_i_glide_lipo>  (338) 
-0.786655

>  <r_i_glide_hbond>  (338) 
0

>  <r_i_glide_metal>  (338) 
-0

>  <r_i_glide_rewards>  (338) 
-0.596171

>  <r_i_glide_evdw>  (338) 
-14.9103

>  <r_i_glide_ecoul>  (338) 
-1.0223

>  <r_i_glide_erotb>  (338) 
0.115859

>  <r_i_glide_esite>  (338) 
-0.0489177

>  <r_i_glide_emodel>  (338) 
-16.7643

>  <r_i_glide_energy>  (338) 
-15.9326

>  <r_i_glide_einternal>  (338) 
3.02105

>  <r_i_glide_intrahb_reward>  (338) 
-0

>  <i_i_glide_confnum>  (338) 
2

>  <i_i_glide_posenum>  (338) 
36

>  <r_i_glide_eff_state_penalty>  (338) 
0

>  <ligand_id>  (338) 
94

>  <original_smiles>  (338) 
C=C1C2CCC34CC(C)C1C(OC)C2C1(C=O)C2CC(CC31C4OC(C)=O)C2(C)C

>  <smiles>  (338) 
[H]C(=O)C12C3([H])C([H])(OC([H])([H])[H])C4([H])C(=C([H])[H])C3([H])C([H])([H])C([H])([H])C3(C([H])([H])C4([H])C([H])([H])[H])C([H])(OC(=O)C([H])([H])[H])C13C([H])([H])C1([H])C([H])([H])C2([H])C1(C([H])([H])[H])C([H])([H])[H]

$$$$
94:0:2
     RDKit          3D

 66 71  0  0  1  0  0  0  0  0999 V2000
    2.2380   -4.1881    3.2155 C   0  0  0  0  0  0  0  0  0  0  0  0
    1.7890   -3.2025    4.0067 C   0  0  0  0  0  0  0  0  0  0  0  0
    1.3161   -1.8469    3.5403 C   0  0  2  0  0  0  0  0  0  0  0  0
    2.5733   -0.9718    3.2429 C   0  0  0  0  0  0  0  0  0  0  0  0
    3.3930   -0.4227    4.4441 C   0  0  0  0  0  0  0  0  0  0  0  0
    2.5017   -0.0641    5.6151 C   0  0  2  0  0  0  0  0  0  0  0  0
    2.5244   -1.1726    6.7081 C   0  0  0  0  0  0  0  0  0  0  0  0
    2.6308   -2.6915    6.3379 C   0  0  1  0  0  0  0  0  0  0  0  0
    2.7768   -3.4742    7.6590 C   0  0  0  0  0  0  0  0  0  0  0  0
    1.4998   -3.3337    5.4716 C   0  0  1  0  0  0  0  0  0  0  0  0
    0.1160   -2.6788    5.5418 C   0  0  1  0  0  0  0  0  0  0  0  0
   -0.4573   -2.6030    6.8401 O   0  0  0  0  0  0  0  0  0  0  0  0
   -0.7320   -3.8521    7.4672 C   0  0  0  0  0  0  0  0  0  0  0  0
    0.1706   -1.4305    4.5798 C   0  0  1  0  0  0  0  0  0  0  0  0
   -0.0221    0.0913    5.0851 C   0  0  2  0  0  0  0  0  0  0  0  0
   -0.8601    0.1941    6.3938 C   0  0  0  0  0  0  0  0  0  0  0  0
   -0.4284   -0.0339    7.5211 O   0  0  0  0  0  0  0  0  0  0  0  0
   -1.0003    0.8027    4.0658 C   0  0  2  0  0  0  0  0  0  0  0  0
   -0.4591    0.9794    2.6381 C   0  0  0  0  0  0  0  0  0  0  0  0
    0.1708    2.2302    3.2328 C   0  0  2  0  0  0  0  0  0  0  0  0
    1.4606    1.9737    4.0254 C   0  0  0  0  0  0  0  0  0  0  0  0
    1.3385    0.8773    5.1355 C   0  0  2  0  0  0  0  0  0  0  0  0
    2.3466    1.3033    6.2198 C   0  0  1  0  0  0  0  0  0  0  0  0
    1.8106    1.4549    7.5381 O   0  0  0  0  0  0  0  0  0  0  0  0
    1.3905    2.6632    8.0022 C   0  0  0  0  0  0  0  0  0  0  0  0
    0.8179    2.5902    9.4152 C   0  0  0  0  0  0  0  0  0  0  0  0
    1.4690    3.7342    7.3963 O   0  0  0  0  0  0  0  0  0  0  0  0
   -1.1273    2.3596    4.0485 C   0  0  0  0  0  0  0  0  0  0  0  0
   -2.3642    2.9937    3.3599 C   0  0  0  0  0  0  0  0  0  0  0  0
   -1.0175    3.1271    5.3622 C   0  0  0  0  0  0  0  0  0  0  0  0
    2.4778   -5.1604    3.6332 H   0  0  0  0  0  0  0  0  0  0  0  0
    2.3556   -4.0482    2.1473 H   0  0  0  0  0  0  0  0  0  0  0  0
    0.8453   -2.0249    2.5704 H   0  0  0  0  0  0  0  0  0  0  0  0
    3.2644   -1.5586    2.6257 H   0  0  0  0  0  0  0  0  0  0  0  0
    2.3040   -0.1690    2.5617 H   0  0  0  0  0  0  0  0  0  0  0  0
    4.1764   -1.1140    4.7440 H   0  0  0  0  0  0  0  0  0  0  0  0
    3.9239    0.4772    4.1154 H   0  0  0  0  0  0  0  0  0  0  0  0
    3.4168   -0.9440    7.3063 H   0  0  0  0  0  0  0  0  0  0  0  0
    1.6863   -1.0463    7.3816 H   0  0  0  0  0  0  0  0  0  0  0  0
    3.5659   -2.8741    5.8045 H   0  0  0  0  0  0  0  0  0  0  0  0
    1.9000   -3.3571    8.3000 H   0  0  0  0  0  0  0  0  0  0  0  0
    3.6267   -3.1055    8.2366 H   0  0  0  0  0  0  0  0  0  0  0  0
    2.9346   -4.5374    7.4727 H   0  0  0  0  0  0  0  0  0  0  0  0
    1.4302   -4.4026    5.6735 H   0  0  0  0  0  0  0  0  0  0  0  0
   -0.5526   -3.3702    5.0160 H   0  0  0  0  0  0  0  0  0  0  0  0
   -1.1622   -3.6573    8.4486 H   0  0  0  0  0  0  0  0  0  0  0  0
    0.1538   -4.4615    7.6312 H   0  0  0  0  0  0  0  0  0  0  0  0
   -1.4431   -4.4517    6.8968 H   0  0  0  0  0  0  0  0  0  0  0  0
   -0.7352   -1.5872    4.0041 H   0  0  0  0  0  0  0  0  0  0  0  0
   -1.8944    0.5172    6.2554 H   0  0  0  0  0  0  0  0  0  0  0  0
   -1.9844    0.3438    4.0407 H   0  0  0  0  0  0  0  0  0  0  0  0
    0.2491    0.2349    2.2849 H   0  0  0  0  0  0  0  0  0  0  0  0
   -1.2040    1.1617    1.8560 H   0  0  0  0  0  0  0  0  0  0  0  0
    0.2764    3.0086    2.4771 H   0  0  0  0  0  0  0  0  0  0  0  0
    2.2732    1.7702    3.3302 H   0  0  0  0  0  0  0  0  0  0  0  0
    1.7529    2.9105    4.4827 H   0  0  0  0  0  0  0  0  0  0  0  0
    3.1022    2.0463    5.9857 H   0  0  0  0  0  0  0  0  0  0  0  0
    0.1164    1.7623    9.5308 H   0  0  0  0  0  0  0  0  0  0  0  0
    0.2831    3.5020    9.6650 H   0  0  0  0  0  0  0  0  0  0  0  0
    1.6242    2.4653   10.1369 H   0  0  0  0  0  0  0  0  0  0  0  0
   -2.1918    4.0565    3.1920 H   0  0  0  0  0  0  0  0  0  0  0  0
   -3.2388    2.9032    3.9965 H   0  0  0  0  0  0  0  0  0  0  0  0
   -2.6257    2.5633    2.4021 H   0  0  0  0  0  0  0  0  0  0  0  0
   -0.8097    4.1919    5.1932 H   0  0  0  0  0  0  0  0  0  0  0  0
   -0.1868    2.7528    5.9442 H   0  0  0  0  0  0  0  0  0  0  0  0
   -1.9262    3.0402    5.9722 H   0  0  0  0  0  0  0  0  0  0  0  0
  1  2  2  0
  1 31  1  0
  1 32  1  0
  2 10  1  0
  2  3  1  0
  3 14  1  0
  3  4  1  0
  3 33  1  6
  4  5  1  0
  4 34  1  0
  4 35  1  0
  6  5  1  6
  5 36  1  0
  5 37  1  0
  6 22  1  0
  6 23  1  0
  6  7  1  0
  7  8  1  0
  7 38  1  0
  7 39  1  0
  8  9  1  0
  8 10  1  0
  8 40  1  6
  9 41  1  0
  9 42  1  0
  9 43  1  0
 10 11  1  0
 10 44  1  1
 11 12  1  0
 11 14  1  0
 11 45  1  6
 12 13  1  0
 13 46  1  0
 13 47  1  0
 13 48  1  0
 14 15  1  0
 14 49  1  6
 15 22  1  0
 15 16  1  1
 15 18  1  0
 16 17  2  0
 16 50  1  0
 18 28  1  0
 18 19  1  0
 18 51  1  6
 19 20  1  0
 19 52  1  0
 19 53  1  0
 20 21  1  0
 20 28  1  0
 20 54  1  6
 22 21  1  6
 21 55  1  0
 21 56  1  0
 22 23  1  0
 23 24  1  0
 23 57  1  6
 24 25  1  0
 25 26  1  0
 25 27  2  0
 26 58  1  0
 26 59  1  0
 26 60  1  0
 28 29  1  0
 28 30  1  0
 29 61  1  0
 29 62  1  0
 29 63  1  0
 30 64  1  0
 30 65  1  0
 30 66  1  0
M  END
>  <i_m_ct_stereo_status>  (339) 
1

>  <s_m_source_file>  (339) 
/var/tmp/pbs.5076255.sched01/tmpbrgkg_oh/138myny07gr.sdf

>  <i_m_source_file_index>  (339) 
12

>  <i_lp_mmshare_version>  (339) 
48012

>  <i_f3d_flags>  (339) 
0

>  <s_epik_input>  (339) 
W0NIM11PW0NAQEhdMVtDQEhdKFtDQEBIXShbQ0gyXTIpW0NIM10pQyg9W0NIMl0pW0NASF0oW0NIMl1bQ0gyXTMpW0NAQEhdMVtDQF0oW0NIXT1PKShbQ0BASF00W0NIMl1bQ0BIXShbQ0gyXTUpQzQoW0NIM10pW0NIM10pW0NAXTUoW0NAQF0yMzYpW0NASF02T0MoPU8pW0NIM10=

>  <s_epik_cmdline>  (339) 
J2VwaWtfcHl0aG9uJywgJy1waHQnLCAnMi4wJywgJy1waCcsICc3LjAnLCAnLXRuJywgJzgnLCAnLW1hJywgJzIwMCcsICctaW1hZScsICc8aW5maWxlLm1hZT4nLCAnLW9tYWUnLCAnPG91dGZpbGUubWFlPic=

>  <r_lp_tautomer_probability>  (339) 
1

>  <r_epik_Ionization_Penalty>  (339) 
1.48819e-11

>  <r_epik_Ionization_Penalty_Charging>  (339) 
0

>  <r_epik_Ionization_Penalty_Neutral>  (339) 
1.48819e-11

>  <r_epik_State_Penalty>  (339) 
-0

>  <r_epik_Charging_Adjusted_Penalty>  (339) 
0

>  <i_epik_Tot_Q>  (339) 
0

>  <i_epik_Tot_abs_Q>  (339) 
0

>  <s_epik_Chemistry_Notes>  (339) 
This compound has an ester and may undergo hydrolysis at high or low pH.

>  <s_lp_Force_Field>  (339) 
OPLS3e

>  <r_lp_Energy>  (339) 
122.157

>  <b_lp_Chiralities_Consistent>  (339) 
1

>  <s_lp_Variant>  (339) 
94:0-1

>  <s_i_glide_gridfile>  (339) 
pfpi4k_grid

>  <i_i_glide_lignum>  (339) 
12

>  <i_i_glide_rotatable_bonds>  (339) 
4

>  <r_i_docking_score>  (339) 
-1.76466

>  <r_i_glide_ligand_efficiency>  (339) 
-0.058822

>  <r_i_glide_ligand_efficiency_sa>  (339) 
-0.182774

>  <r_i_glide_ligand_efficiency_ln>  (339) 
-0.40095

>  <r_i_glide_gscore>  (339) 
-1.76466

>  <r_i_glide_lipo>  (339) 
-0.0271349

>  <r_i_glide_hbond>  (339) 
-0.0297748

>  <r_i_glide_metal>  (339) 
-0

>  <r_i_glide_rewards>  (339) 
-0.596171

>  <r_i_glide_evdw>  (339) 
-16.5119

>  <r_i_glide_ecoul>  (339) 
-2.31082

>  <r_i_glide_erotb>  (339) 
0.115859

>  <r_i_glide_esite>  (339) 
-0.0552237

>  <r_i_glide_emodel>  (339) 
-19.4115

>  <r_i_glide_energy>  (339) 
-18.8227

>  <r_i_glide_einternal>  (339) 
2.20435

>  <r_i_glide_intrahb_reward>  (339) 
-0

>  <i_i_glide_confnum>  (339) 
3

>  <i_i_glide_posenum>  (339) 
16

>  <r_i_glide_eff_state_penalty>  (339) 
0

>  <ligand_id>  (339) 
94

>  <original_smiles>  (339) 
C=C1C2CCC34CC(C)C1C(OC)C2C1(C=O)C2CC(CC31C4OC(C)=O)C2(C)C

>  <smiles>  (339) 
[H]C(=O)C12C3([H])C([H])(OC([H])([H])[H])C4([H])C(=C([H])[H])C3([H])C([H])([H])C([H])([H])C3(C([H])([H])C4([H])C([H])([H])[H])C([H])(OC(=O)C([H])([H])[H])C13C([H])([H])C1([H])C([H])([H])C2([H])C1(C([H])([H])[H])C([H])([H])[H]

$$$$
95:0:0
     RDKit          3D

 35 40  0  0  1  0  0  0  0  0999 V2000
    3.2403    0.1077   -5.0823 C   0  0  0  0  0  0  0  0  0  0  0  0
    3.7618   -0.6126   -3.8537 C   0  0  0  0  0  0  0  0  0  0  0  0
    4.1543    0.0723   -2.9054 O   0  0  0  0  0  0  0  0  0  0  0  0
    3.7595   -1.9981   -3.9946 N   0  0  0  0  0  0  0  0  0  0  0  0
    3.7436   -2.7687   -2.9834 C   0  0  0  0  0  0  0  0  0  0  0  0
    3.5736   -2.4477   -1.4818 C   0  0  2  0  0  0  0  0  0  0  0  0
    4.8569   -1.8351   -0.8491 C   0  0  1  0  0  0  0  0  0  0  0  0
    4.4112   -0.7963    0.1839 C   0  0  0  0  0  0  0  0  0  0  0  0
    4.4051   -1.5504    1.4779 C   0  0  2  0  0  0  0  0  0  0  0  0
    5.4379   -2.6494    1.4108 C   0  0  2  0  0  0  0  0  0  0  0  0
    5.7775   -2.8241   -0.0731 C   0  0  1  0  0  0  0  0  0  0  0  0
    5.5663   -4.2765   -0.5313 C   0  0  0  0  0  0  0  0  0  0  0  0
    4.1042   -4.6713   -0.2950 C   0  0  2  0  0  0  0  0  0  0  0  0
    3.0912   -3.6704   -0.7002 C   0  0  2  0  0  0  0  0  0  0  0  0
    1.8550   -4.2084   -1.0991 O   0  0  0  0  0  0  0  0  0  0  0  0
    3.2777   -3.9602    0.8045 C   0  0  1  0  0  0  0  0  0  0  0  0
    3.3227   -2.6186    1.5901 C   0  0  2  0  0  0  0  0  0  0  0  0
    4.3806   -3.6398    1.7936 C   0  0  2  0  0  0  0  0  0  0  0  0
    2.1758   -0.1193   -5.2082 H   0  0  0  0  0  0  0  0  0  0  0  0
    3.7750   -0.1917   -5.9870 H   0  0  0  0  0  0  0  0  0  0  0  0
    3.3566    1.1751   -4.9292 H   0  0  0  0  0  0  0  0  0  0  0  0
    3.8359   -3.8445   -3.1478 H   0  0  0  0  0  0  0  0  0  0  0  0
    2.7365   -1.7566   -1.4494 H   0  0  0  0  0  0  0  0  0  0  0  0
    5.4926   -1.3774   -1.5999 H   0  0  0  0  0  0  0  0  0  0  0  0
    5.1556   -0.0037    0.2460 H   0  0  0  0  0  0  0  0  0  0  0  0
    3.4511   -0.3124    0.0086 H   0  0  0  0  0  0  0  0  0  0  0  0
    4.4799   -0.9714    2.3919 H   0  0  0  0  0  0  0  0  0  0  0  0
    6.2483   -2.5426    2.1235 H   0  0  0  0  0  0  0  0  0  0  0  0
    6.8254   -2.5217   -0.2396 H   0  0  0  0  0  0  0  0  0  0  0  0
    5.7729   -4.3622   -1.5903 H   0  0  0  0  0  0  0  0  0  0  0  0
    6.2338   -4.9514    0.0121 H   0  0  0  0  0  0  0  0  0  0  0  0
    3.8941   -5.7264   -0.4265 H   0  0  0  0  0  0  0  0  0  0  0  0
    2.0445   -4.7994   -1.8341 H   0  0  0  0  0  0  0  0  0  0  0  0
    2.6105   -2.4693    2.3996 H   0  0  0  0  0  0  0  0  0  0  0  0
    4.4433   -4.1097    2.7744 H   0  0  0  0  0  0  0  0  0  0  0  0
  1  2  1  0
  1 19  1  0
  1 20  1  0
  1 21  1  0
  2  3  2  0
  2  4  1  0
  4  5  2  3
  5  6  1  0
  5 22  1  0
  6 14  1  0
  6  7  1  0
  6 23  1  6
  7 11  1  0
  7  8  1  0
  7 24  1  6
  8  9  1  0
  8 25  1  0
  8 26  1  0
  9 17  1  0
  9 10  1  0
  9 27  1  1
 10 18  1  0
 10 11  1  0
 10 28  1  1
 11 12  1  0
 11 29  1  1
 12 13  1  0
 12 30  1  0
 12 31  1  0
 13 16  1  0
 13 14  1  0
 13 32  1  6
 14 15  1  6
 16 14  1  6
 15 33  1  0
 16 18  1  0
 16 17  1  0
 17 18  1  0
 17 34  1  1
 18 35  1  1
M  END
>  <i_m_ct_stereo_status>  (340) 
1

>  <s_m_source_file>  (340) 
/var/tmp/pbs.5076255.sched01/tmpbrgkg_oh/138myny07gr.sdf

>  <i_m_source_file_index>  (340) 
13

>  <i_lp_mmshare_version>  (340) 
48012

>  <i_f3d_flags>  (340) 
2

>  <s_epik_input>  (340) 
W0NIM11DKD1PKS9OPVtDSF0vW0NAQEhdKFtDQF0xKFtDQEBIXTJDMTM0KVtPSF0pW0NAQEhdNVtDQEhdKFtDSDJdMilbQ0BIXTZbQ0BASF0oW0NIMl01KVtDQEBIXTNbQ0BASF00Ng==

>  <s_epik_cmdline>  (340) 
J2VwaWtfcHl0aG9uJywgJy1waHQnLCAnMi4wJywgJy1waCcsICc3LjAnLCAnLXRuJywgJzgnLCAnLW1hJywgJzIwMCcsICctaW1hZScsICc8aW5maWxlLm1hZT4nLCAnLW9tYWUnLCAnPG91dGZpbGUubWFlPic=

>  <r_lp_tautomer_probability>  (340) 
1

>  <r_epik_Ionization_Penalty>  (340) 
2.35953e-07

>  <r_epik_Ionization_Penalty_Charging>  (340) 
0

>  <r_epik_Ionization_Penalty_Neutral>  (340) 
2.35953e-07

>  <r_epik_State_Penalty>  (340) 
-0

>  <r_epik_Charging_Adjusted_Penalty>  (340) 
0

>  <i_epik_Tot_Q>  (340) 
0

>  <i_epik_Tot_abs_Q>  (340) 
0

>  <s_epik_Chemistry_Notes>  (340) 
This compound has an imine and may undergo hydrolysis.

>  <s_lp_Force_Field>  (340) 
OPLS3e

>  <r_lp_Energy>  (340) 
61.1708

>  <b_lp_Chiralities_Consistent>  (340) 
0

>  <s_lp_Variant>  (340) 
95:0-1

>  <s_i_glide_gridfile>  (340) 
pfpi4k_grid

>  <i_i_glide_lignum>  (340) 
13

>  <i_i_glide_rotatable_bonds>  (340) 
3

>  <r_i_docking_score>  (340) 
-4.64702

>  <r_i_glide_ligand_efficiency>  (340) 
-0.258168

>  <r_i_glide_ligand_efficiency_sa>  (340) 
-0.676591

>  <r_i_glide_ligand_efficiency_ln>  (340) 
-1.19449

>  <r_i_glide_gscore>  (340) 
-4.64702

>  <r_i_glide_lipo>  (340) 
-0.32553

>  <r_i_glide_hbond>  (340) 
-0.470177

>  <r_i_glide_metal>  (340) 
-0

>  <r_i_glide_rewards>  (340) 
-2.15284

>  <r_i_glide_evdw>  (340) 
-26.2082

>  <r_i_glide_ecoul>  (340) 
-6.4981

>  <r_i_glide_erotb>  (340) 
0.586647

>  <r_i_glide_esite>  (340) 
0

>  <r_i_glide_emodel>  (340) 
-40.2113

>  <r_i_glide_energy>  (340) 
-32.7063

>  <r_i_glide_einternal>  (340) 
2.80713

>  <r_i_glide_intrahb_reward>  (340) 
-0

>  <i_i_glide_confnum>  (340) 
5

>  <i_i_glide_posenum>  (340) 
26

>  <r_i_glide_eff_state_penalty>  (340) 
0

>  <ligand_id>  (340) 
95

>  <original_smiles>  (340) 
CC(=O)N=CC1C2CC3C4C2CC2C1(O)C21C3C41

>  <smiles>  (340) 
[H]OC12C([H])(C([H])=NC(=O)C([H])([H])[H])C3([H])C([H])([H])C4([H])C5([H])C3([H])C([H])([H])C1([H])C21C4([H])C51[H]

$$$$
95:0:1
     RDKit          3D

 35 40  0  0  1  0  0  0  0  0999 V2000
    3.2624    0.1454   -5.3170 C   0  0  0  0  0  0  0  0  0  0  0  0
    3.8041   -0.5086   -4.0640 C   0  0  0  0  0  0  0  0  0  0  0  0
    4.2141    0.2470   -3.1744 O   0  0  0  0  0  0  0  0  0  0  0  0
    3.7870   -1.8955   -4.1167 N   0  0  0  0  0  0  0  0  0  0  0  0
    3.8748   -2.6052   -3.0616 C   0  0  0  0  0  0  0  0  0  0  0  0
    3.8972   -2.1706   -1.5846 C   0  0  2  0  0  0  0  0  0  0  0  0
    5.3380   -1.8157   -1.1055 C   0  0  1  0  0  0  0  0  0  0  0  0
    5.2561   -0.6711   -0.0912 C   0  0  0  0  0  0  0  0  0  0  0  0
    5.1856   -1.3629    1.2298 C   0  0  2  0  0  0  0  0  0  0  0  0
    5.9145   -2.6626    1.1387 C   0  0  2  0  0  0  0  0  0  0  0  0
    6.0850   -2.9676   -0.3499 C   0  0  1  0  0  0  0  0  0  0  0  0
    5.5014   -4.3544   -0.6736 C   0  0  0  0  0  0  0  0  0  0  0  0
    4.0180   -4.3887   -0.2933 C   0  0  2  0  0  0  0  0  0  0  0  0
    3.2468   -3.2291   -0.6984 C   0  0  2  0  0  0  0  0  0  0  0  0
    1.8994   -3.4756   -1.0230 O   0  0  0  0  0  0  0  0  0  0  0  0
    3.4644   -3.4584    0.7955 C   0  0  1  0  0  0  0  0  0  0  0  0
    3.8925   -2.1340    1.4747 C   0  0  2  0  0  0  0  0  0  0  0  0
    4.6853   -3.3713    1.6596 C   0  0  1  0  0  0  0  0  0  0  0  0
    2.2039   -0.0872   -5.4271 H   0  0  0  0  0  0  0  0  0  0  0  0
    3.8003   -0.1982   -6.2027 H   0  0  0  0  0  0  0  0  0  0  0  0
    3.3688    1.2275   -5.2342 H   0  0  0  0  0  0  0  0  0  0  0  0
    3.9331   -3.6933   -3.1698 H   0  0  0  0  0  0  0  0  0  0  0  0
    3.2298   -1.3175   -1.4790 H   0  0  0  0  0  0  0  0  0  0  0  0
    5.9276   -1.4862   -1.9538 H   0  0  0  0  0  0  0  0  0  0  0  0
    6.1817   -0.1110   -0.1176 H   0  0  0  0  0  0  0  0  0  0  0  0
    4.4485    0.0462   -0.2462 H   0  0  0  0  0  0  0  0  0  0  0  0
    5.4814   -0.7719    2.0981 H   0  0  0  0  0  0  0  0  0  0  0  0
    6.8004   -2.7293    1.7759 H   0  0  0  0  0  0  0  0  0  0  0  0
    7.1364   -2.9333   -0.6110 H   0  0  0  0  0  0  0  0  0  0  0  0
    5.5746   -4.5615   -1.7364 H   0  0  0  0  0  0  0  0  0  0  0  0
    6.0399   -5.1348   -0.1355 H   0  0  0  0  0  0  0  0  0  0  0  0
    3.5593   -5.3594   -0.3732 H   0  0  0  0  0  0  0  0  0  0  0  0
    1.5063   -2.6011   -1.1209 H   0  0  0  0  0  0  0  0  0  0  0  0
    3.3068   -1.7707    2.3060 H   0  0  0  0  0  0  0  0  0  0  0  0
    4.7440   -3.7904    2.6530 H   0  0  0  0  0  0  0  0  0  0  0  0
  1  2  1  0
  1 19  1  0
  1 20  1  0
  1 21  1  0
  2  3  2  0
  2  4  1  0
  4  5  2  3
  5  6  1  0
  5 22  1  0
  6 14  1  0
  6  7  1  0
  6 23  1  6
  7 11  1  0
  7  8  1  0
  7 24  1  6
  8  9  1  0
  8 25  1  0
  8 26  1  0
  9 17  1  0
  9 10  1  0
  9 27  1  1
 10 18  1  0
 10 11  1  0
 10 28  1  1
 11 12  1  0
 11 29  1  6
 12 13  1  0
 12 30  1  0
 12 31  1  0
 13 16  1  0
 13 14  1  0
 13 32  1  1
 14 15  1  1
 16 14  1  6
 15 33  1  0
 16 18  1  0
 16 17  1  0
 17 18  1  0
 17 34  1  1
 18 35  1  1
M  END
>  <i_m_ct_stereo_status>  (341) 
1

>  <s_m_source_file>  (341) 
/var/tmp/pbs.5076255.sched01/tmpbrgkg_oh/138myny07gr.sdf

>  <i_m_source_file_index>  (341) 
13

>  <i_lp_mmshare_version>  (341) 
48012

>  <i_f3d_flags>  (341) 
2

>  <s_epik_input>  (341) 
W0NIM11DKD1PKS9OPVtDSF0vW0NAQEhdKFtDQF0xKFtDQEBIXTJDMTM0KVtPSF0pW0NAQEhdNVtDQEhdKFtDSDJdMilbQ0BIXTZbQ0BASF0oW0NIMl01KVtDQEBIXTNbQ0BASF00Ng==

>  <s_epik_cmdline>  (341) 
J2VwaWtfcHl0aG9uJywgJy1waHQnLCAnMi4wJywgJy1waCcsICc3LjAnLCAnLXRuJywgJzgnLCAnLW1hJywgJzIwMCcsICctaW1hZScsICc8aW5maWxlLm1hZT4nLCAnLW9tYWUnLCAnPG91dGZpbGUubWFlPic=

>  <r_lp_tautomer_probability>  (341) 
1

>  <r_epik_Ionization_Penalty>  (341) 
2.35953e-07

>  <r_epik_Ionization_Penalty_Charging>  (341) 
0

>  <r_epik_Ionization_Penalty_Neutral>  (341) 
2.35953e-07

>  <r_epik_State_Penalty>  (341) 
-0

>  <r_epik_Charging_Adjusted_Penalty>  (341) 
0

>  <i_epik_Tot_Q>  (341) 
0

>  <i_epik_Tot_abs_Q>  (341) 
0

>  <s_epik_Chemistry_Notes>  (341) 
This compound has an imine and may undergo hydrolysis.

>  <s_lp_Force_Field>  (341) 
OPLS3e

>  <r_lp_Energy>  (341) 
61.1708

>  <b_lp_Chiralities_Consistent>  (341) 
0

>  <s_lp_Variant>  (341) 
95:0-1

>  <s_i_glide_gridfile>  (341) 
pfpi4k_grid

>  <i_i_glide_lignum>  (341) 
13

>  <i_i_glide_rotatable_bonds>  (341) 
3

>  <r_i_docking_score>  (341) 
-4.64062

>  <r_i_glide_ligand_efficiency>  (341) 
-0.257812

>  <r_i_glide_ligand_efficiency_sa>  (341) 
-0.675659

>  <r_i_glide_ligand_efficiency_ln>  (341) 
-1.19285

>  <r_i_glide_gscore>  (341) 
-4.64062

>  <r_i_glide_lipo>  (341) 
-0.450938

>  <r_i_glide_hbond>  (341) 
-0.413952

>  <r_i_glide_metal>  (341) 
-0

>  <r_i_glide_rewards>  (341) 
-2.23996

>  <r_i_glide_evdw>  (341) 
-26.5879

>  <r_i_glide_ecoul>  (341) 
-4.11352

>  <r_i_glide_erotb>  (341) 
0.410653

>  <r_i_glide_esite>  (341) 
0

>  <r_i_glide_emodel>  (341) 
-39.5669

>  <r_i_glide_energy>  (341) 
-30.7014

>  <r_i_glide_einternal>  (341) 
1.46767

>  <r_i_glide_intrahb_reward>  (341) 
-0

>  <i_i_glide_confnum>  (341) 
5

>  <i_i_glide_posenum>  (341) 
14

>  <r_i_glide_eff_state_penalty>  (341) 
0

>  <ligand_id>  (341) 
95

>  <original_smiles>  (341) 
CC(=O)N=CC1C2CC3C4C2CC2C1(O)C21C3C41

>  <smiles>  (341) 
[H]OC12C([H])(C([H])=NC(=O)C([H])([H])[H])C3([H])C([H])([H])C4([H])C5([H])C3([H])C([H])([H])C1([H])C21C4([H])C51[H]

$$$$
95:0:2
     RDKit          3D

 35 40  0  0  1  0  0  0  0  0999 V2000
    3.5760    0.2859   -5.2022 C   0  0  0  0  0  0  0  0  0  0  0  0
    3.4405   -0.6184   -4.0023 C   0  0  0  0  0  0  0  0  0  0  0  0
    2.6230   -0.2633   -3.1577 O   0  0  0  0  0  0  0  0  0  0  0  0
    4.2485   -1.7219   -3.9465 N   0  0  0  0  0  0  0  0  0  0  0  0
    4.3880   -2.3845   -2.8556 C   0  0  0  0  0  0  0  0  0  0  0  0
    3.8962   -2.1405   -1.3914 C   0  0  2  0  0  0  0  0  0  0  0  0
    5.0389   -1.5349   -0.5233 C   0  0  1  0  0  0  0  0  0  0  0  0
    4.4337   -0.5495    0.4857 C   0  0  0  0  0  0  0  0  0  0  0  0
    4.1546   -1.3895    1.6931 C   0  0  2  0  0  0  0  0  0  0  0  0
    5.1643   -2.4973    1.7528 C   0  0  2  0  0  0  0  0  0  0  0  0
    5.7978   -2.5859    0.3601 C   0  0  1  0  0  0  0  0  0  0  0  0
    5.6680   -4.0211   -0.1862 C   0  0  0  0  0  0  0  0  0  0  0  0
    4.1876   -4.4035   -0.2374 C   0  0  2  0  0  0  0  0  0  0  0  0
    3.2976   -3.3990   -0.7983 C   0  0  2  0  0  0  0  0  0  0  0  0
    2.1315   -3.8570   -1.4342 O   0  0  0  0  0  0  0  0  0  0  0  0
    3.1490   -3.7378    0.6799 C   0  0  1  0  0  0  0  0  0  0  0  0
    3.0630   -2.4352    1.5070 C   0  0  2  0  0  0  0  0  0  0  0  0
    4.0415   -3.4925    1.8537 C   0  0  2  0  0  0  0  0  0  0  0  0
    3.1779   -0.2180   -6.0805 H   0  0  0  0  0  0  0  0  0  0  0  0
    4.6197    0.5622   -5.3240 H   0  0  0  0  0  0  0  0  0  0  0  0
    3.0245    1.2148   -5.0428 H   0  0  0  0  0  0  0  0  0  0  0  0
    4.9826   -3.2982   -2.9256 H   0  0  0  0  0  0  0  0  0  0  0  0
    3.0473   -1.4755   -1.3060 H   0  0  0  0  0  0  0  0  0  0  0  0
    5.7256   -0.9828   -1.1653 H   0  0  0  0  0  0  0  0  0  0  0  0
    5.1853    0.1938    0.7344 H   0  0  0  0  0  0  0  0  0  0  0  0
    3.5662    0.0096    0.1378 H   0  0  0  0  0  0  0  0  0  0  0  0
    4.0657   -0.8279    2.6276 H   0  0  0  0  0  0  0  0  0  0  0  0
    5.8375   -2.4301    2.6101 H   0  0  0  0  0  0  0  0  0  0  0  0
    6.8405   -2.2957    0.4063 H   0  0  0  0  0  0  0  0  0  0  0  0
    6.0931   -4.0906   -1.1817 H   0  0  0  0  0  0  0  0  0  0  0  0
    6.2068   -4.7274    0.4412 H   0  0  0  0  0  0  0  0  0  0  0  0
    3.9919   -5.4351   -0.4730 H   0  0  0  0  0  0  0  0  0  0  0  0
    2.3866   -4.4920   -2.0909 H   0  0  0  0  0  0  0  0  0  0  0  0
    2.1792   -2.2865    2.1019 H   0  0  0  0  0  0  0  0  0  0  0  0
    3.9287   -4.0225    2.7787 H   0  0  0  0  0  0  0  0  0  0  0  0
  1  2  1  0
  1 19  1  0
  1 20  1  0
  1 21  1  0
  2  3  2  0
  2  4  1  0
  4  5  2  3
  5  6  1  0
  5 22  1  0
  6 14  1  0
  6  7  1  0
  6 23  1  6
  7 11  1  0
  7  8  1  0
  7 24  1  6
  8  9  1  0
  8 25  1  0
  8 26  1  0
  9 17  1  0
  9 10  1  0
  9 27  1  1
 10 18  1  0
 10 11  1  0
 10 28  1  1
 11 12  1  0
 11 29  1  1
 12 13  1  0
 12 30  1  0
 12 31  1  0
 13 16  1  0
 13 14  1  0
 13 32  1  6
 14 15  1  6
 16 14  1  6
 15 33  1  0
 16 18  1  0
 16 17  1  0
 17 18  1  0
 17 34  1  1
 18 35  1  1
M  END
>  <i_m_ct_stereo_status>  (342) 
1

>  <s_m_source_file>  (342) 
/var/tmp/pbs.5076255.sched01/tmpbrgkg_oh/138myny07gr.sdf

>  <i_m_source_file_index>  (342) 
13

>  <i_lp_mmshare_version>  (342) 
48012

>  <i_f3d_flags>  (342) 
2

>  <s_epik_input>  (342) 
W0NIM11DKD1PKS9OPVtDSF0vW0NAQEhdKFtDQF0xKFtDQEBIXTJDMTM0KVtPSF0pW0NAQEhdNVtDQEhdKFtDSDJdMilbQ0BIXTZbQ0BASF0oW0NIMl01KVtDQEBIXTNbQ0BASF00Ng==

>  <s_epik_cmdline>  (342) 
J2VwaWtfcHl0aG9uJywgJy1waHQnLCAnMi4wJywgJy1waCcsICc3LjAnLCAnLXRuJywgJzgnLCAnLW1hJywgJzIwMCcsICctaW1hZScsICc8aW5maWxlLm1hZT4nLCAnLW9tYWUnLCAnPG91dGZpbGUubWFlPic=

>  <r_lp_tautomer_probability>  (342) 
1

>  <r_epik_Ionization_Penalty>  (342) 
2.35953e-07

>  <r_epik_Ionization_Penalty_Charging>  (342) 
0

>  <r_epik_Ionization_Penalty_Neutral>  (342) 
2.35953e-07

>  <r_epik_State_Penalty>  (342) 
-0

>  <r_epik_Charging_Adjusted_Penalty>  (342) 
0

>  <i_epik_Tot_Q>  (342) 
0

>  <i_epik_Tot_abs_Q>  (342) 
0

>  <s_epik_Chemistry_Notes>  (342) 
This compound has an imine and may undergo hydrolysis.

>  <s_lp_Force_Field>  (342) 
OPLS3e

>  <r_lp_Energy>  (342) 
61.1708

>  <b_lp_Chiralities_Consistent>  (342) 
0

>  <s_lp_Variant>  (342) 
95:0-1

>  <s_i_glide_gridfile>  (342) 
pfpi4k_grid

>  <i_i_glide_lignum>  (342) 
13

>  <i_i_glide_rotatable_bonds>  (342) 
3

>  <r_i_docking_score>  (342) 
-4.45443

>  <r_i_glide_ligand_efficiency>  (342) 
-0.247468

>  <r_i_glide_ligand_efficiency_sa>  (342) 
-0.64855

>  <r_i_glide_ligand_efficiency_ln>  (342) 
-1.14499

>  <r_i_glide_gscore>  (342) 
-4.45443

>  <r_i_glide_lipo>  (342) 
-0.472117

>  <r_i_glide_hbond>  (342) 
-0.425354

>  <r_i_glide_metal>  (342) 
-0

>  <r_i_glide_rewards>  (342) 
-2.24962

>  <r_i_glide_evdw>  (342) 
-23.1694

>  <r_i_glide_ecoul>  (342) 
-4.90343

>  <r_i_glide_erotb>  (342) 
0.586647

>  <r_i_glide_esite>  (342) 
0

>  <r_i_glide_emodel>  (342) 
-36.4486

>  <r_i_glide_energy>  (342) 
-28.0728

>  <r_i_glide_einternal>  (342) 
1.23931

>  <r_i_glide_intrahb_reward>  (342) 
-0

>  <i_i_glide_confnum>  (342) 
1

>  <i_i_glide_posenum>  (342) 
32

>  <r_i_glide_eff_state_penalty>  (342) 
0

>  <ligand_id>  (342) 
95

>  <original_smiles>  (342) 
CC(=O)N=CC1C2CC3C4C2CC2C1(O)C21C3C41

>  <smiles>  (342) 
[H]OC12C([H])(C([H])=NC(=O)C([H])([H])[H])C3([H])C([H])([H])C4([H])C5([H])C3([H])C([H])([H])C1([H])C21C4([H])C51[H]

$$$$
96:0:0
     RDKit          3D

 55 62  0  0  1  0  0  0  0  0999 V2000
    2.3163   -6.5806    1.5490 C   0  0  0  0  0  0  0  0  0  0  0  0
    3.1661   -5.3426    1.7185 C   0  0  0  0  0  0  0  0  0  0  0  0
    4.4165   -5.2753    1.2165 C   0  0  0  0  0  0  0  0  0  0  0  0
    5.2744   -4.0606    1.4809 C   0  0  1  0  0  0  0  0  0  0  0  0
    5.7052   -4.0085    2.8362 O   0  0  0  0  0  0  0  0  0  0  0  0
    4.7579   -3.5096    3.7869 C   0  0  2  0  0  0  0  0  0  0  0  0
    4.0149   -4.5403    4.5006 O   0  0  0  0  0  0  0  0  0  0  0  0
    2.7085   -4.1743    4.0318 C   0  0  1  0  0  0  0  0  0  0  0  0
    2.5448   -4.2481    2.5501 C   0  0  1  0  0  0  0  0  0  0  0  0
    3.4076   -3.1438    3.2105 C   0  0  2  0  0  0  0  0  0  0  0  0
    3.0895   -1.6731    2.7387 C   0  0  2  0  0  0  0  0  0  0  0  0
    3.0246   -1.5189    1.1808 C   0  0  0  0  0  0  0  0  0  0  0  0
    4.3282   -0.8325    0.6412 C   0  0  1  0  0  0  0  0  0  0  0  0
    5.1162   -0.4877    1.9010 C   0  0  2  0  0  0  0  0  0  0  0  0
    6.1141   -1.4994    1.9906 O   0  0  0  0  0  0  0  0  0  0  0  0
    6.5645   -1.9237    0.7062 C   0  0  1  0  0  0  0  0  0  0  0  0
    7.8431   -1.4178    0.3984 O   0  0  0  0  0  0  0  0  0  0  0  0
    6.2514   -3.4687    0.4692 C   0  0  1  0  0  0  0  0  0  0  0  0
    7.4793   -4.3822    0.3688 C   0  0  0  0  0  0  0  0  0  0  0  0
    5.6487   -2.8989   -0.8339 C   0  0  1  0  0  0  0  0  0  0  0  0
    4.5499   -3.1750   -1.8168 C   0  0  1  0  0  0  0  0  0  0  0  0
    4.8683   -4.1442   -2.9623 C   0  0  0  0  0  0  0  0  0  0  0  0
    3.3557   -3.6399   -1.2325 O   0  0  0  0  0  0  0  0  0  0  0  0
    4.4206   -1.7004   -2.2883 C   0  0  0  0  0  0  0  0  0  0  0  0
    5.4093   -0.9429   -1.5318 O   0  0  0  0  0  0  0  0  0  0  0  0
    5.4112   -1.5195   -0.2294 C   0  0  1  0  0  0  0  0  0  0  0  0
    4.0988   -0.5267    3.0651 C   0  0  0  0  0  0  0  0  0  0  0  0
    3.3808    0.6901    2.9667 O   0  0  0  0  0  0  0  0  0  0  0  0
    4.7048   -0.5732    4.3351 O   0  0  0  0  0  0  0  0  0  0  0  0
    1.3696   -6.3350    1.0700 H   0  0  0  0  0  0  0  0  0  0  0  0
    2.1051   -7.0444    2.5155 H   0  0  0  0  0  0  0  0  0  0  0  0
    2.8376   -7.3158    0.9345 H   0  0  0  0  0  0  0  0  0  0  0  0
    4.8659   -6.0878    0.6654 H   0  0  0  0  0  0  0  0  0  0  0  0
    4.5430   -3.3321    1.2919 H   0  0  0  0  0  0  0  0  0  0  0  0
    5.2295   -2.8529    4.5117 H   0  0  0  0  0  0  0  0  0  0  0  0
    1.9685   -3.8580    4.7536 H   0  0  0  0  0  0  0  0  0  0  0  0
    1.5595   -3.9825    2.1741 H   0  0  0  0  0  0  0  0  0  0  0  0
    2.1112   -1.4374    3.1522 H   0  0  0  0  0  0  0  0  0  0  0  0
    2.7294   -2.4166    0.6651 H   0  0  0  0  0  0  0  0  0  0  0  0
    2.2171   -0.8229    0.9559 H   0  0  0  0  0  0  0  0  0  0  0  0
    4.0271    0.1069    0.1628 H   0  0  0  0  0  0  0  0  0  0  0  0
    5.6245    0.4740    1.7985 H   0  0  0  0  0  0  0  0  0  0  0  0
    7.9097   -0.5913    0.8591 H   0  0  0  0  0  0  0  0  0  0  0  0
    8.2262   -3.9931   -0.3286 H   0  0  0  0  0  0  0  0  0  0  0  0
    7.2172   -5.3910    0.0547 H   0  0  0  0  0  0  0  0  0  0  0  0
    7.9828   -4.4784    1.3293 H   0  0  0  0  0  0  0  0  0  0  0  0
    6.5507   -2.8417   -1.4527 H   0  0  0  0  0  0  0  0  0  0  0  0
    5.7397   -3.8466   -3.5442 H   0  0  0  0  0  0  0  0  0  0  0  0
    4.0285   -4.2060   -3.6538 H   0  0  0  0  0  0  0  0  0  0  0  0
    5.0136   -5.1495   -2.5800 H   0  0  0  0  0  0  0  0  0  0  0  0
    3.1079   -4.4420   -1.6736 H   0  0  0  0  0  0  0  0  0  0  0  0
    4.6248   -1.5912   -3.3542 H   0  0  0  0  0  0  0  0  0  0  0  0
    3.4228   -1.3030   -2.0847 H   0  0  0  0  0  0  0  0  0  0  0  0
    3.9991    1.4023    2.8997 H   0  0  0  0  0  0  0  0  0  0  0  0
    4.0209   -0.6992    4.9763 H   0  0  0  0  0  0  0  0  0  0  0  0
  1  2  1  0
  1 30  1  0
  1 31  1  0
  1 32  1  0
  2  9  1  0
  2  3  2  0
  3  4  1  0
  3 33  1  0
  4 18  1  0
  4  5  1  0
  4 34  1  1
  5  6  1  0
  6 10  1  0
  6  7  1  0
  6 35  1  1
  7  8  1  0
  8 10  1  0
  8  9  1  0
  8 36  1  1
  9 10  1  0
  9 37  1  1
 10 11  1  1
 11 27  1  0
 11 12  1  0
 11 38  1  1
 12 13  1  0
 12 39  1  0
 12 40  1  0
 13 26  1  0
 13 14  1  0
 13 41  1  6
 14 15  1  0
 14 27  1  0
 14 42  1  6
 15 16  1  0
 16 26  1  0
 16 17  1  6
 16 18  1  0
 17 43  1  0
 18 19  1  6
 18 20  1  0
 19 44  1  0
 19 45  1  0
 19 46  1  0
 20 26  1  0
 20 21  1  0
 20 47  1  6
 21 22  1  0
 21 23  1  1
 21 24  1  0
 22 48  1  0
 22 49  1  0
 22 50  1  0
 23 51  1  0
 24 25  1  0
 24 52  1  0
 24 53  1  0
 26 25  1  6
 27 28  1  0
 27 29  1  0
 28 54  1  0
 29 55  1  0
M  END
>  <i_m_ct_stereo_status>  (343) 
1

>  <s_m_source_file>  (343) 
/var/tmp/pbs.5076255.sched01/tmpbrgkg_oh/138myny07gr.sdf

>  <i_m_source_file_index>  (343) 
14

>  <i_lp_mmshare_version>  (343) 
48012

>  <i_f3d_flags>  (343) 
0

>  <s_epik_input>  (343) 
TzFbQ0BASF0yW0NAQEhdM0MoW0NIM10pPVtDSF1bQ0BASF0oT1tDQEhdMVtDQF0yMzQpW0NAXTUoW0NIM10pW0NAQF02KFtPSF0pW0NAQF03KFtDQEBIXTVbQ0BAXShbQ0gzXSkoW09IXSlbQ0gyXU83KVtDQEBIXThbQ0BIXShPNilDKFtPSF0pKFtPSF0pW0NASF00W0NIMl04

>  <s_epik_cmdline>  (343) 
J2VwaWtfcHl0aG9uJywgJy1waHQnLCAnMi4wJywgJy1waCcsICc3LjAnLCAnLXRuJywgJzgnLCAnLW1hJywgJzIwMCcsICctaW1hZScsICc8aW5maWxlLm1hZT4nLCAnLW9tYWUnLCAnPG91dGZpbGUubWFlPic=

>  <r_lp_tautomer_probability>  (343) 
1

>  <r_epik_Ionization_Penalty>  (343) 
4.91328e-06

>  <r_epik_Ionization_Penalty_Charging>  (343) 
0

>  <r_epik_Ionization_Penalty_Neutral>  (343) 
4.91328e-06

>  <r_epik_State_Penalty>  (343) 
-0

>  <r_epik_Charging_Adjusted_Penalty>  (343) 
0

>  <i_epik_Tot_Q>  (343) 
0

>  <i_epik_Tot_abs_Q>  (343) 
0

>  <s_epik_Chemistry_Notes>  (343) 
This compound contains an acetal/aminal-like group ( X-CH(R)-Y where X, Y are N, S, or O) that may be acid/base labile, releasing an aldehyde.

>  <s_lp_Force_Field>  (343) 
OPLS3e

>  <r_lp_Energy>  (343) 
104.737

>  <b_lp_Chiralities_Consistent>  (343) 
1

>  <s_lp_Variant>  (343) 
96:0-1

>  <s_i_glide_gridfile>  (343) 
pfpi4k_grid

>  <i_i_glide_lignum>  (343) 
14

>  <i_i_glide_rotatable_bonds>  (343) 
4

>  <r_i_docking_score>  (343) 
-3.63319

>  <r_i_glide_ligand_efficiency>  (343) 
-0.125283

>  <r_i_glide_ligand_efficiency_sa>  (343) 
-0.384908

>  <r_i_glide_ligand_efficiency_ln>  (343) 
-0.831909

>  <r_i_glide_gscore>  (343) 
-3.63319

>  <r_i_glide_lipo>  (343) 
-0.548083

>  <r_i_glide_hbond>  (343) 
-0.00854355

>  <r_i_glide_metal>  (343) 
-0

>  <r_i_glide_rewards>  (343) 
-0.793762

>  <r_i_glide_evdw>  (343) 
-21.4626

>  <r_i_glide_ecoul>  (343) 
-8.06448

>  <r_i_glide_erotb>  (343) 
0

>  <r_i_glide_esite>  (343) 
0

>  <r_i_glide_emodel>  (343) 
-34.6257

>  <r_i_glide_energy>  (343) 
-29.5271

>  <r_i_glide_einternal>  (343) 
2.17524

>  <r_i_glide_intrahb_reward>  (343) 
-0

>  <i_i_glide_confnum>  (343) 
1

>  <i_i_glide_posenum>  (343) 
33

>  <r_i_glide_eff_state_penalty>  (343) 
0

>  <ligand_id>  (343) 
96

>  <original_smiles>  (343) 
CC1=CC2OC3OC4C1C34C1CC3C(OC4(O)C2(C)C2C(C)(O)COC324)C1(O)O

>  <smiles>  (343) 
[H]OC1(O[H])C2([H])OC3(O[H])C45OC([H])([H])C(O[H])(C([H])([H])[H])C4([H])C3(C([H])([H])[H])C3([H])OC4([H])OC6([H])C([H])(C(C([H])([H])[H])=C3[H])C46C1([H])C([H])([H])C25[H]

$$$$
96:0:1
     RDKit          3D

 55 62  0  0  1  0  0  0  0  0999 V2000
    1.7541   -6.1921    1.4675 C   0  0  0  0  0  0  0  0  0  0  0  0
    2.7279   -5.0524    1.6826 C   0  0  0  0  0  0  0  0  0  0  0  0
    3.9475   -5.0548    1.1123 C   0  0  0  0  0  0  0  0  0  0  0  0
    4.9403   -3.9578    1.4258 C   0  0  1  0  0  0  0  0  0  0  0  0
    5.4510   -4.0691    2.7532 O   0  0  0  0  0  0  0  0  0  0  0  0
    4.6059   -3.5849    3.8032 C   0  0  2  0  0  0  0  0  0  0  0  0
    3.8042   -4.6066    4.4615 O   0  0  0  0  0  0  0  0  0  0  0  0
    2.5176   -4.0718    4.1117 C   0  0  1  0  0  0  0  0  0  0  0  0
    2.2663   -3.9832    2.6490 C   0  0  1  0  0  0  0  0  0  0  0  0
    3.2707   -3.0377    3.3481 C   0  0  2  0  0  0  0  0  0  0  0  0
    3.0748   -1.5048    3.0186 C   0  0  2  0  0  0  0  0  0  0  0  0
    2.9444   -1.2004    1.4914 C   0  0  0  0  0  0  0  0  0  0  0  0
    4.2767   -0.5876    0.9282 C   0  0  1  0  0  0  0  0  0  0  0  0
    5.1633   -0.4398    2.1592 C   0  0  2  0  0  0  0  0  0  0  0  0
    6.0548   -1.5474    2.0962 O   0  0  0  0  0  0  0  0  0  0  0  0
    6.3965   -1.8932    0.7559 C   0  0  1  0  0  0  0  0  0  0  0  0
    7.6935   -1.4641    0.3965 O   0  0  0  0  0  0  0  0  0  0  0  0
    5.9136   -3.3659    0.4096 C   0  0  1  0  0  0  0  0  0  0  0  0
    7.0287   -4.3814    0.1398 C   0  0  0  0  0  0  0  0  0  0  0  0
    5.2964   -2.6281   -0.7958 C   0  0  1  0  0  0  0  0  0  0  0  0
    4.1265   -2.7087   -1.7302 C   0  0  1  0  0  0  0  0  0  0  0  0
    4.3012   -3.5936   -2.9682 C   0  0  0  0  0  0  0  0  0  0  0  0
    2.9238   -3.0816   -1.0973 O   0  0  0  0  0  0  0  0  0  0  0  0
    4.1274   -1.2024   -2.0705 C   0  0  0  0  0  0  0  0  0  0  0  0
    5.2439   -0.6602   -1.3230 O   0  0  0  0  0  0  0  0  0  0  0  0
    5.2414   -1.3003   -0.0566 C   0  0  1  0  0  0  0  0  0  0  0  0
    4.2026   -0.4919    3.3669 C   0  0  0  0  0  0  0  0  0  0  0  0
    3.5761    0.7800    3.4112 O   0  0  0  0  0  0  0  0  0  0  0  0
    4.8902   -0.7158    4.5744 O   0  0  0  0  0  0  0  0  0  0  0  0
    0.8070   -5.8477    1.0626 H   0  0  0  0  0  0  0  0  0  0  0  0
    1.5539   -6.7195    2.4025 H   0  0  0  0  0  0  0  0  0  0  0  0
    2.1749   -6.9105    0.7659 H   0  0  0  0  0  0  0  0  0  0  0  0
    4.2842   -5.8495    0.4628 H   0  0  0  0  0  0  0  0  0  0  0  0
    4.2752   -3.1503    1.3478 H   0  0  0  0  0  0  0  0  0  0  0  0
    5.1726   -3.0560    4.5616 H   0  0  0  0  0  0  0  0  0  0  0  0
    1.8525   -3.7553    4.9076 H   0  0  0  0  0  0  0  0  0  0  0  0
    1.2902   -3.5941    2.3904 H   0  0  0  0  0  0  0  0  0  0  0  0
    2.1523   -1.2221    3.5173 H   0  0  0  0  0  0  0  0  0  0  0  0
    2.5319   -2.0177    0.9313 H   0  0  0  0  0  0  0  0  0  0  0  0
    2.2003   -0.4186    1.3675 H   0  0  0  0  0  0  0  0  0  0  0  0
    4.0487    0.4171    0.5464 H   0  0  0  0  0  0  0  0  0  0  0  0
    5.7634    0.4677    2.1366 H   0  0  0  0  0  0  0  0  0  0  0  0
    7.8391   -0.6527    0.8464 H   0  0  0  0  0  0  0  0  0  0  0  0
    7.7818   -3.9941   -0.5507 H   0  0  0  0  0  0  0  0  0  0  0  0
    6.6324   -5.3054   -0.2816 H   0  0  0  0  0  0  0  0  0  0  0  0
    7.5654   -4.6352    1.0538 H   0  0  0  0  0  0  0  0  0  0  0  0
    6.1675   -2.6133   -1.4618 H   0  0  0  0  0  0  0  0  0  0  0  0
    5.1428   -3.2982   -3.5929 H   0  0  0  0  0  0  0  0  0  0  0  0
    3.4057   -3.5495   -3.5920 H   0  0  0  0  0  0  0  0  0  0  0  0
    4.4729   -4.6268   -2.6819 H   0  0  0  0  0  0  0  0  0  0  0  0
    2.2962   -2.3770   -1.1637 H   0  0  0  0  0  0  0  0  0  0  0  0
    4.2891   -1.0070   -3.1308 H   0  0  0  0  0  0  0  0  0  0  0  0
    3.2004   -0.7114   -1.7659 H   0  0  0  0  0  0  0  0  0  0  0  0
    4.2026    1.4492    3.1881 H   0  0  0  0  0  0  0  0  0  0  0  0
    5.2808   -1.5676    4.5236 H   0  0  0  0  0  0  0  0  0  0  0  0
  1  2  1  0
  1 30  1  0
  1 31  1  0
  1 32  1  0
  2  9  1  0
  2  3  2  0
  3  4  1  0
  3 33  1  0
  4 18  1  0
  4  5  1  0
  4 34  1  1
  5  6  1  0
  6 10  1  0
  6  7  1  0
  6 35  1  1
  7  8  1  0
  8 10  1  0
  8  9  1  0
  8 36  1  1
  9 10  1  0
  9 37  1  1
 10 11  1  1
 11 27  1  0
 11 12  1  0
 11 38  1  1
 12 13  1  0
 12 39  1  0
 12 40  1  0
 13 26  1  0
 13 14  1  0
 13 41  1  6
 14 15  1  0
 14 27  1  0
 14 42  1  6
 15 16  1  0
 16 26  1  0
 16 17  1  6
 16 18  1  0
 17 43  1  0
 18 19  1  6
 18 20  1  0
 19 44  1  0
 19 45  1  0
 19 46  1  0
 20 26  1  0
 20 21  1  0
 20 47  1  6
 21 22  1  0
 21 23  1  1
 21 24  1  0
 22 48  1  0
 22 49  1  0
 22 50  1  0
 23 51  1  0
 24 25  1  0
 24 52  1  0
 24 53  1  0
 26 25  1  6
 27 28  1  0
 27 29  1  0
 28 54  1  0
 29 55  1  0
M  END
>  <i_m_ct_stereo_status>  (344) 
1

>  <s_m_source_file>  (344) 
/var/tmp/pbs.5076255.sched01/tmpbrgkg_oh/138myny07gr.sdf

>  <i_m_source_file_index>  (344) 
14

>  <i_lp_mmshare_version>  (344) 
48012

>  <i_f3d_flags>  (344) 
0

>  <s_epik_input>  (344) 
TzFbQ0BASF0yW0NAQEhdM0MoW0NIM10pPVtDSF1bQ0BASF0oT1tDQEhdMVtDQF0yMzQpW0NAXTUoW0NIM10pW0NAQF02KFtPSF0pW0NAQF03KFtDQEBIXTVbQ0BAXShbQ0gzXSkoW09IXSlbQ0gyXU83KVtDQEBIXThbQ0BIXShPNilDKFtPSF0pKFtPSF0pW0NASF00W0NIMl04

>  <s_epik_cmdline>  (344) 
J2VwaWtfcHl0aG9uJywgJy1waHQnLCAnMi4wJywgJy1waCcsICc3LjAnLCAnLXRuJywgJzgnLCAnLW1hJywgJzIwMCcsICctaW1hZScsICc8aW5maWxlLm1hZT4nLCAnLW9tYWUnLCAnPG91dGZpbGUubWFlPic=

>  <r_lp_tautomer_probability>  (344) 
1

>  <r_epik_Ionization_Penalty>  (344) 
4.91328e-06

>  <r_epik_Ionization_Penalty_Charging>  (344) 
0

>  <r_epik_Ionization_Penalty_Neutral>  (344) 
4.91328e-06

>  <r_epik_State_Penalty>  (344) 
-0

>  <r_epik_Charging_Adjusted_Penalty>  (344) 
0

>  <i_epik_Tot_Q>  (344) 
0

>  <i_epik_Tot_abs_Q>  (344) 
0

>  <s_epik_Chemistry_Notes>  (344) 
This compound contains an acetal/aminal-like group ( X-CH(R)-Y where X, Y are N, S, or O) that may be acid/base labile, releasing an aldehyde.

>  <s_lp_Force_Field>  (344) 
OPLS3e

>  <r_lp_Energy>  (344) 
104.737

>  <b_lp_Chiralities_Consistent>  (344) 
1

>  <s_lp_Variant>  (344) 
96:0-1

>  <s_i_glide_gridfile>  (344) 
pfpi4k_grid

>  <i_i_glide_lignum>  (344) 
14

>  <i_i_glide_rotatable_bonds>  (344) 
4

>  <r_i_docking_score>  (344) 
-3.14409

>  <r_i_glide_ligand_efficiency>  (344) 
-0.108417

>  <r_i_glide_ligand_efficiency_sa>  (344) 
-0.333092

>  <r_i_glide_ligand_efficiency_ln>  (344) 
-0.719918

>  <r_i_glide_gscore>  (344) 
-3.14409

>  <r_i_glide_lipo>  (344) 
-0.460313

>  <r_i_glide_hbond>  (344) 
0

>  <r_i_glide_metal>  (344) 
-0

>  <r_i_glide_rewards>  (344) 
-0.818525

>  <r_i_glide_evdw>  (344) 
-20.9964

>  <r_i_glide_ecoul>  (344) 
-5.43623

>  <r_i_glide_erotb>  (344) 
0

>  <r_i_glide_esite>  (344) 
0

>  <r_i_glide_emodel>  (344) 
-30.0415

>  <r_i_glide_energy>  (344) 
-26.4327

>  <r_i_glide_einternal>  (344) 
2.76083

>  <r_i_glide_intrahb_reward>  (344) 
-0

>  <i_i_glide_confnum>  (344) 
1

>  <i_i_glide_posenum>  (344) 
1

>  <r_i_glide_eff_state_penalty>  (344) 
0

>  <ligand_id>  (344) 
96

>  <original_smiles>  (344) 
CC1=CC2OC3OC4C1C34C1CC3C(OC4(O)C2(C)C2C(C)(O)COC324)C1(O)O

>  <smiles>  (344) 
[H]OC1(O[H])C2([H])OC3(O[H])C45OC([H])([H])C(O[H])(C([H])([H])[H])C4([H])C3(C([H])([H])[H])C3([H])OC4([H])OC6([H])C([H])(C(C([H])([H])[H])=C3[H])C46C1([H])C([H])([H])C25[H]

$$$$
96:0:2
     RDKit          3D

 55 62  0  0  1  0  0  0  0  0999 V2000
    1.5888   -6.3560    1.3520 C   0  0  0  0  0  0  0  0  0  0  0  0
    2.5381   -5.2194    1.6414 C   0  0  0  0  0  0  0  0  0  0  0  0
    3.7696   -5.1793    1.0853 C   0  0  0  0  0  0  0  0  0  0  0  0
    4.7391   -4.0710    1.4652 C   0  0  1  0  0  0  0  0  0  0  0  0
    5.2384   -4.2342    2.7841 O   0  0  0  0  0  0  0  0  0  0  0  0
    4.3630   -3.8183    3.8492 C   0  0  2  0  0  0  0  0  0  0  0  0
    3.5725   -4.8740    4.4620 O   0  0  0  0  0  0  0  0  0  0  0  0
    2.2829   -4.3551    4.1187 C   0  0  1  0  0  0  0  0  0  0  0  0
    2.0532   -4.2209    2.6515 C   0  0  1  0  0  0  0  0  0  0  0  0
    3.0334   -3.2721    3.3972 C   0  0  2  0  0  0  0  0  0  0  0  0
    2.7937   -1.7420    3.1543 C   0  0  2  0  0  0  0  0  0  0  0  0
    2.6640   -1.3613    1.6370 C   0  0  0  0  0  0  0  0  0  0  0  0
    3.9909   -0.7013    1.1184 C   0  0  1  0  0  0  0  0  0  0  0  0
    4.8656   -0.5810    2.3691 C   0  0  2  0  0  0  0  0  0  0  0  0
    5.8121   -1.6495    2.2594 O   0  0  0  0  0  0  0  0  0  0  0  0
    6.1646   -1.9410    0.9007 C   0  0  1  0  0  0  0  0  0  0  0  0
    7.4277   -1.4615    0.5078 O   0  0  0  0  0  0  0  0  0  0  0  0
    5.7068   -3.4140    0.4929 C   0  0  1  0  0  0  0  0  0  0  0  0
    6.8413   -4.3925    0.1900 C   0  0  0  0  0  0  0  0  0  0  0  0
    5.0872   -2.6408   -0.6862 C   0  0  1  0  0  0  0  0  0  0  0  0
    3.9320   -2.7018   -1.6450 C   0  0  1  0  0  0  0  0  0  0  0  0
    4.1551   -3.5126   -2.9183 C   0  0  0  0  0  0  0  0  0  0  0  0
    2.7160   -3.0985   -1.0648 O   0  0  0  0  0  0  0  0  0  0  0  0
    3.9192   -1.1807   -1.9173 C   0  0  0  0  0  0  0  0  0  0  0  0
    4.9989   -0.6575   -1.1233 O   0  0  0  0  0  0  0  0  0  0  0  0
    4.9901   -1.3463    0.1079 C   0  0  1  0  0  0  0  0  0  0  0  0
    3.8969   -0.7192    3.5699 C   0  0  0  0  0  0  0  0  0  0  0  0
    3.2491    0.5307    3.7211 O   0  0  0  0  0  0  0  0  0  0  0  0
    4.5809   -1.0116    4.7582 O   0  0  0  0  0  0  0  0  0  0  0  0
    0.6401   -5.9985    0.9595 H   0  0  0  0  0  0  0  0  0  0  0  0
    1.3897   -6.9294    2.2577 H   0  0  0  0  0  0  0  0  0  0  0  0
    2.0252   -7.0367    0.6233 H   0  0  0  0  0  0  0  0  0  0  0  0
    4.1356   -5.9272    0.4038 H   0  0  0  0  0  0  0  0  0  0  0  0
    4.0544   -3.2771    1.4191 H   0  0  0  0  0  0  0  0  0  0  0  0
    4.9095   -3.3002    4.6301 H   0  0  0  0  0  0  0  0  0  0  0  0
    1.6129   -4.0659    4.9023 H   0  0  0  0  0  0  0  0  0  0  0  0
    1.0614   -3.8372    2.4423 H   0  0  0  0  0  0  0  0  0  0  0  0
    1.8518   -1.5083    3.6446 H   0  0  0  0  0  0  0  0  0  0  0  0
    2.2933   -2.1610    1.0248 H   0  0  0  0  0  0  0  0  0  0  0  0
    1.9044   -0.5910    1.5379 H   0  0  0  0  0  0  0  0  0  0  0  0
    3.7559    0.3148    0.7801 H   0  0  0  0  0  0  0  0  0  0  0  0
    5.4464    0.3393    2.3934 H   0  0  0  0  0  0  0  0  0  0  0  0
    7.5610   -0.6580    0.9857 H   0  0  0  0  0  0  0  0  0  0  0  0
    7.5975   -3.9630   -0.4708 H   0  0  0  0  0  0  0  0  0  0  0  0
    6.4826   -5.3106   -0.2847 H   0  0  0  0  0  0  0  0  0  0  0  0
    7.3722   -4.6830    1.0967 H   0  0  0  0  0  0  0  0  0  0  0  0
    5.9630   -2.5731   -1.3381 H   0  0  0  0  0  0  0  0  0  0  0  0
    4.9949   -3.1597   -3.5160 H   0  0  0  0  0  0  0  0  0  0  0  0
    3.2640   -3.4633   -3.5505 H   0  0  0  0  0  0  0  0  0  0  0  0
    4.3478   -4.5452   -2.6723 H   0  0  0  0  0  0  0  0  0  0  0  0
    2.0771   -2.4074   -1.1511 H   0  0  0  0  0  0  0  0  0  0  0  0
    4.0867   -0.9340   -2.9687 H   0  0  0  0  0  0  0  0  0  0  0  0
    2.9790   -0.7211   -1.5993 H   0  0  0  0  0  0  0  0  0  0  0  0
    3.0356    0.8863    2.8795 H   0  0  0  0  0  0  0  0  0  0  0  0
    5.0405   -1.8212    4.6311 H   0  0  0  0  0  0  0  0  0  0  0  0
  1  2  1  0
  1 30  1  0
  1 31  1  0
  1 32  1  0
  2  9  1  0
  2  3  2  0
  3  4  1  0
  3 33  1  0
  4 18  1  0
  4  5  1  0
  4 34  1  1
  5  6  1  0
  6 10  1  0
  6  7  1  0
  6 35  1  1
  7  8  1  0
  8 10  1  0
  8  9  1  0
  8 36  1  1
  9 10  1  0
  9 37  1  1
 10 11  1  1
 11 27  1  0
 11 12  1  0
 11 38  1  1
 12 13  1  0
 12 39  1  0
 12 40  1  0
 13 26  1  0
 13 14  1  0
 13 41  1  6
 14 15  1  0
 14 27  1  0
 14 42  1  1
 15 16  1  0
 16 26  1  0
 16 17  1  6
 16 18  1  0
 17 43  1  0
 18 19  1  6
 18 20  1  0
 19 44  1  0
 19 45  1  0
 19 46  1  0
 20 26  1  0
 20 21  1  0
 20 47  1  6
 21 22  1  0
 21 23  1  1
 21 24  1  0
 22 48  1  0
 22 49  1  0
 22 50  1  0
 23 51  1  0
 24 25  1  0
 24 52  1  0
 24 53  1  0
 26 25  1  6
 27 28  1  0
 27 29  1  0
 28 54  1  0
 29 55  1  0
M  END
>  <i_m_ct_stereo_status>  (345) 
1

>  <s_m_source_file>  (345) 
/var/tmp/pbs.5076255.sched01/tmpbrgkg_oh/138myny07gr.sdf

>  <i_m_source_file_index>  (345) 
14

>  <i_lp_mmshare_version>  (345) 
48012

>  <i_f3d_flags>  (345) 
0

>  <s_epik_input>  (345) 
TzFbQ0BASF0yW0NAQEhdM0MoW0NIM10pPVtDSF1bQ0BASF0oT1tDQEhdMVtDQF0yMzQpW0NAXTUoW0NIM10pW0NAQF02KFtPSF0pW0NAQF03KFtDQEBIXTVbQ0BAXShbQ0gzXSkoW09IXSlbQ0gyXU83KVtDQEBIXThbQ0BIXShPNilDKFtPSF0pKFtPSF0pW0NASF00W0NIMl04

>  <s_epik_cmdline>  (345) 
J2VwaWtfcHl0aG9uJywgJy1waHQnLCAnMi4wJywgJy1waCcsICc3LjAnLCAnLXRuJywgJzgnLCAnLW1hJywgJzIwMCcsICctaW1hZScsICc8aW5maWxlLm1hZT4nLCAnLW9tYWUnLCAnPG91dGZpbGUubWFlPic=

>  <r_lp_tautomer_probability>  (345) 
1

>  <r_epik_Ionization_Penalty>  (345) 
4.91328e-06

>  <r_epik_Ionization_Penalty_Charging>  (345) 
0

>  <r_epik_Ionization_Penalty_Neutral>  (345) 
4.91328e-06

>  <r_epik_State_Penalty>  (345) 
-0

>  <r_epik_Charging_Adjusted_Penalty>  (345) 
0

>  <i_epik_Tot_Q>  (345) 
0

>  <i_epik_Tot_abs_Q>  (345) 
0

>  <s_epik_Chemistry_Notes>  (345) 
This compound contains an acetal/aminal-like group ( X-CH(R)-Y where X, Y are N, S, or O) that may be acid/base labile, releasing an aldehyde.

>  <s_lp_Force_Field>  (345) 
OPLS3e

>  <r_lp_Energy>  (345) 
104.737

>  <b_lp_Chiralities_Consistent>  (345) 
1

>  <s_lp_Variant>  (345) 
96:0-1

>  <s_i_glide_gridfile>  (345) 
pfpi4k_grid

>  <i_i_glide_lignum>  (345) 
14

>  <i_i_glide_rotatable_bonds>  (345) 
4

>  <r_i_docking_score>  (345) 
-3.0169

>  <r_i_glide_ligand_efficiency>  (345) 
-0.104031

>  <r_i_glide_ligand_efficiency_sa>  (345) 
-0.319616

>  <r_i_glide_ligand_efficiency_ln>  (345) 
-0.690793

>  <r_i_glide_gscore>  (345) 
-3.0169

>  <r_i_glide_lipo>  (345) 
-0.358442

>  <r_i_glide_hbond>  (345) 
0

>  <r_i_glide_metal>  (345) 
-0

>  <r_i_glide_rewards>  (345) 
-0.822868

>  <r_i_glide_evdw>  (345) 
-20.6549

>  <r_i_glide_ecoul>  (345) 
-5.35229

>  <r_i_glide_erotb>  (345) 
0

>  <r_i_glide_esite>  (345) 
0

>  <r_i_glide_emodel>  (345) 
-29.3536

>  <r_i_glide_energy>  (345) 
-26.0072

>  <r_i_glide_einternal>  (345) 
2.53056

>  <r_i_glide_intrahb_reward>  (345) 
-0

>  <i_i_glide_confnum>  (345) 
2

>  <i_i_glide_posenum>  (345) 
35

>  <r_i_glide_eff_state_penalty>  (345) 
0

>  <ligand_id>  (345) 
96

>  <original_smiles>  (345) 
CC1=CC2OC3OC4C1C34C1CC3C(OC4(O)C2(C)C2C(C)(O)COC324)C1(O)O

>  <smiles>  (345) 
[H]OC1(O[H])C2([H])OC3(O[H])C45OC([H])([H])C(O[H])(C([H])([H])[H])C4([H])C3(C([H])([H])[H])C3([H])OC4([H])OC6([H])C([H])(C(C([H])([H])[H])=C3[H])C46C1([H])C([H])([H])C25[H]

$$$$
97:0:0
     RDKit          3D

 81 85  0  0  1  0  0  0  0  0999 V2000
    0.2885   -8.7404    5.9607 C   0  0  0  0  0  0  0  0  0  0  0  0
    0.4008   -7.9777    4.6232 C   0  0  2  0  0  0  0  0  0  0  0  0
    0.7718   -8.9565    3.5017 C   0  0  0  0  0  0  0  0  0  0  0  0
    0.7222   -8.2537    2.1515 C   0  0  0  0  0  0  0  0  0  0  0  0
    1.6141   -7.0095    2.0236 C   0  0  2  0  0  0  0  0  0  0  0  0
    1.1148   -6.2480    0.7755 C   0  0  0  0  0  0  0  0  0  0  0  0
    3.0927   -7.4061    1.8279 C   0  0  0  0  0  0  0  0  0  0  0  0
    4.0558   -6.1939    1.7585 C   0  0  0  0  0  0  0  0  0  0  0  0
    3.9507   -5.1840    2.9395 C   0  0  2  0  0  0  0  0  0  0  0  0
    4.5516   -5.9496    4.1555 C   0  0  0  0  0  0  0  0  0  0  0  0
    2.4377   -4.8896    3.1693 C   0  0  0  0  0  0  0  0  0  0  0  0
    1.8899   -3.6696    3.1377 C   0  0  0  0  0  0  0  0  0  0  0  0
    2.6474   -2.4501    2.8288 C   0  0  0  0  0  0  0  0  0  0  0  0
    2.2326   -1.3376    3.1202 O   0  0  0  0  0  0  0  0  0  0  0  0
    4.0274   -2.5826    2.1670 C   0  0  2  0  0  0  0  0  0  0  0  0
    4.0801   -2.1916    0.6355 C   0  0  2  0  0  0  0  0  0  0  0  0
    3.6682   -0.6991    0.5126 C   0  0  0  0  0  0  0  0  0  0  0  0
    3.0953   -3.0086   -0.2278 C   0  0  0  0  0  0  0  0  0  0  0  0
    3.0587   -2.5815   -1.7046 C   0  0  0  0  0  0  0  0  0  0  0  0
    4.4012   -2.5067   -2.4419 C   0  0  1  0  0  0  0  0  0  0  0  0
    4.6465   -3.8428   -3.1409 C   0  0  0  0  0  0  0  0  0  0  0  0
    4.2136   -1.3959   -3.5143 C   0  0  0  0  0  0  0  0  0  0  0  0
    4.2223   -0.2133   -3.1226 O   0  0  0  0  0  0  0  0  0  0  0  0
    4.1260   -1.7033   -4.7158 O   0  0  0  0  0  0  0  0  0  0  0  0
    5.5844   -2.1079   -1.5069 C   0  0  0  0  0  0  0  0  0  0  0  0
    5.5164   -2.3715    0.0386 C   0  0  1  0  0  0  0  0  0  0  0  0
    6.5097   -1.3341    0.6586 C   0  0  0  0  0  0  0  0  0  0  0  0
    6.0303   -3.7925    0.3731 C   0  0  0  0  0  0  0  0  0  0  0  0
    6.0955   -4.0433    1.8823 C   0  0  0  0  0  0  0  0  0  0  0  0
    4.8057   -3.8255    2.7251 C   0  0  2  0  0  0  0  0  0  0  0  0
    5.3010   -3.3100    4.1250 C   0  0  0  0  0  0  0  0  0  0  0  0
    1.4640   -6.0884    3.2569 C   0  0  2  0  0  0  0  0  0  0  0  0
    1.4197   -6.8086    4.6398 C   0  0  1  0  0  0  0  0  0  0  0  0
    1.1317   -5.8149    5.7867 C   0  0  0  0  0  0  0  0  0  0  0  0
    1.2579   -9.1127    6.2967 H   0  0  0  0  0  0  0  0  0  0  0  0
   -0.3770   -9.6000    5.8630 H   0  0  0  0  0  0  0  0  0  0  0  0
   -0.1270   -8.1085    6.7457 H   0  0  0  0  0  0  0  0  0  0  0  0
   -0.5946   -7.5826    4.4043 H   0  0  0  0  0  0  0  0  0  0  0  0
    1.7652   -9.3726    3.6677 H   0  0  0  0  0  0  0  0  0  0  0  0
    0.0795   -9.8035    3.4920 H   0  0  0  0  0  0  0  0  0  0  0  0
    1.0353   -8.9572    1.3898 H   0  0  0  0  0  0  0  0  0  0  0  0
   -0.3157   -7.9974    1.9453 H   0  0  0  0  0  0  0  0  0  0  0  0
    1.6295   -5.3135    0.6192 H   0  0  0  0  0  0  0  0  0  0  0  0
    0.0465   -6.0665    0.8240 H   0  0  0  0  0  0  0  0  0  0  0  0
    1.2358   -6.8086   -0.1375 H   0  0  0  0  0  0  0  0  0  0  0  0
    3.3941   -8.0785    2.6267 H   0  0  0  0  0  0  0  0  0  0  0  0
    3.2102   -7.9983    0.9206 H   0  0  0  0  0  0  0  0  0  0  0  0
    5.0720   -6.5827    1.6726 H   0  0  0  0  0  0  0  0  0  0  0  0
    3.8631   -5.7076    0.8156 H   0  0  0  0  0  0  0  0  0  0  0  0
    5.6390   -5.9791    4.1252 H   0  0  0  0  0  0  0  0  0  0  0  0
    4.2840   -6.9978    4.1993 H   0  0  0  0  0  0  0  0  0  0  0  0
    4.2464   -5.5170    5.1075 H   0  0  0  0  0  0  0  0  0  0  0  0
    0.8195   -3.5235    3.2484 H   0  0  0  0  0  0  0  0  0  0  0  0
    4.5384   -1.7247    2.6004 H   0  0  0  0  0  0  0  0  0  0  0  0
    3.9309   -0.3080   -0.4659 H   0  0  0  0  0  0  0  0  0  0  0  0
    4.1363   -0.0470    1.2489 H   0  0  0  0  0  0  0  0  0  0  0  0
    2.5937   -0.5670    0.6119 H   0  0  0  0  0  0  0  0  0  0  0  0
    3.3495   -4.0551   -0.2293 H   0  0  0  0  0  0  0  0  0  0  0  0
    2.0857   -2.9467    0.1796 H   0  0  0  0  0  0  0  0  0  0  0  0
    2.3569   -3.2343   -2.2328 H   0  0  0  0  0  0  0  0  0  0  0  0
    2.6206   -1.5895   -1.7591 H   0  0  0  0  0  0  0  0  0  0  0  0
    4.6899   -4.6446   -2.4047 H   0  0  0  0  0  0  0  0  0  0  0  0
    5.5712   -3.8474   -3.7088 H   0  0  0  0  0  0  0  0  0  0  0  0
    3.8302   -4.0913   -3.8207 H   0  0  0  0  0  0  0  0  0  0  0  0
    6.4476   -2.6493   -1.8759 H   0  0  0  0  0  0  0  0  0  0  0  0
    5.8683   -1.0663   -1.6590 H   0  0  0  0  0  0  0  0  0  0  0  0
    7.5458   -1.5525    0.3857 H   0  0  0  0  0  0  0  0  0  0  0  0
    6.4722   -1.2853    1.7503 H   0  0  0  0  0  0  0  0  0  0  0  0
    6.3113   -0.3101    0.3272 H   0  0  0  0  0  0  0  0  0  0  0  0
    5.4447   -4.5592   -0.1175 H   0  0  0  0  0  0  0  0  0  0  0  0
    7.0416   -3.9161   -0.0258 H   0  0  0  0  0  0  0  0  0  0  0  0
    6.5285   -5.0160    2.0851 H   0  0  0  0  0  0  0  0  0  0  0  0
    6.8582   -3.3454    2.1797 H   0  0  0  0  0  0  0  0  0  0  0  0
    5.7922   -2.3401    4.0553 H   0  0  0  0  0  0  0  0  0  0  0  0
    6.0588   -3.9399    4.5818 H   0  0  0  0  0  0  0  0  0  0  0  0
    4.4943   -3.1951    4.8500 H   0  0  0  0  0  0  0  0  0  0  0  0
    0.4629   -5.6667    3.1691 H   0  0  0  0  0  0  0  0  0  0  0  0
    2.3726   -7.2761    4.8619 H   0  0  0  0  0  0  0  0  0  0  0  0
    0.1273   -5.3930    5.7108 H   0  0  0  0  0  0  0  0  0  0  0  0
    1.8456   -4.9936    5.7912 H   0  0  0  0  0  0  0  0  0  0  0  0
    1.2220   -6.2968    6.7596 H   0  0  0  0  0  0  0  0  0  0  0  0
  1  2  1  0
  1 35  1  0
  1 36  1  0
  1 37  1  0
  2 33  1  0
  2  3  1  0
  2 38  1  6
  3  4  1  0
  3 39  1  0
  3 40  1  0
  4  5  1  0
  4 41  1  0
  4 42  1  0
  5 32  1  0
  5  6  1  6
  5  7  1  0
  6 43  1  0
  6 44  1  0
  6 45  1  0
  7  8  1  0
  7 46  1  0
  7 47  1  0
  8  9  1  0
  8 48  1  0
  8 49  1  0
  9 30  1  0
  9 10  1  1
  9 11  1  0
 10 50  1  0
 10 51  1  0
 10 52  1  0
 11 12  2  0
 11 32  1  0
 12 13  1  0
 12 53  1  0
 13 14  2  0
 13 15  1  0
 15 30  1  0
 15 16  1  0
 15 54  1  1
 16 26  1  0
 16 17  1  1
 16 18  1  0
 17 55  1  0
 17 56  1  0
 17 57  1  0
 18 19  1  0
 18 58  1  0
 18 59  1  0
 19 20  1  0
 19 60  1  0
 19 61  1  0
 20 21  1  6
 20 22  1  0
 20 25  1  0
 21 62  1  0
 21 63  1  0
 21 64  1  0
 22 23  2  0
 22 24  1  0
 25 26  1  0
 25 65  1  0
 25 66  1  0
 26 27  1  1
 26 28  1  0
 27 67  1  0
 27 68  1  0
 27 69  1  0
 28 29  1  0
 28 70  1  0
 28 71  1  0
 29 30  1  0
 29 72  1  0
 29 73  1  0
 30 31  1  1
 31 74  1  0
 31 75  1  0
 31 76  1  0
 32 33  1  0
 32 77  1  6
 33 34  1  0
 33 78  1  1
 34 79  1  0
 34 80  1  0
 34 81  1  0
M  CHG  1  24  -1
M  END
>  <i_m_ct_stereo_status>  (346) 
1

>  <s_m_source_file>  (346) 
/var/tmp/pbs.5076255.sched01/tmpbrgkg_oh/138myny07gr.sdf

>  <i_m_source_file_index>  (346) 
15

>  <i_lp_mmshare_version>  (346) 
48012

>  <i_f3d_flags>  (346) 
0

>  <s_epik_input>  (346) 
W0NIMl0xW0NIMl1bQ0BASF0oW0NIM10pW0NASF0oW0NIM10pW0NASF0oW0NAXTEyW0NIM10pQz0zW0NAQF0oW0NIM10pKFtDSDJdW0NIMl0yKVtDQF00KFtDSDNdKVtDQEhdKEMoPU8pW0NIXTMpW0NAQF01KFtDSDNdKVtDQEBdKFtDSDNdKShbQ0gyXVtDSDJdNClbQ0gyXVtDQEBdKFtDSDNdKShbQ0gyXVtDSDJdNSlDKD1PKVtPSF0=

>  <s_epik_cmdline>  (346) 
J2VwaWtfcHl0aG9uJywgJy1waHQnLCAnMi4wJywgJy1waCcsICc3LjAnLCAnLXRuJywgJzgnLCAnLW1hJywgJzIwMCcsICctaW1hZScsICc8aW5maWxlLm1hZT4nLCAnLW9tYWUnLCAnPG91dGZpbGUubWFlPic=

>  <r_epik_Ionization_Penalty>  (346) 
0.00526783

>  <r_epik_Ionization_Penalty_Charging>  (346) 
0.00526783

>  <r_epik_Ionization_Penalty_Neutral>  (346) 
0

>  <r_epik_State_Penalty>  (346) 
0.00384325

>  <r_epik_Charging_Adjusted_Penalty>  (346) 
0.00911108

>  <i_epik_Tot_Q>  (346) 
-1

>  <i_epik_Tot_abs_Q>  (346) 
1

>  <s_lp_Force_Field>  (346) 
OPLS3e

>  <r_lp_Energy>  (346) 
108.387

>  <b_lp_Chiralities_Consistent>  (346) 
1

>  <s_lp_Variant>  (346) 
97:0-1

>  <s_i_glide_gridfile>  (346) 
pfpi4k_grid

>  <i_i_glide_lignum>  (346) 
15

>  <i_i_glide_rotatable_bonds>  (346) 
1

>  <r_i_docking_score>  (346) 
-3.08815

>  <r_i_glide_ligand_efficiency>  (346) 
-0.0908278

>  <r_i_glide_ligand_efficiency_sa>  (346) 
-0.294247

>  <r_i_glide_ligand_efficiency_ln>  (346) 
-0.682258

>  <r_i_glide_gscore>  (346) 
-3.08815

>  <r_i_glide_lipo>  (346) 
-0.375163

>  <r_i_glide_hbond>  (346) 
-0.16

>  <r_i_glide_metal>  (346) 
-0

>  <r_i_glide_rewards>  (346) 
-0.458801

>  <r_i_glide_evdw>  (346) 
-31.8635

>  <r_i_glide_ecoul>  (346) 
-3.32193

>  <r_i_glide_erotb>  (346) 
0

>  <r_i_glide_esite>  (346) 
-0.00271551

>  <r_i_glide_emodel>  (346) 
-41.9232

>  <r_i_glide_energy>  (346) 
-35.1854

>  <r_i_glide_einternal>  (346) 
0.13488

>  <r_i_glide_intrahb_reward>  (346) 
-0

>  <i_i_glide_confnum>  (346) 
2

>  <i_i_glide_posenum>  (346) 
14

>  <r_i_glide_eff_state_penalty>  (346) 
0

>  <ligand_id>  (346) 
97

>  <original_smiles>  (346) 
CC1CCC2(C)CCC3(C)C(=CC(=O)C4C5(C)CCC(C)(C(=O)O)CC5(C)CCC43C)C2C1C

>  <smiles>  (346) 
[H]C1=C2C3([H])C([H])(C([H])([H])[H])C([H])(C([H])([H])[H])C([H])([H])C([H])([H])C3(C([H])([H])[H])C([H])([H])C([H])([H])C2(C([H])([H])[H])C2(C([H])([H])[H])C([H])([H])C([H])([H])C3(C([H])([H])[H])C([H])([H])C(C(=O)[O-])(C([H])([H])[H])C([H])([H])C([H])([H])C3(C([H])([H])[H])C2([H])C1=O

$$$$
97:0:1
     RDKit          3D

 81 85  0  0  1  0  0  0  0  0999 V2000
    3.2504  -11.6316    3.4164 C   0  0  0  0  0  0  0  0  0  0  0  0
    2.4405  -10.3184    3.4324 C   0  0  2  0  0  0  0  0  0  0  0  0
    2.7402   -9.5007    2.1665 C   0  0  0  0  0  0  0  0  0  0  0  0
    1.8105   -8.2893    2.0772 C   0  0  0  0  0  0  0  0  0  0  0  0
    1.8757   -7.3387    3.2982 C   0  0  2  0  0  0  0  0  0  0  0  0
    0.6308   -6.4222    3.1842 C   0  0  0  0  0  0  0  0  0  0  0  0
    3.1534   -6.4670    3.2603 C   0  0  0  0  0  0  0  0  0  0  0  0
    3.3025   -5.5331    4.4908 C   0  0  0  0  0  0  0  0  0  0  0  0
    3.2232   -6.2331    5.8855 C   0  0  2  0  0  0  0  0  0  0  0  0
    4.5458   -7.0577    5.9792 C   0  0  0  0  0  0  0  0  0  0  0  0
    1.9866   -7.1812    5.8419 C   0  0  0  0  0  0  0  0  0  0  0  0
    0.9619   -7.1282    6.7185 C   0  0  0  0  0  0  0  0  0  0  0  0
    0.8646   -6.1506    7.7950 C   0  0  0  0  0  0  0  0  0  0  0  0
    0.0946   -6.3070    8.7451 O   0  0  0  0  0  0  0  0  0  0  0  0
    1.7339   -4.8865    7.7180 C   0  0  2  0  0  0  0  0  0  0  0  0
    0.9646   -3.5604    7.3197 C   0  0  2  0  0  0  0  0  0  0  0  0
   -0.1292   -3.2902    8.4008 C   0  0  0  0  0  0  0  0  0  0  0  0
    0.2395   -3.6868    5.9596 C   0  0  0  0  0  0  0  0  0  0  0  0
   -0.6305   -2.4783    5.6269 C   0  0  0  0  0  0  0  0  0  0  0  0
    0.0884   -1.1005    5.6712 C   0  0  1  0  0  0  0  0  0  0  0  0
    0.6413   -0.7894    4.2588 C   0  0  0  0  0  0  0  0  0  0  0  0
   -0.9474    0.0062    6.0390 C   0  0  0  0  0  0  0  0  0  0  0  0
   -0.4977    1.1354    6.3382 O   0  0  0  0  0  0  0  0  0  0  0  0
   -2.1730   -0.2628    6.0726 O   0  0  0  0  0  0  0  0  0  0  0  0
    1.2494   -1.0322    6.7276 C   0  0  0  0  0  0  0  0  0  0  0  0
    1.9431   -2.3349    7.2603 C   0  0  1  0  0  0  0  0  0  0  0  0
    2.4849   -1.9651    8.6781 C   0  0  0  0  0  0  0  0  0  0  0  0
    3.1667   -2.6952    6.3779 C   0  0  0  0  0  0  0  0  0  0  0  0
    3.9712   -3.8970    6.9150 C   0  0  0  0  0  0  0  0  0  0  0  0
    3.1718   -5.2153    7.1505 C   0  0  2  0  0  0  0  0  0  0  0  0
    3.8847   -5.8754    8.3866 C   0  0  0  0  0  0  0  0  0  0  0  0
    1.8243   -8.1366    4.6335 C   0  0  2  0  0  0  0  0  0  0  0  0
    2.6945   -9.4361    4.6803 C   0  0  1  0  0  0  0  0  0  0  0  0
    2.4703  -10.2149    5.9925 C   0  0  0  0  0  0  0  0  0  0  0  0
    4.3220  -11.4482    3.5166 H   0  0  0  0  0  0  0  0  0  0  0  0
    3.0918  -12.1746    2.4833 H   0  0  0  0  0  0  0  0  0  0  0  0
    2.9407  -12.3015    4.2203 H   0  0  0  0  0  0  0  0  0  0  0  0
    1.3866  -10.6005    3.4099 H   0  0  0  0  0  0  0  0  0  0  0  0
    3.7843   -9.1886    2.1536 H   0  0  0  0  0  0  0  0  0  0  0  0
    2.6039  -10.1222    1.2811 H   0  0  0  0  0  0  0  0  0  0  0  0
    2.0211   -7.7357    1.1629 H   0  0  0  0  0  0  0  0  0  0  0  0
    0.7952   -8.6722    1.9647 H   0  0  0  0  0  0  0  0  0  0  0  0
    0.5194   -5.7625    4.0405 H   0  0  0  0  0  0  0  0  0  0  0  0
   -0.2885   -7.0084    3.1263 H   0  0  0  0  0  0  0  0  0  0  0  0
    0.6804   -5.7970    2.2926 H   0  0  0  0  0  0  0  0  0  0  0  0
    4.0272   -7.1087    3.1604 H   0  0  0  0  0  0  0  0  0  0  0  0
    3.1577   -5.8602    2.3546 H   0  0  0  0  0  0  0  0  0  0  0  0
    4.2452   -4.9994    4.3837 H   0  0  0  0  0  0  0  0  0  0  0  0
    2.5381   -4.7790    4.3978 H   0  0  0  0  0  0  0  0  0  0  0  0
    5.3997   -6.4273    6.2185 H   0  0  0  0  0  0  0  0  0  0  0  0
    4.8504   -7.5260    5.0516 H   0  0  0  0  0  0  0  0  0  0  0  0
    4.4857   -7.8523    6.7232 H   0  0  0  0  0  0  0  0  0  0  0  0
    0.1192   -7.7934    6.6072 H   0  0  0  0  0  0  0  0  0  0  0  0
    1.9047   -4.6959    8.7723 H   0  0  0  0  0  0  0  0  0  0  0  0
   -0.5067   -2.2703    8.3471 H   0  0  0  0  0  0  0  0  0  0  0  0
    0.2407   -3.4282    9.4178 H   0  0  0  0  0  0  0  0  0  0  0  0
   -0.9891   -3.9492    8.2781 H   0  0  0  0  0  0  0  0  0  0  0  0
    0.9373   -3.8086    5.1448 H   0  0  0  0  0  0  0  0  0  0  0  0
   -0.4023   -4.5679    5.9428 H   0  0  0  0  0  0  0  0  0  0  0  0
   -1.0248   -2.6237    4.6206 H   0  0  0  0  0  0  0  0  0  0  0  0
   -1.4963   -2.5231    6.2866 H   0  0  0  0  0  0  0  0  0  0  0  0
    1.3601   -1.5463    3.9372 H   0  0  0  0  0  0  0  0  0  0  0  0
    1.1460    0.1765    4.2109 H   0  0  0  0  0  0  0  0  0  0  0  0
   -0.1499   -0.7649    3.5085 H   0  0  0  0  0  0  0  0  0  0  0  0
    2.0278   -0.3824    6.3264 H   0  0  0  0  0  0  0  0  0  0  0  0
    0.9013   -0.4738    7.5974 H   0  0  0  0  0  0  0  0  0  0  0  0
    3.2855   -1.2225    8.6132 H   0  0  0  0  0  0  0  0  0  0  0  0
    2.8806   -2.8228    9.2245 H   0  0  0  0  0  0  0  0  0  0  0  0
    1.7119   -1.5333    9.3168 H   0  0  0  0  0  0  0  0  0  0  0  0
    2.8758   -2.8603    5.3470 H   0  0  0  0  0  0  0  0  0  0  0  0
    3.8449   -1.8422    6.3193 H   0  0  0  0  0  0  0  0  0  0  0  0
    4.8322   -4.0808    6.2761 H   0  0  0  0  0  0  0  0  0  0  0  0
    4.4340   -3.5757    7.8494 H   0  0  0  0  0  0  0  0  0  0  0  0
    3.7750   -5.2799    9.2940 H   0  0  0  0  0  0  0  0  0  0  0  0
    4.9637   -5.9607    8.2652 H   0  0  0  0  0  0  0  0  0  0  0  0
    3.4925   -6.8686    8.6123 H   0  0  0  0  0  0  0  0  0  0  0  0
    0.8052   -8.5243    4.6803 H   0  0  0  0  0  0  0  0  0  0  0  0
    3.7490   -9.1937    4.6427 H   0  0  0  0  0  0  0  0  0  0  0  0
    1.4548  -10.6126    6.0537 H   0  0  0  0  0  0  0  0  0  0  0  0
    2.6353   -9.5956    6.8724 H   0  0  0  0  0  0  0  0  0  0  0  0
    3.1549  -11.0592    6.0869 H   0  0  0  0  0  0  0  0  0  0  0  0
  1  2  1  0
  1 35  1  0
  1 36  1  0
  1 37  1  0
  2 33  1  0
  2  3  1  0
  2 38  1  6
  3  4  1  0
  3 39  1  0
  3 40  1  0
  4  5  1  0
  4 41  1  0
  4 42  1  0
  5 32  1  0
  5  6  1  1
  5  7  1  0
  6 43  1  0
  6 44  1  0
  6 45  1  0
  7  8  1  0
  7 46  1  0
  7 47  1  0
  8  9  1  0
  8 48  1  0
  8 49  1  0
  9 30  1  0
  9 10  1  1
  9 11  1  0
 10 50  1  0
 10 51  1  0
 10 52  1  0
 11 12  2  0
 11 32  1  0
 12 13  1  0
 12 53  1  0
 13 14  2  0
 13 15  1  0
 15 30  1  0
 15 16  1  0
 15 54  1  1
 16 26  1  0
 16 17  1  1
 16 18  1  0
 17 55  1  0
 17 56  1  0
 17 57  1  0
 18 19  1  0
 18 58  1  0
 18 59  1  0
 19 20  1  0
 19 60  1  0
 19 61  1  0
 20 21  1  6
 20 22  1  0
 20 25  1  0
 21 62  1  0
 21 63  1  0
 21 64  1  0
 22 23  2  0
 22 24  1  0
 25 26  1  0
 25 65  1  0
 25 66  1  0
 26 27  1  1
 26 28  1  0
 27 67  1  0
 27 68  1  0
 27 69  1  0
 28 29  1  0
 28 70  1  0
 28 71  1  0
 29 30  1  0
 29 72  1  0
 29 73  1  0
 30 31  1  1
 31 74  1  0
 31 75  1  0
 31 76  1  0
 32 33  1  0
 32 77  1  1
 33 34  1  0
 33 78  1  6
 34 79  1  0
 34 80  1  0
 34 81  1  0
M  CHG  1  24  -1
M  END
>  <i_m_ct_stereo_status>  (347) 
1

>  <s_m_source_file>  (347) 
/var/tmp/pbs.5076255.sched01/tmpbrgkg_oh/138myny07gr.sdf

>  <i_m_source_file_index>  (347) 
15

>  <i_lp_mmshare_version>  (347) 
48012

>  <i_f3d_flags>  (347) 
0

>  <s_epik_input>  (347) 
W0NIMl0xW0NIMl1bQ0BASF0oW0NIM10pW0NASF0oW0NIM10pW0NASF0oW0NAXTEyW0NIM10pQz0zW0NAQF0oW0NIM10pKFtDSDJdW0NIMl0yKVtDQF00KFtDSDNdKVtDQEhdKEMoPU8pW0NIXTMpW0NAQF01KFtDSDNdKVtDQEBdKFtDSDNdKShbQ0gyXVtDSDJdNClbQ0gyXVtDQEBdKFtDSDNdKShbQ0gyXVtDSDJdNSlDKD1PKVtPSF0=

>  <s_epik_cmdline>  (347) 
J2VwaWtfcHl0aG9uJywgJy1waHQnLCAnMi4wJywgJy1waCcsICc3LjAnLCAnLXRuJywgJzgnLCAnLW1hJywgJzIwMCcsICctaW1hZScsICc8aW5maWxlLm1hZT4nLCAnLW9tYWUnLCAnPG91dGZpbGUubWFlPic=

>  <r_epik_Ionization_Penalty>  (347) 
0.00526783

>  <r_epik_Ionization_Penalty_Charging>  (347) 
0.00526783

>  <r_epik_Ionization_Penalty_Neutral>  (347) 
0

>  <r_epik_State_Penalty>  (347) 
0.00384325

>  <r_epik_Charging_Adjusted_Penalty>  (347) 
0.00911108

>  <i_epik_Tot_Q>  (347) 
-1

>  <i_epik_Tot_abs_Q>  (347) 
1

>  <s_lp_Force_Field>  (347) 
OPLS3e

>  <r_lp_Energy>  (347) 
108.387

>  <b_lp_Chiralities_Consistent>  (347) 
1

>  <s_lp_Variant>  (347) 
97:0-1

>  <s_i_glide_gridfile>  (347) 
pfpi4k_grid

>  <i_i_glide_lignum>  (347) 
15

>  <i_i_glide_rotatable_bonds>  (347) 
1

>  <r_i_docking_score>  (347) 
-2.35984

>  <r_i_glide_ligand_efficiency>  (347) 
-0.0694072

>  <r_i_glide_ligand_efficiency_sa>  (347) 
-0.224852

>  <r_i_glide_ligand_efficiency_ln>  (347) 
-0.521356

>  <r_i_glide_gscore>  (347) 
-2.35984

>  <r_i_glide_lipo>  (347) 
-0.0058524

>  <r_i_glide_hbond>  (347) 
-0.28118

>  <r_i_glide_metal>  (347) 
-0

>  <r_i_glide_rewards>  (347) 
-0.220206

>  <r_i_glide_evdw>  (347) 
-22.6443

>  <r_i_glide_ecoul>  (347) 
-4.42884

>  <r_i_glide_erotb>  (347) 
0

>  <r_i_glide_esite>  (347) 
-0.0560625

>  <r_i_glide_emodel>  (347) 
-31.3902

>  <r_i_glide_energy>  (347) 
-27.0732

>  <r_i_glide_einternal>  (347) 
1.14181

>  <r_i_glide_intrahb_reward>  (347) 
-0

>  <i_i_glide_confnum>  (347) 
2

>  <i_i_glide_posenum>  (347) 
38

>  <r_i_glide_eff_state_penalty>  (347) 
0

>  <ligand_id>  (347) 
97

>  <original_smiles>  (347) 
CC1CCC2(C)CCC3(C)C(=CC(=O)C4C5(C)CCC(C)(C(=O)O)CC5(C)CCC43C)C2C1C

>  <smiles>  (347) 
[H]C1=C2C3([H])C([H])(C([H])([H])[H])C([H])(C([H])([H])[H])C([H])([H])C([H])([H])C3(C([H])([H])[H])C([H])([H])C([H])([H])C2(C([H])([H])[H])C2(C([H])([H])[H])C([H])([H])C([H])([H])C3(C([H])([H])[H])C([H])([H])C(C(=O)[O-])(C([H])([H])[H])C([H])([H])C([H])([H])C3(C([H])([H])[H])C2([H])C1=O

$$$$
97:0:2
     RDKit          3D

 81 85  0  0  1  0  0  0  0  0999 V2000
    0.0516   -9.5570    2.9478 C   0  0  0  0  0  0  0  0  0  0  0  0
    0.7776   -8.1966    3.0012 C   0  0  2  0  0  0  0  0  0  0  0  0
    2.2973   -8.4080    2.9178 C   0  0  0  0  0  0  0  0  0  0  0  0
    3.0256   -7.0694    2.7835 C   0  0  0  0  0  0  0  0  0  0  0  0
    2.7383   -6.0643    3.9294 C   0  0  2  0  0  0  0  0  0  0  0  0
    3.2462   -4.6902    3.4215 C   0  0  0  0  0  0  0  0  0  0  0  0
    3.5065   -6.4486    5.2163 C   0  0  0  0  0  0  0  0  0  0  0  0
    3.2146   -5.5079    6.4176 C   0  0  0  0  0  0  0  0  0  0  0  0
    1.7070   -5.3290    6.7839 C   0  0  2  0  0  0  0  0  0  0  0  0
    1.2805   -6.7096    7.3751 C   0  0  0  0  0  0  0  0  0  0  0  0
    0.9621   -5.0458    5.4450 C   0  0  0  0  0  0  0  0  0  0  0  0
    0.2155   -3.9483    5.2205 C   0  0  0  0  0  0  0  0  0  0  0  0
    0.0158   -2.8838    6.1884 C   0  0  0  0  0  0  0  0  0  0  0  0
   -0.9369   -2.1037    6.1062 O   0  0  0  0  0  0  0  0  0  0  0  0
    1.0112   -2.7571    7.3465 C   0  0  2  0  0  0  0  0  0  0  0  0
    2.0598   -1.5757    7.2092 C   0  0  2  0  0  0  0  0  0  0  0  0
    1.2699   -0.2300    7.1453 C   0  0  0  0  0  0  0  0  0  0  0  0
    2.8953   -1.6690    5.9074 C   0  0  0  0  0  0  0  0  0  0  0  0
    3.8184   -0.4645    5.6856 C   0  0  0  0  0  0  0  0  0  0  0  0
    4.7809   -0.1602    6.8684 C   0  0  1  0  0  0  0  0  0  0  0  0
    6.1064   -0.9250    6.6421 C   0  0  0  0  0  0  0  0  0  0  0  0
    5.0486    1.3730    6.8347 C   0  0  0  0  0  0  0  0  0  0  0  0
    4.0775    2.1327    7.0541 O   0  0  0  0  0  0  0  0  0  0  0  0
    6.2056    1.7765    6.5895 O   0  0  0  0  0  0  0  0  0  0  0  0
    4.1885   -0.5046    8.2834 C   0  0  0  0  0  0  0  0  0  0  0  0
    3.0315   -1.5529    8.4419 C   0  0  1  0  0  0  0  0  0  0  0  0
    2.2833   -1.1546    9.7529 C   0  0  0  0  0  0  0  0  0  0  0  0
    3.6243   -2.9702    8.6575 C   0  0  0  0  0  0  0  0  0  0  0  0
    2.5559   -4.0434    8.9510 C   0  0  0  0  0  0  0  0  0  0  0  0
    1.4131   -4.1829    7.8997 C   0  0  2  0  0  0  0  0  0  0  0  0
    0.1554   -4.5921    8.7515 C   0  0  0  0  0  0  0  0  0  0  0  0
    1.2147   -5.9836    4.2360 C   0  0  2  0  0  0  0  0  0  0  0  0
    0.4482   -7.3499    4.2598 C   0  0  1  0  0  0  0  0  0  0  0  0
   -1.0719   -7.1462    4.4355 C   0  0  0  0  0  0  0  0  0  0  0  0
    0.2391  -10.1511    3.8451 H   0  0  0  0  0  0  0  0  0  0  0  0
    0.3827  -10.1412    2.0864 H   0  0  0  0  0  0  0  0  0  0  0  0
   -1.0272   -9.4354    2.8439 H   0  0  0  0  0  0  0  0  0  0  0  0
    0.4700   -7.6394    2.1151 H   0  0  0  0  0  0  0  0  0  0  0  0
    2.6549   -8.9544    3.7911 H   0  0  0  0  0  0  0  0  0  0  0  0
    2.5398   -9.0311    2.0553 H   0  0  0  0  0  0  0  0  0  0  0  0
    4.0987   -7.2436    2.7015 H   0  0  0  0  0  0  0  0  0  0  0  0
    2.7228   -6.6319    1.8312 H   0  0  0  0  0  0  0  0  0  0  0  0
    3.0196   -3.8799    4.1106 H   0  0  0  0  0  0  0  0  0  0  0  0
    2.7861   -4.4191    2.4696 H   0  0  0  0  0  0  0  0  0  0  0  0
    4.3269   -4.6951    3.2697 H   0  0  0  0  0  0  0  0  0  0  0  0
    3.2876   -7.4820    5.4780 H   0  0  0  0  0  0  0  0  0  0  0  0
    4.5789   -6.4398    5.0173 H   0  0  0  0  0  0  0  0  0  0  0  0
    3.7733   -5.8870    7.2717 H   0  0  0  0  0  0  0  0  0  0  0  0
    3.6652   -4.5571    6.1811 H   0  0  0  0  0  0  0  0  0  0  0  0
    1.6298   -6.8334    8.3992 H   0  0  0  0  0  0  0  0  0  0  0  0
    1.7138   -7.5665    6.8725 H   0  0  0  0  0  0  0  0  0  0  0  0
    0.1995   -6.8532    7.3592 H   0  0  0  0  0  0  0  0  0  0  0  0
   -0.2164   -3.7871    4.2482 H   0  0  0  0  0  0  0  0  0  0  0  0
    0.3686   -2.3491    8.1196 H   0  0  0  0  0  0  0  0  0  0  0  0
    1.9097    0.6347    7.3225 H   0  0  0  0  0  0  0  0  0  0  0  0
    0.4716   -0.1751    7.8860 H   0  0  0  0  0  0  0  0  0  0  0  0
    0.8158   -0.0771    6.1653 H   0  0  0  0  0  0  0  0  0  0  0  0
    3.5198   -2.5498    5.9051 H   0  0  0  0  0  0  0  0  0  0  0  0
    2.2479   -1.7589    5.0349 H   0  0  0  0  0  0  0  0  0  0  0  0
    4.4065   -0.6548    4.7849 H   0  0  0  0  0  0  0  0  0  0  0  0
    3.2075    0.4026    5.4229 H   0  0  0  0  0  0  0  0  0  0  0  0
    5.9462   -2.0025    6.6187 H   0  0  0  0  0  0  0  0  0  0  0  0
    6.8379   -0.7097    7.4209 H   0  0  0  0  0  0  0  0  0  0  0  0
    6.5652   -0.6445    5.6933 H   0  0  0  0  0  0  0  0  0  0  0  0
    5.0150   -0.8194    8.9196 H   0  0  0  0  0  0  0  0  0  0  0  0
    3.8643    0.4124    8.7765 H   0  0  0  0  0  0  0  0  0  0  0  0
    2.9239   -1.2929   10.6282 H   0  0  0  0  0  0  0  0  0  0  0  0
    1.3731   -1.7307    9.9224 H   0  0  0  0  0  0  0  0  0  0  0  0
    1.9807   -0.1054    9.7507 H   0  0  0  0  0  0  0  0  0  0  0  0
    4.2483   -3.2701    7.8232 H   0  0  0  0  0  0  0  0  0  0  0  0
    4.3148   -2.9559    9.5018 H   0  0  0  0  0  0  0  0  0  0  0  0
    3.0315   -5.0055    9.1291 H   0  0  0  0  0  0  0  0  0  0  0  0
    2.1291   -3.8044    9.9256 H   0  0  0  0  0  0  0  0  0  0  0  0
   -0.1516   -3.8031    9.4406 H   0  0  0  0  0  0  0  0  0  0  0  0
    0.3407   -5.4435    9.4050 H   0  0  0  0  0  0  0  0  0  0  0  0
   -0.7127   -4.8275    8.1325 H   0  0  0  0  0  0  0  0  0  0  0  0
    0.7895   -5.4840    3.3645 H   0  0  0  0  0  0  0  0  0  0  0  0
    0.7773   -7.9546    5.0957 H   0  0  0  0  0  0  0  0  0  0  0  0
   -1.5196   -6.6559    3.5711 H   0  0  0  0  0  0  0  0  0  0  0  0
   -1.2976   -6.5399    5.3109 H   0  0  0  0  0  0  0  0  0  0  0  0
   -1.5876   -8.0964    4.5847 H   0  0  0  0  0  0  0  0  0  0  0  0
  1  2  1  0
  1 35  1  0
  1 36  1  0
  1 37  1  0
  2 33  1  0
  2  3  1  0
  2 38  1  6
  3  4  1  0
  3 39  1  0
  3 40  1  0
  4  5  1  0
  4 41  1  0
  4 42  1  0
  5 32  1  0
  5  6  1  6
  5  7  1  0
  6 43  1  0
  6 44  1  0
  6 45  1  0
  7  8  1  0
  7 46  1  0
  7 47  1  0
  8  9  1  0
  8 48  1  0
  8 49  1  0
  9 30  1  0
  9 10  1  1
  9 11  1  0
 10 50  1  0
 10 51  1  0
 10 52  1  0
 11 12  2  0
 11 32  1  0
 12 13  1  0
 12 53  1  0
 13 14  2  0
 13 15  1  0
 15 30  1  0
 15 16  1  0
 15 54  1  1
 16 26  1  0
 16 17  1  6
 16 18  1  0
 17 55  1  0
 17 56  1  0
 17 57  1  0
 18 19  1  0
 18 58  1  0
 18 59  1  0
 19 20  1  0
 19 60  1  0
 19 61  1  0
 20 21  1  6
 20 22  1  0
 20 25  1  0
 21 62  1  0
 21 63  1  0
 21 64  1  0
 22 23  2  0
 22 24  1  0
 25 26  1  0
 25 65  1  0
 25 66  1  0
 26 27  1  1
 26 28  1  0
 27 67  1  0
 27 68  1  0
 27 69  1  0
 28 29  1  0
 28 70  1  0
 28 71  1  0
 29 30  1  0
 29 72  1  0
 29 73  1  0
 30 31  1  1
 31 74  1  0
 31 75  1  0
 31 76  1  0
 32 33  1  0
 32 77  1  6
 33 34  1  0
 33 78  1  1
 34 79  1  0
 34 80  1  0
 34 81  1  0
M  CHG  1  24  -1
M  END
>  <i_m_ct_stereo_status>  (348) 
1

>  <s_m_source_file>  (348) 
/var/tmp/pbs.5076255.sched01/tmpbrgkg_oh/138myny07gr.sdf

>  <i_m_source_file_index>  (348) 
15

>  <i_lp_mmshare_version>  (348) 
48012

>  <i_f3d_flags>  (348) 
0

>  <s_epik_input>  (348) 
W0NIMl0xW0NIMl1bQ0BASF0oW0NIM10pW0NASF0oW0NIM10pW0NASF0oW0NAXTEyW0NIM10pQz0zW0NAQF0oW0NIM10pKFtDSDJdW0NIMl0yKVtDQF00KFtDSDNdKVtDQEhdKEMoPU8pW0NIXTMpW0NAQF01KFtDSDNdKVtDQEBdKFtDSDNdKShbQ0gyXVtDSDJdNClbQ0gyXVtDQEBdKFtDSDNdKShbQ0gyXVtDSDJdNSlDKD1PKVtPSF0=

>  <s_epik_cmdline>  (348) 
J2VwaWtfcHl0aG9uJywgJy1waHQnLCAnMi4wJywgJy1waCcsICc3LjAnLCAnLXRuJywgJzgnLCAnLW1hJywgJzIwMCcsICctaW1hZScsICc8aW5maWxlLm1hZT4nLCAnLW9tYWUnLCAnPG91dGZpbGUubWFlPic=

>  <r_epik_Ionization_Penalty>  (348) 
0.00526783

>  <r_epik_Ionization_Penalty_Charging>  (348) 
0.00526783

>  <r_epik_Ionization_Penalty_Neutral>  (348) 
0

>  <r_epik_State_Penalty>  (348) 
0.00384325

>  <r_epik_Charging_Adjusted_Penalty>  (348) 
0.00911108

>  <i_epik_Tot_Q>  (348) 
-1

>  <i_epik_Tot_abs_Q>  (348) 
1

>  <s_lp_Force_Field>  (348) 
OPLS3e

>  <r_lp_Energy>  (348) 
108.387

>  <b_lp_Chiralities_Consistent>  (348) 
1

>  <s_lp_Variant>  (348) 
97:0-1

>  <s_i_glide_gridfile>  (348) 
pfpi4k_grid

>  <i_i_glide_lignum>  (348) 
15

>  <i_i_glide_rotatable_bonds>  (348) 
1

>  <r_i_docking_score>  (348) 
-1.53641

>  <r_i_glide_ligand_efficiency>  (348) 
-0.0451886

>  <r_i_glide_ligand_efficiency_sa>  (348) 
-0.146393

>  <r_i_glide_ligand_efficiency_ln>  (348) 
-0.339437

>  <r_i_glide_gscore>  (348) 
-1.53641

>  <r_i_glide_lipo>  (348) 
-0.037868

>  <r_i_glide_hbond>  (348) 
0

>  <r_i_glide_metal>  (348) 
-0

>  <r_i_glide_rewards>  (348) 
-0.223238

>  <r_i_glide_evdw>  (348) 
-21.3978

>  <r_i_glide_ecoul>  (348) 
-1.25346

>  <r_i_glide_erotb>  (348) 
0

>  <r_i_glide_esite>  (348) 
-0.0173983

>  <r_i_glide_emodel>  (348) 
-25.8916

>  <r_i_glide_energy>  (348) 
-22.6512

>  <r_i_glide_einternal>  (348) 
0.0583767

>  <r_i_glide_intrahb_reward>  (348) 
-0

>  <i_i_glide_confnum>  (348) 
2

>  <i_i_glide_posenum>  (348) 
17

>  <r_i_glide_eff_state_penalty>  (348) 
0

>  <ligand_id>  (348) 
97

>  <original_smiles>  (348) 
CC1CCC2(C)CCC3(C)C(=CC(=O)C4C5(C)CCC(C)(C(=O)O)CC5(C)CCC43C)C2C1C

>  <smiles>  (348) 
[H]C1=C2C3([H])C([H])(C([H])([H])[H])C([H])(C([H])([H])[H])C([H])([H])C([H])([H])C3(C([H])([H])[H])C([H])([H])C([H])([H])C2(C([H])([H])[H])C2(C([H])([H])[H])C([H])([H])C([H])([H])C3(C([H])([H])[H])C([H])([H])C(C(=O)[O-])(C([H])([H])[H])C([H])([H])C([H])([H])C3(C([H])([H])[H])C2([H])C1=O

$$$$
99:0:0
     RDKit          3D

 69 77  0  0  1  0  0  0  0  0999 V2000
    3.8678   -1.8101    3.8187 C   0  0  0  0  0  0  0  0  0  0  0  0
    4.3669   -2.6976    2.6731 C   0  0  2  0  0  0  0  0  0  0  0  0
    5.7904   -3.1235    2.5937 C   0  0  2  0  0  0  0  0  0  0  0  0
    6.1968   -1.8238    2.1575 O   0  0  0  0  0  0  0  0  0  0  0  0
    4.9365   -1.7275    1.5122 C   0  0  1  0  0  0  0  0  0  0  0  0
    5.4857   -1.9173    0.0590 C   0  0  1  0  0  0  0  0  0  0  0  0
    6.1867   -0.7488   -0.2647 O   0  0  0  0  0  0  0  0  0  0  0  0
    6.4747   -3.1320   -0.2279 C   0  0  1  0  0  0  0  0  0  0  0  0
    7.6409   -3.4022    0.6231 O   0  0  0  0  0  0  0  0  0  0  0  0
    7.4528   -4.5505    1.5045 C   0  0  0  0  0  0  0  0  0  0  0  0
    5.9442   -4.3626    1.6488 C   0  0  1  0  0  0  0  0  0  0  0  0
    4.8740   -5.2334    2.2743 C   0  0  1  0  0  0  0  0  0  0  0  0
    5.3348   -6.1030    3.4528 C   0  0  0  0  0  0  0  0  0  0  0  0
    4.1485   -6.8792    3.9709 C   0  0  2  0  0  0  0  0  0  0  0  0
    3.0862   -7.2018    3.0363 O   0  0  0  0  0  0  0  0  0  0  0  0
    2.8204   -6.2162    4.0406 C   0  0  1  0  0  0  0  0  0  0  0  0
    1.9159   -6.5366    5.2205 C   0  0  0  0  0  0  0  0  0  0  0  0
    1.7653   -5.2080    5.9592 C   0  0  0  0  0  0  0  0  0  0  0  0
    2.6198   -4.1956    5.1733 C   0  0  1  0  0  0  0  0  0  0  0  0
    3.8945   -4.2340    5.7880 O   0  0  0  0  0  0  0  0  0  0  0  0
    2.6658   -4.7197    3.7110 C   0  0  2  0  0  0  0  0  0  0  0  0
    1.2654   -4.4964    3.0749 C   0  0  0  0  0  0  0  0  0  0  0  0
    3.7337   -4.1648    2.6361 C   0  0  1  0  0  0  0  0  0  0  0  0
    5.6990   -4.3501    0.0851 C   0  0  1  0  0  0  0  0  0  0  0  0
    4.4876   -4.7986   -0.8283 C   0  0  1  0  0  0  0  0  0  0  0  0
    3.2168   -5.0405   -0.2841 O   0  0  0  0  0  0  0  0  0  0  0  0
    4.2301   -4.0482   -2.1807 C   0  0  0  0  0  0  0  0  0  0  0  0
    4.6701   -2.6318   -2.2007 C   0  0  1  0  0  0  0  0  0  0  0  0
    3.9327   -1.3801   -2.3023 C   0  0  0  0  0  0  0  0  0  0  0  0
    4.5958   -0.1538   -2.8368 C   0  0  0  0  0  0  0  0  0  0  0  0
    2.5488   -1.3653   -2.8223 C   0  0  0  0  0  0  0  0  0  0  0  0
    4.2754   -1.9054   -0.9041 C   0  0  2  0  0  0  0  0  0  0  0  0
    3.0188   -2.2299   -0.2868 O   0  0  0  0  0  0  0  0  0  0  0  0
    4.2613   -2.0976    4.7776 H   0  0  0  0  0  0  0  0  0  0  0  0
    2.7890   -1.7323    3.8522 H   0  0  0  0  0  0  0  0  0  0  0  0
    4.2209   -0.7890    3.7179 H   0  0  0  0  0  0  0  0  0  0  0  0
    6.0950   -3.3004    3.6219 H   0  0  0  0  0  0  0  0  0  0  0  0
    4.4697   -0.7390    1.5978 H   0  0  0  0  0  0  0  0  0  0  0  0
    5.5971   -0.0177   -0.1736 H   0  0  0  0  0  0  0  0  0  0  0  0
    6.8894   -3.1525   -1.2315 H   0  0  0  0  0  0  0  0  0  0  0  0
    7.7384   -5.4856    1.0257 H   0  0  0  0  0  0  0  0  0  0  0  0
    8.0455   -4.5279    2.4030 H   0  0  0  0  0  0  0  0  0  0  0  0
    4.5191   -5.9645    1.5480 H   0  0  0  0  0  0  0  0  0  0  0  0
    6.1099   -6.8007    3.1489 H   0  0  0  0  0  0  0  0  0  0  0  0
    5.7482   -5.4951    4.2615 H   0  0  0  0  0  0  0  0  0  0  0  0
    4.3789   -7.6547    4.7000 H   0  0  0  0  0  0  0  0  0  0  0  0
    0.9645   -6.9175    4.8575 H   0  0  0  0  0  0  0  0  0  0  0  0
    2.3868   -7.2950    5.8435 H   0  0  0  0  0  0  0  0  0  0  0  0
    0.7194   -4.9138    5.9672 H   0  0  0  0  0  0  0  0  0  0  0  0
    2.0585   -5.2891    7.0033 H   0  0  0  0  0  0  0  0  0  0  0  0
    2.1799   -3.2052    5.2754 H   0  0  0  0  0  0  0  0  0  0  0  0
    4.2475   -5.1031    5.7007 H   0  0  0  0  0  0  0  0  0  0  0  0
    1.1101   -3.4313    2.8817 H   0  0  0  0  0  0  0  0  0  0  0  0
    0.4279   -4.8336    3.6885 H   0  0  0  0  0  0  0  0  0  0  0  0
    1.1838   -5.0361    2.1235 H   0  0  0  0  0  0  0  0  0  0  0  0
    3.1231   -4.0919    1.7565 H   0  0  0  0  0  0  0  0  0  0  0  0
    6.3079   -5.1512   -0.3246 H   0  0  0  0  0  0  0  0  0  0  0  0
    4.7263   -5.8334   -1.1068 H   0  0  0  0  0  0  0  0  0  0  0  0
    2.7429   -5.5101   -0.9620 H   0  0  0  0  0  0  0  0  0  0  0  0
    4.7801   -4.5621   -2.9718 H   0  0  0  0  0  0  0  0  0  0  0  0
    3.1774   -4.0444   -2.4387 H   0  0  0  0  0  0  0  0  0  0  0  0
    5.6379   -2.4964   -2.6775 H   0  0  0  0  0  0  0  0  0  0  0  0
    4.2072    0.7271   -2.3493 H   0  0  0  0  0  0  0  0  0  0  0  0
    4.4458   -0.0960   -3.9224 H   0  0  0  0  0  0  0  0  0  0  0  0
    5.6445   -0.2377   -2.5913 H   0  0  0  0  0  0  0  0  0  0  0  0
    2.1673   -0.4477   -2.3737 H   0  0  0  0  0  0  0  0  0  0  0  0
    1.9400   -2.2291   -2.5279 H   0  0  0  0  0  0  0  0  0  0  0  0
    2.5275   -1.2633   -3.9093 H   0  0  0  0  0  0  0  0  0  0  0  0
    2.3176   -1.6675   -0.6175 H   0  0  0  0  0  0  0  0  0  0  0  0
  2  1  1  1
  1 34  1  0
  1 35  1  0
  1 36  1  0
  2  5  1  0
  2 23  1  0
  2  3  1  0
  3 11  1  0
  3  4  1  0
  3 37  1  1
  4  5  1  0
  5  6  1  0
  5 38  1  6
  6 32  1  0
  6  7  1  6
  6  8  1  0
  7 39  1  0
  8 24  1  0
  8  9  1  0
  8 40  1  6
  9 10  1  0
 11 10  1  6
 10 41  1  0
 10 42  1  0
 11 12  1  0
 11 24  1  0
 12 23  1  0
 12 13  1  0
 12 43  1  6
 13 14  1  0
 13 44  1  0
 13 45  1  0
 14 16  1  0
 14 15  1  0
 14 46  1  1
 16 15  1  6
 16 21  1  0
 16 17  1  0
 17 18  1  0
 17 47  1  0
 17 48  1  0
 18 19  1  0
 18 49  1  0
 18 50  1  0
 19 20  1  0
 19 21  1  0
 19 51  1  6
 20 52  1  0
 21 22  1  6
 21 23  1  0
 22 53  1  0
 22 54  1  0
 22 55  1  0
 23 56  1  6
 24 25  1  0
 24 57  1  6
 25 26  1  0
 25 27  1  0
 25 58  1  6
 26 59  1  0
 27 28  1  0
 27 60  1  0
 27 61  1  0
 28 32  1  0
 28 29  1  0
 28 62  1  6
 29 30  1  0
 29 31  1  0
 29 32  1  0
 30 63  1  0
 30 64  1  0
 30 65  1  0
 31 66  1  0
 31 67  1  0
 31 68  1  0
 32 33  1  1
 33 69  1  0
M  END
>  <i_m_ct_stereo_status>  (349) 
1

>  <s_m_source_file>  (349) 
/var/tmp/pbs.5076255.sched01/tmpbrgkg_oh/138myny07gr.sdf

>  <i_m_source_file_index>  (349) 
17

>  <i_lp_mmshare_version>  (349) 
48012

>  <i_f3d_flags>  (349) 
0

>  <s_epik_input>  (349) 
W0NIMl0xW0NIMl1bQ0BASF0oW09IXSlbQ0BdMihbQ0gzXSlbQ0BAXTEoTzMpW0NAQEhdM1tDSDJdW0NASF00W0NAQEhdMltDQEBdKFtDSDNdKShbQ0BIXTVbQ0BdNDY3KVtDQEBIXShPNSlbQ0BAXTgoW09IXSlbQ0BASF0oT1tDSDJdNilbQ0BASF03W0NAQEhdKFtPSF0pW0NIMl1bQ0BASF05W0NAXTgoW09IXSlDOShbQ0gzXSlbQ0gzXQ==

>  <s_epik_cmdline>  (349) 
J2VwaWtfcHl0aG9uJywgJy1waHQnLCAnMi4wJywgJy1waCcsICc3LjAnLCAnLXRuJywgJzgnLCAnLW1hJywgJzIwMCcsICctaW1hZScsICc8aW5maWxlLm1hZT4nLCAnLW9tYWUnLCAnPG91dGZpbGUubWFlPic=

>  <r_lp_tautomer_probability>  (349) 
1

>  <r_epik_Ionization_Penalty>  (349) 
6.77653e-07

>  <r_epik_Ionization_Penalty_Charging>  (349) 
0

>  <r_epik_Ionization_Penalty_Neutral>  (349) 
6.77653e-07

>  <r_epik_State_Penalty>  (349) 
-0

>  <r_epik_Charging_Adjusted_Penalty>  (349) 
0

>  <i_epik_Tot_Q>  (349) 
0

>  <i_epik_Tot_abs_Q>  (349) 
0

>  <s_lp_Force_Field>  (349) 
OPLS3e

>  <r_lp_Energy>  (349) 
197.751

>  <b_lp_Chiralities_Consistent>  (349) 
1

>  <s_lp_Variant>  (349) 
99:0-1

>  <s_i_glide_gridfile>  (349) 
pfpi4k_grid

>  <i_i_glide_lignum>  (349) 
17

>  <i_i_glide_rotatable_bonds>  (349) 
4

>  <r_i_docking_score>  (349) 
-2.43768

>  <r_i_glide_ligand_efficiency>  (349) 
-0.0738692

>  <r_i_glide_ligand_efficiency_sa>  (349) 
-0.236938

>  <r_i_glide_ligand_efficiency_ln>  (349) 
-0.542128

>  <r_i_glide_gscore>  (349) 
-2.43768

>  <r_i_glide_lipo>  (349) 
-0.505154

>  <r_i_glide_hbond>  (349) 
0

>  <r_i_glide_metal>  (349) 
-0

>  <r_i_glide_rewards>  (349) 
-0.26891

>  <r_i_glide_evdw>  (349) 
-3.0072

>  <r_i_glide_ecoul>  (349) 
-10.0884

>  <r_i_glide_erotb>  (349) 
0

>  <r_i_glide_esite>  (349) 
0

>  <r_i_glide_emodel>  (349) 
-16.1368

>  <r_i_glide_energy>  (349) 
-13.0956

>  <r_i_glide_einternal>  (349) 
0.883693

>  <r_i_glide_intrahb_reward>  (349) 
-0

>  <i_i_glide_confnum>  (349) 
1

>  <i_i_glide_posenum>  (349) 
30

>  <r_i_glide_eff_state_penalty>  (349) 
0

>  <ligand_id>  (349) 
99

>  <original_smiles>  (349) 
CC12C3OC1C1(O)C4OCC3(C3CC5OC56CCC(O)C6(C)C32)C4C(O)CC2C(C)(C)C21O

>  <smiles>  (349) 
[H]OC1([H])C([H])([H])C2([H])C(O[H])(C3(O[H])C4([H])OC([H])([H])C5(C6([H])OC3([H])C6(C([H])([H])[H])C3([H])C5([H])C([H])([H])C5([H])OC56C([H])([H])C([H])([H])C([H])(O[H])C36C([H])([H])[H])C14[H])C2(C([H])([H])[H])C([H])([H])[H]

$$$$
99:0:1
     RDKit          3D

 69 77  0  0  1  0  0  0  0  0999 V2000
    2.3998    2.7022    2.9409 C   0  0  0  0  0  0  0  0  0  0  0  0
    2.2976    1.3757    3.7030 C   0  0  2  0  0  0  0  0  0  0  0  0
    2.9834    1.1771    4.9986 C   0  0  2  0  0  0  0  0  0  0  0  0
    4.2664    1.0592    4.3940 O   0  0  0  0  0  0  0  0  0  0  0  0
    3.5817    0.4669    3.3019 C   0  0  1  0  0  0  0  0  0  0  0  0
    4.0448   -1.0080    3.5470 C   0  0  1  0  0  0  0  0  0  0  0  0
    5.4244   -1.0863    3.2360 O   0  0  0  0  0  0  0  0  0  0  0  0
    3.9190   -1.5788    5.0255 C   0  0  1  0  0  0  0  0  0  0  0  0
    4.3886   -0.8191    6.1810 O   0  0  0  0  0  0  0  0  0  0  0  0
    3.3239   -0.1590    6.9234 C   0  0  0  0  0  0  0  0  0  0  0  0
    2.3606   -0.0385    5.7552 C   0  0  1  0  0  0  0  0  0  0  0  0
    0.9118    0.3777    5.6708 C   0  0  1  0  0  0  0  0  0  0  0  0
    0.4117    1.3075    6.7829 C   0  0  0  0  0  0  0  0  0  0  0  0
   -1.0298    1.6304    6.5200 C   0  0  2  0  0  0  0  0  0  0  0  0
   -1.8261    0.6348    5.8277 O   0  0  0  0  0  0  0  0  0  0  0  0
   -1.4951    1.8465    5.1138 C   0  0  1  0  0  0  0  0  0  0  0  0
   -2.5208    2.9232    4.8646 C   0  0  0  0  0  0  0  0  0  0  0  0
   -1.8148    3.9592    3.9995 C   0  0  0  0  0  0  0  0  0  0  0  0
   -0.3907    3.4310    3.8239 C   0  0  1  0  0  0  0  0  0  0  0  0
    0.3413    4.0050    4.8861 O   0  0  0  0  0  0  0  0  0  0  0  0
   -0.4860    1.8867    3.9562 C   0  0  2  0  0  0  0  0  0  0  0  0
   -1.1518    1.3339    2.6634 C   0  0  0  0  0  0  0  0  0  0  0  0
    0.8303    0.9854    4.1953 C   0  0  1  0  0  0  0  0  0  0  0  0
    2.4675   -1.5616    5.3092 C   0  0  1  0  0  0  0  0  0  0  0  0
    1.4415   -2.5774    4.5997 C   0  0  1  0  0  0  0  0  0  0  0  0
    0.2923   -2.0643    3.9703 O   0  0  0  0  0  0  0  0  0  0  0  0
    2.0005   -3.6914    3.6473 C   0  0  0  0  0  0  0  0  0  0  0  0
    3.3147   -3.3597    2.9866 C   0  0  1  0  0  0  0  0  0  0  0  0
    3.7682   -3.1071    1.5786 C   0  0  0  0  0  0  0  0  0  0  0  0
    5.2244   -3.3170    1.1925 C   0  0  0  0  0  0  0  0  0  0  0  0
    2.9029   -3.6255    0.4372 C   0  0  0  0  0  0  0  0  0  0  0  0
    3.3804   -1.9224    2.4928 C   0  0  2  0  0  0  0  0  0  0  0  0
    2.1548   -1.4214    1.9772 O   0  0  0  0  0  0  0  0  0  0  0  0
    2.3044    3.5821    3.5619 H   0  0  0  0  0  0  0  0  0  0  0  0
    1.7116    2.7483    2.0984 H   0  0  0  0  0  0  0  0  0  0  0  0
    3.3782    2.8486    2.4997 H   0  0  0  0  0  0  0  0  0  0  0  0
    2.9230    2.1028    5.5604 H   0  0  0  0  0  0  0  0  0  0  0  0
    3.9757    0.8212    2.3540 H   0  0  0  0  0  0  0  0  0  0  0  0
    5.5532   -0.7648    2.3650 H   0  0  0  0  0  0  0  0  0  0  0  0
    4.3695   -2.5601    5.1493 H   0  0  0  0  0  0  0  0  0  0  0  0
    2.9621   -0.7766    7.7464 H   0  0  0  0  0  0  0  0  0  0  0  0
    3.6573    0.7966    7.3346 H   0  0  0  0  0  0  0  0  0  0  0  0
    0.2772   -0.5006    5.7773 H   0  0  0  0  0  0  0  0  0  0  0  0
    0.4944    0.8390    7.7690 H   0  0  0  0  0  0  0  0  0  0  0  0
    0.9717    2.2455    6.8079 H   0  0  0  0  0  0  0  0  0  0  0  0
   -1.5521    2.1599    7.3068 H   0  0  0  0  0  0  0  0  0  0  0  0
   -3.3744    2.5197    4.3277 H   0  0  0  0  0  0  0  0  0  0  0  0
   -2.8634    3.3480    5.8020 H   0  0  0  0  0  0  0  0  0  0  0  0
   -2.3234    4.0478    3.0391 H   0  0  0  0  0  0  0  0  0  0  0  0
   -1.8211    4.9317    4.4730 H   0  0  0  0  0  0  0  0  0  0  0  0
    0.0088    3.7792    2.8776 H   0  0  0  0  0  0  0  0  0  0  0  0
    1.2507    3.7984    4.7536 H   0  0  0  0  0  0  0  0  0  0  0  0
   -0.4697    1.4040    1.8116 H   0  0  0  0  0  0  0  0  0  0  0  0
   -2.0674    1.8520    2.3766 H   0  0  0  0  0  0  0  0  0  0  0  0
   -1.4196    0.2833    2.7867 H   0  0  0  0  0  0  0  0  0  0  0  0
    0.6385    0.1466    3.5517 H   0  0  0  0  0  0  0  0  0  0  0  0
    2.4210   -2.1154    6.2425 H   0  0  0  0  0  0  0  0  0  0  0  0
    0.9726   -3.1414    5.4103 H   0  0  0  0  0  0  0  0  0  0  0  0
    0.5859   -1.6200    3.1859 H   0  0  0  0  0  0  0  0  0  0  0  0
    2.1713   -4.5912    4.2354 H   0  0  0  0  0  0  0  0  0  0  0  0
    1.2656   -3.9829    2.8956 H   0  0  0  0  0  0  0  0  0  0  0  0
    4.1461   -3.7849    3.5318 H   0  0  0  0  0  0  0  0  0  0  0  0
    5.5245   -2.5869    0.4379 H   0  0  0  0  0  0  0  0  0  0  0  0
    5.3879   -4.3213    0.7921 H   0  0  0  0  0  0  0  0  0  0  0  0
    5.8779   -3.2148    2.0554 H   0  0  0  0  0  0  0  0  0  0  0  0
    3.0648   -3.0319   -0.4667 H   0  0  0  0  0  0  0  0  0  0  0  0
    1.8491   -3.5899    0.7009 H   0  0  0  0  0  0  0  0  0  0  0  0
    3.1510   -4.6679    0.2203 H   0  0  0  0  0  0  0  0  0  0  0  0
    2.2367   -1.2681    1.0474 H   0  0  0  0  0  0  0  0  0  0  0  0
  2  1  1  6
  1 34  1  0
  1 35  1  0
  1 36  1  0
  2  5  1  0
  2 23  1  0
  2  3  1  0
  3 11  1  0
  3  4  1  0
  3 37  1  1
  4  5  1  0
  5  6  1  0
  5 38  1  6
  6 32  1  0
  6  7  1  6
  6  8  1  0
  7 39  1  0
  8 24  1  0
  8  9  1  0
  8 40  1  6
  9 10  1  0
 11 10  1  1
 10 41  1  0
 10 42  1  0
 11 12  1  0
 11 24  1  0
 12 23  1  0
 12 13  1  0
 12 43  1  6
 13 14  1  0
 13 44  1  0
 13 45  1  0
 14 16  1  0
 14 15  1  0
 14 46  1  1
 16 15  1  6
 16 21  1  0
 16 17  1  0
 17 18  1  0
 17 47  1  0
 17 48  1  0
 18 19  1  0
 18 49  1  0
 18 50  1  0
 19 20  1  0
 19 21  1  0
 19 51  1  6
 20 52  1  0
 21 22  1  6
 21 23  1  0
 22 53  1  0
 22 54  1  0
 22 55  1  0
 23 56  1  6
 24 25  1  0
 24 57  1  1
 25 26  1  0
 25 27  1  0
 25 58  1  1
 26 59  1  0
 27 28  1  0
 27 60  1  0
 27 61  1  0
 28 32  1  0
 28 29  1  0
 28 62  1  1
 29 30  1  0
 29 31  1  0
 29 32  1  0
 30 63  1  0
 30 64  1  0
 30 65  1  0
 31 66  1  0
 31 67  1  0
 31 68  1  0
 32 33  1  6
 33 69  1  0
M  END
>  <i_m_ct_stereo_status>  (350) 
1

>  <s_m_source_file>  (350) 
/var/tmp/pbs.5076255.sched01/tmpbrgkg_oh/138myny07gr.sdf

>  <i_m_source_file_index>  (350) 
17

>  <i_lp_mmshare_version>  (350) 
48012

>  <i_f3d_flags>  (350) 
0

>  <s_epik_input>  (350) 
W0NIMl0xW0NIMl1bQ0BASF0oW09IXSlbQ0BdMihbQ0gzXSlbQ0BAXTEoTzMpW0NAQEhdM1tDSDJdW0NASF00W0NAQEhdMltDQEBdKFtDSDNdKShbQ0BIXTVbQ0BdNDY3KVtDQEBIXShPNSlbQ0BAXTgoW09IXSlbQ0BASF0oT1tDSDJdNilbQ0BASF03W0NAQEhdKFtPSF0pW0NIMl1bQ0BASF05W0NAXTgoW09IXSlDOShbQ0gzXSlbQ0gzXQ==

>  <s_epik_cmdline>  (350) 
J2VwaWtfcHl0aG9uJywgJy1waHQnLCAnMi4wJywgJy1waCcsICc3LjAnLCAnLXRuJywgJzgnLCAnLW1hJywgJzIwMCcsICctaW1hZScsICc8aW5maWxlLm1hZT4nLCAnLW9tYWUnLCAnPG91dGZpbGUubWFlPic=

>  <r_lp_tautomer_probability>  (350) 
1

>  <r_epik_Ionization_Penalty>  (350) 
6.77653e-07

>  <r_epik_Ionization_Penalty_Charging>  (350) 
0

>  <r_epik_Ionization_Penalty_Neutral>  (350) 
6.77653e-07

>  <r_epik_State_Penalty>  (350) 
-0

>  <r_epik_Charging_Adjusted_Penalty>  (350) 
0

>  <i_epik_Tot_Q>  (350) 
0

>  <i_epik_Tot_abs_Q>  (350) 
0

>  <s_lp_Force_Field>  (350) 
OPLS3e

>  <r_lp_Energy>  (350) 
197.751

>  <b_lp_Chiralities_Consistent>  (350) 
1

>  <s_lp_Variant>  (350) 
99:0-1

>  <s_i_glide_gridfile>  (350) 
pfpi4k_grid

>  <i_i_glide_lignum>  (350) 
17

>  <i_i_glide_rotatable_bonds>  (350) 
4

>  <r_i_docking_score>  (350) 
-2.2467

>  <r_i_glide_ligand_efficiency>  (350) 
-0.0680817

>  <r_i_glide_ligand_efficiency_sa>  (350) 
-0.218374

>  <r_i_glide_ligand_efficiency_ln>  (350) 
-0.499654

>  <r_i_glide_gscore>  (350) 
-2.2467

>  <r_i_glide_lipo>  (350) 
-0.0578585

>  <r_i_glide_hbond>  (350) 
0

>  <r_i_glide_metal>  (350) 
-0

>  <r_i_glide_rewards>  (350) 
-0.76891

>  <r_i_glide_evdw>  (350) 
-19.5459

>  <r_i_glide_ecoul>  (350) 
-2.95087

>  <r_i_glide_erotb>  (350) 
0

>  <r_i_glide_esite>  (350) 
0

>  <r_i_glide_emodel>  (350) 
-30.5787

>  <r_i_glide_energy>  (350) 
-22.4968

>  <r_i_glide_einternal>  (350) 
0.91607

>  <r_i_glide_intrahb_reward>  (350) 
-0.5

>  <i_i_glide_confnum>  (350) 
2

>  <i_i_glide_posenum>  (350) 
35

>  <r_i_glide_eff_state_penalty>  (350) 
0

>  <ligand_id>  (350) 
99

>  <original_smiles>  (350) 
CC12C3OC1C1(O)C4OCC3(C3CC5OC56CCC(O)C6(C)C32)C4C(O)CC2C(C)(C)C21O

>  <smiles>  (350) 
[H]OC1([H])C([H])([H])C2([H])C(O[H])(C3(O[H])C4([H])OC([H])([H])C5(C6([H])OC3([H])C6(C([H])([H])[H])C3([H])C5([H])C([H])([H])C5([H])OC56C([H])([H])C([H])([H])C([H])(O[H])C36C([H])([H])[H])C14[H])C2(C([H])([H])[H])C([H])([H])[H]

$$$$
99:0:2
     RDKit          3D

 69 77  0  0  1  0  0  0  0  0999 V2000
    2.4354    1.5489    2.8724 C   0  0  0  0  0  0  0  0  0  0  0  0
    2.1662    0.5812    4.0380 C   0  0  2  0  0  0  0  0  0  0  0  0
    2.8951    0.7297    5.3199 C   0  0  2  0  0  0  0  0  0  0  0  0
    4.1035    0.1870    4.7753 O   0  0  0  0  0  0  0  0  0  0  0  0
    3.2639   -0.6116    3.9554 C   0  0  1  0  0  0  0  0  0  0  0  0
    3.4816   -1.9885    4.6819 C   0  0  1  0  0  0  0  0  0  0  0  0
    4.8165   -2.3651    4.4187 O   0  0  0  0  0  0  0  0  0  0  0  0
    3.3517   -1.9947    6.2687 C   0  0  1  0  0  0  0  0  0  0  0  0
    4.0323   -0.9897    7.0869 O   0  0  0  0  0  0  0  0  0  0  0  0
    3.1417    0.0560    7.5796 C   0  0  0  0  0  0  0  0  0  0  0  0
    2.1316   -0.0439    6.4487 C   0  0  1  0  0  0  0  0  0  0  0  0
    0.7675    0.5757    6.2456 C   0  0  1  0  0  0  0  0  0  0  0  0
    0.5007    1.8943    6.9767 C   0  0  0  0  0  0  0  0  0  0  0  0
   -0.8910    2.3627    6.6392 C   0  0  2  0  0  0  0  0  0  0  0  0
   -1.8911    1.3596    6.3142 O   0  0  0  0  0  0  0  0  0  0  0  0
   -1.3988    2.1869    5.2463 C   0  0  1  0  0  0  0  0  0  0  0  0
   -2.2602    3.2911    4.6646 C   0  0  0  0  0  0  0  0  0  0  0  0
   -1.4484    3.8383    3.4867 C   0  0  0  0  0  0  0  0  0  0  0  0
   -0.1345    3.0290    3.4897 C   0  0  1  0  0  0  0  0  0  0  0  0
    0.7575    3.7818    4.2922 O   0  0  0  0  0  0  0  0  0  0  0  0
   -0.4745    1.6539    4.1366 C   0  0  2  0  0  0  0  0  0  0  0  0
   -1.3130    0.8391    3.1171 C   0  0  0  0  0  0  0  0  0  0  0  0
    0.6854    0.6610    4.6553 C   0  0  1  0  0  0  0  0  0  0  0  0
    1.9462   -1.6229    6.5586 C   0  0  1  0  0  0  0  0  0  0  0  0
    0.7173   -2.6134    6.2253 C   0  0  1  0  0  0  0  0  0  0  0  0
   -0.3800   -2.1470    5.4732 O   0  0  0  0  0  0  0  0  0  0  0  0
    1.0161   -4.0634    5.7075 C   0  0  0  0  0  0  0  0  0  0  0  0
    2.3279   -4.2213    4.9692 C   0  0  1  0  0  0  0  0  0  0  0  0
    2.7108   -4.5270    3.5536 C   0  0  0  0  0  0  0  0  0  0  0  0
    4.0860   -5.1036    3.2472 C   0  0  0  0  0  0  0  0  0  0  0  0
    1.6873   -5.2239    2.6669 C   0  0  0  0  0  0  0  0  0  0  0  0
    2.5823   -3.0599    4.0070 C   0  0  2  0  0  0  0  0  0  0  0  0
    1.4434   -2.5109    3.3521 O   0  0  0  0  0  0  0  0  0  0  0  0
    2.5135    2.5837    3.1773 H   0  0  0  0  0  0  0  0  0  0  0  0
    1.7025    1.4383    2.0787 H   0  0  0  0  0  0  0  0  0  0  0  0
    3.3938    1.3626    2.3951 H   0  0  0  0  0  0  0  0  0  0  0  0
    3.0274    1.7909    5.5423 H   0  0  0  0  0  0  0  0  0  0  0  0
    3.6594   -0.6765    2.9410 H   0  0  0  0  0  0  0  0  0  0  0  0
    5.3587   -1.6844    4.7980 H   0  0  0  0  0  0  0  0  0  0  0  0
    3.6390   -2.9389    6.7266 H   0  0  0  0  0  0  0  0  0  0  0  0
    2.7418   -0.1710    8.5695 H   0  0  0  0  0  0  0  0  0  0  0  0
    3.6528    1.0173    7.6440 H   0  0  0  0  0  0  0  0  0  0  0  0
    0.0051   -0.0881    6.6447 H   0  0  0  0  0  0  0  0  0  0  0  0
    0.5825    1.7717    8.0564 H   0  0  0  0  0  0  0  0  0  0  0  0
    1.2102    2.6677    6.6811 H   0  0  0  0  0  0  0  0  0  0  0  0
   -1.2581    3.2104    7.2135 H   0  0  0  0  0  0  0  0  0  0  0  0
   -3.2190    2.8934    4.3355 H   0  0  0  0  0  0  0  0  0  0  0  0
   -2.4449    4.0587    5.4117 H   0  0  0  0  0  0  0  0  0  0  0  0
   -1.9925    3.6838    2.5558 H   0  0  0  0  0  0  0  0  0  0  0  0
   -1.2763    4.9124    3.5595 H   0  0  0  0  0  0  0  0  0  0  0  0
    0.2443    2.9473    2.4775 H   0  0  0  0  0  0  0  0  0  0  0  0
    1.0311    4.5330    3.7841 H   0  0  0  0  0  0  0  0  0  0  0  0
   -0.6868    0.5013    2.2881 H   0  0  0  0  0  0  0  0  0  0  0  0
   -2.1350    1.4020    2.6763 H   0  0  0  0  0  0  0  0  0  0  0  0
   -1.7561   -0.0407    3.5897 H   0  0  0  0  0  0  0  0  0  0  0  0
    0.3155   -0.2944    4.3385 H   0  0  0  0  0  0  0  0  0  0  0  0
    1.8714   -1.8213    7.6293 H   0  0  0  0  0  0  0  0  0  0  0  0
    0.2165   -2.7826    7.1835 H   0  0  0  0  0  0  0  0  0  0  0  0
   -0.0683   -1.9966    4.5869 H   0  0  0  0  0  0  0  0  0  0  0  0
    1.0771   -4.7239    6.5690 H   0  0  0  0  0  0  0  0  0  0  0  0
    0.1940   -4.4557    5.1073 H   0  0  0  0  0  0  0  0  0  0  0  0
    3.1134   -4.5859    5.6281 H   0  0  0  0  0  0  0  0  0  0  0  0
    4.4476   -4.7338    2.2851 H   0  0  0  0  0  0  0  0  0  0  0  0
    4.0525   -6.1945    3.2105 H   0  0  0  0  0  0  0  0  0  0  0  0
    4.8104   -4.8315    4.0156 H   0  0  0  0  0  0  0  0  0  0  0  0
    1.8843   -5.0060    1.6167 H   0  0  0  0  0  0  0  0  0  0  0  0
    0.6735   -4.9107    2.9098 H   0  0  0  0  0  0  0  0  0  0  0  0
    1.7432   -6.3032    2.8138 H   0  0  0  0  0  0  0  0  0  0  0  0
    1.7610   -2.0081    2.6136 H   0  0  0  0  0  0  0  0  0  0  0  0
  2  1  1  6
  1 34  1  0
  1 35  1  0
  1 36  1  0
  2  5  1  0
  2 23  1  0
  2  3  1  0
  3 11  1  0
  3  4  1  0
  3 37  1  1
  4  5  1  0
  5  6  1  0
  5 38  1  6
  6 32  1  0
  6  7  1  1
  6  8  1  0
  7 39  1  0
  8 24  1  0
  8  9  1  0
  8 40  1  1
  9 10  1  0
 11 10  1  1
 10 41  1  0
 10 42  1  0
 11 12  1  0
 11 24  1  0
 12 23  1  0
 12 13  1  0
 12 43  1  1
 13 14  1  0
 13 44  1  0
 13 45  1  0
 14 16  1  0
 14 15  1  0
 14 46  1  1
 16 15  1  1
 16 21  1  0
 16 17  1  0
 17 18  1  0
 17 47  1  0
 17 48  1  0
 18 19  1  0
 18 49  1  0
 18 50  1  0
 19 20  1  0
 19 21  1  0
 19 51  1  6
 20 52  1  0
 21 22  1  6
 21 23  1  0
 22 53  1  0
 22 54  1  0
 22 55  1  0
 23 56  1  6
 24 25  1  0
 24 57  1  1
 25 26  1  0
 25 27  1  0
 25 58  1  1
 26 59  1  0
 27 28  1  0
 27 60  1  0
 27 61  1  0
 28 32  1  0
 28 29  1  0
 28 62  1  1
 29 30  1  0
 29 31  1  0
 29 32  1  0
 30 63  1  0
 30 64  1  0
 30 65  1  0
 31 66  1  0
 31 67  1  0
 31 68  1  0
 32 33  1  6
 33 69  1  0
M  END
>  <i_m_ct_stereo_status>  (351) 
1

>  <s_m_source_file>  (351) 
/var/tmp/pbs.5076255.sched01/tmpbrgkg_oh/138myny07gr.sdf

>  <i_m_source_file_index>  (351) 
17

>  <i_lp_mmshare_version>  (351) 
48012

>  <i_f3d_flags>  (351) 
0

>  <s_epik_input>  (351) 
W0NIMl0xW0NIMl1bQ0BASF0oW09IXSlbQ0BdMihbQ0gzXSlbQ0BAXTEoTzMpW0NAQEhdM1tDSDJdW0NASF00W0NAQEhdMltDQEBdKFtDSDNdKShbQ0BIXTVbQ0BdNDY3KVtDQEBIXShPNSlbQ0BAXTgoW09IXSlbQ0BASF0oT1tDSDJdNilbQ0BASF03W0NAQEhdKFtPSF0pW0NIMl1bQ0BASF05W0NAXTgoW09IXSlDOShbQ0gzXSlbQ0gzXQ==

>  <s_epik_cmdline>  (351) 
J2VwaWtfcHl0aG9uJywgJy1waHQnLCAnMi4wJywgJy1waCcsICc3LjAnLCAnLXRuJywgJzgnLCAnLW1hJywgJzIwMCcsICctaW1hZScsICc8aW5maWxlLm1hZT4nLCAnLW9tYWUnLCAnPG91dGZpbGUubWFlPic=

>  <r_lp_tautomer_probability>  (351) 
1

>  <r_epik_Ionization_Penalty>  (351) 
6.77653e-07

>  <r_epik_Ionization_Penalty_Charging>  (351) 
0

>  <r_epik_Ionization_Penalty_Neutral>  (351) 
6.77653e-07

>  <r_epik_State_Penalty>  (351) 
-0

>  <r_epik_Charging_Adjusted_Penalty>  (351) 
0

>  <i_epik_Tot_Q>  (351) 
0

>  <i_epik_Tot_abs_Q>  (351) 
0

>  <s_lp_Force_Field>  (351) 
OPLS3e

>  <r_lp_Energy>  (351) 
197.751

>  <b_lp_Chiralities_Consistent>  (351) 
1

>  <s_lp_Variant>  (351) 
99:0-1

>  <s_i_glide_gridfile>  (351) 
pfpi4k_grid

>  <i_i_glide_lignum>  (351) 
17

>  <i_i_glide_rotatable_bonds>  (351) 
4

>  <r_i_docking_score>  (351) 
-2.09331

>  <r_i_glide_ligand_efficiency>  (351) 
-0.0634337

>  <r_i_glide_ligand_efficiency_sa>  (351) 
-0.203466

>  <r_i_glide_ligand_efficiency_ln>  (351) 
-0.465542

>  <r_i_glide_gscore>  (351) 
-2.09331

>  <r_i_glide_lipo>  (351) 
-0.00302923

>  <r_i_glide_hbond>  (351) 
0

>  <r_i_glide_metal>  (351) 
-0

>  <r_i_glide_rewards>  (351) 
-0.76891

>  <r_i_glide_evdw>  (351) 
-18.0138

>  <r_i_glide_ecoul>  (351) 
-2.80455

>  <r_i_glide_erotb>  (351) 
0

>  <r_i_glide_esite>  (351) 
0

>  <r_i_glide_emodel>  (351) 
-28.7262

>  <r_i_glide_energy>  (351) 
-20.8184

>  <r_i_glide_einternal>  (351) 
0.614752

>  <r_i_glide_intrahb_reward>  (351) 
-0.5

>  <i_i_glide_confnum>  (351) 
2

>  <i_i_glide_posenum>  (351) 
2

>  <r_i_glide_eff_state_penalty>  (351) 
0

>  <ligand_id>  (351) 
99

>  <original_smiles>  (351) 
CC12C3OC1C1(O)C4OCC3(C3CC5OC56CCC(O)C6(C)C32)C4C(O)CC2C(C)(C)C21O

>  <smiles>  (351) 
[H]OC1([H])C([H])([H])C2([H])C(O[H])(C3(O[H])C4([H])OC([H])([H])C5(C6([H])OC3([H])C6(C([H])([H])[H])C3([H])C5([H])C([H])([H])C5([H])OC56C([H])([H])C([H])([H])C([H])(O[H])C36C([H])([H])[H])C14[H])C2(C([H])([H])[H])C([H])([H])[H]

$$$$
100:0:0
     RDKit          3D

 45 48  0  0  1  0  0  0  0  0999 V2000
   -0.7722    3.6837    8.9346 C   0  0  0  0  0  0  0  0  0  0  0  0
   -1.5748    2.7673    7.9926 C   0  0  0  0  0  0  0  0  0  0  0  0
   -3.0847    2.9413    8.1957 C   0  0  0  0  0  0  0  0  0  0  0  0
   -1.2796    3.0803    6.6492 O   0  0  0  0  0  0  0  0  0  0  0  0
   -0.3227    2.1047    6.3089 C   0  0  2  0  0  0  0  0  0  0  0  0
   -0.0289    1.6285    4.8749 C   0  0  1  0  0  0  0  0  0  0  0  0
    0.4661    2.4585    3.8577 O   0  0  0  0  0  0  0  0  0  0  0  0
    1.0628    1.5319    2.9799 C   0  0  0  0  0  0  0  0  0  0  0  0
    0.1201    1.2317    1.8126 C   0  0  0  0  0  0  0  0  0  0  0  0
    2.3873    2.1286    2.4956 C   0  0  0  0  0  0  0  0  0  0  0  0
    1.3110    0.3260    3.6525 O   0  0  0  0  0  0  0  0  0  0  0  0
    1.2039    0.7186    4.9944 C   0  0  2  0  0  0  0  0  0  0  0  0
    1.0887   -0.2782    6.1814 C   0  0  2  0  0  0  0  0  0  0  0  0
    1.4760   -1.6255    6.0631 O   0  0  0  0  0  0  0  0  0  0  0  0
    0.8250   -2.2604    7.1333 C   0  0  0  0  0  0  0  0  0  0  0  0
    0.1874   -3.5521    6.5972 C   0  0  0  0  0  0  0  0  0  0  0  0
    1.8361   -2.5360    8.2564 C   0  0  0  0  0  0  0  0  0  0  0  0
   -0.1778   -1.4294    7.6503 O   0  0  0  0  0  0  0  0  0  0  0  0
   -0.3370   -0.4411    6.6577 C   0  0  1  0  0  0  0  0  0  0  0  0
   -1.0364    0.9171    6.9628 C   0  0  1  0  0  0  0  0  0  0  0  0
   -1.2199    1.4305    8.2589 O   0  0  0  0  0  0  0  0  0  0  0  0
    0.3012    3.5439    8.8042 H   0  0  0  0  0  0  0  0  0  0  0  0
   -1.0254    3.4558    9.9718 H   0  0  0  0  0  0  0  0  0  0  0  0
   -1.0181    4.7289    8.7423 H   0  0  0  0  0  0  0  0  0  0  0  0
   -3.6337    2.3138    7.4929 H   0  0  0  0  0  0  0  0  0  0  0  0
   -3.3625    3.9825    8.0289 H   0  0  0  0  0  0  0  0  0  0  0  0
   -3.3570    2.6589    9.2148 H   0  0  0  0  0  0  0  0  0  0  0  0
    0.6143    2.3503    6.8194 H   0  0  0  0  0  0  0  0  0  0  0  0
   -0.8958    1.0934    4.4736 H   0  0  0  0  0  0  0  0  0  0  0  0
   -0.8109    0.7799    2.1537 H   0  0  0  0  0  0  0  0  0  0  0  0
    0.6127    0.5456    1.1200 H   0  0  0  0  0  0  0  0  0  0  0  0
   -0.1167    2.1427    1.2737 H   0  0  0  0  0  0  0  0  0  0  0  0
    3.0377    2.3614    3.3412 H   0  0  0  0  0  0  0  0  0  0  0  0
    2.1901    3.0503    1.9468 H   0  0  0  0  0  0  0  0  0  0  0  0
    2.8969    1.4221    1.8396 H   0  0  0  0  0  0  0  0  0  0  0  0
    2.0876    1.3257    5.2142 H   0  0  0  0  0  0  0  0  0  0  0  0
    1.6571    0.1480    7.0116 H   0  0  0  0  0  0  0  0  0  0  0  0
   -0.5092   -3.3315    5.7872 H   0  0  0  0  0  0  0  0  0  0  0  0
   -0.3412   -4.0717    7.3984 H   0  0  0  0  0  0  0  0  0  0  0  0
    0.9696   -4.2070    6.2116 H   0  0  0  0  0  0  0  0  0  0  0  0
    2.2557   -1.6051    8.6365 H   0  0  0  0  0  0  0  0  0  0  0  0
    2.6467   -3.1677    7.8926 H   0  0  0  0  0  0  0  0  0  0  0  0
    1.3359   -3.0481    9.0793 H   0  0  0  0  0  0  0  0  0  0  0  0
   -0.8960   -0.9075    5.8410 H   0  0  0  0  0  0  0  0  0  0  0  0
   -2.0389    0.8170    6.5351 H   0  0  0  0  0  0  0  0  0  0  0  0
  1  2  1  0
  1 22  1  0
  1 23  1  0
  1 24  1  0
  2 21  1  0
  2  3  1  0
  2  4  1  0
  3 25  1  0
  3 26  1  0
  3 27  1  0
  4  5  1  0
  5 20  1  0
  5  6  1  0
  5 28  1  1
  6 12  1  0
  6  7  1  0
  6 29  1  6
  7  8  1  0
  8  9  1  0
  8 10  1  0
  8 11  1  0
  9 30  1  0
  9 31  1  0
  9 32  1  0
 10 33  1  0
 10 34  1  0
 10 35  1  0
 11 12  1  0
 12 13  1  0
 12 36  1  1
 13 19  1  0
 13 14  1  0
 13 37  1  1
 14 15  1  0
 15 16  1  0
 15 17  1  0
 15 18  1  0
 16 38  1  0
 16 39  1  0
 16 40  1  0
 17 41  1  0
 17 42  1  0
 17 43  1  0
 18 19  1  0
 19 20  1  0
 19 44  1  6
 20 21  1  0
 20 45  1  6
M  END
>  <i_m_ct_stereo_status>  (352) 
1

>  <s_m_source_file>  (352) 
/var/tmp/pbs.5076255.sched01/tmpbrgkg_oh/138myny07gr.sdf

>  <i_m_source_file_index>  (352) 
18

>  <i_lp_mmshare_version>  (352) 
48012

>  <i_f3d_flags>  (352) 
0

>  <s_epik_input>  (352) 
W0NIM11DKE8xKShbQ0gzXSlPW0NAQEhdMltDQEhdKE9DKE8zKShbQ0gzXSlbQ0gzXSlbQ0BASF0zW0NASF0oW0NASF00W0NAQEhdMTIpT0MoTzQpKFtDSDNdKVtDSDNd

>  <s_epik_cmdline>  (352) 
J2VwaWtfcHl0aG9uJywgJy1waHQnLCAnMi4wJywgJy1waCcsICc3LjAnLCAnLXRuJywgJzgnLCAnLW1hJywgJzIwMCcsICctaW1hZScsICc8aW5maWxlLm1hZT4nLCAnLW9tYWUnLCAnPG91dGZpbGUubWFlPic=

>  <r_lp_tautomer_probability>  (352) 
1

>  <r_epik_Ionization_Penalty>  (352) 
5.94643e-14

>  <r_epik_Ionization_Penalty_Charging>  (352) 
0

>  <r_epik_Ionization_Penalty_Neutral>  (352) 
5.94643e-14

>  <r_epik_State_Penalty>  (352) 
-0

>  <r_epik_Charging_Adjusted_Penalty>  (352) 
0

>  <i_epik_Tot_Q>  (352) 
0

>  <i_epik_Tot_abs_Q>  (352) 
0

>  <s_lp_Force_Field>  (352) 
OPLS3e

>  <r_lp_Energy>  (352) 
25.7638

>  <b_lp_Chiralities_Consistent>  (352) 
1

>  <s_lp_Variant>  (352) 
100:0-1

>  <s_i_glide_gridfile>  (352) 
pfpi4k_grid

>  <i_i_glide_lignum>  (352) 
18

>  <i_i_glide_rotatable_bonds>  (352) 
0

>  <r_i_docking_score>  (352) 
-2.58409

>  <r_i_glide_ligand_efficiency>  (352) 
-0.123052

>  <r_i_glide_ligand_efficiency_sa>  (352) 
-0.33949

>  <r_i_glide_ligand_efficiency_ln>  (352) 
-0.63891

>  <r_i_glide_gscore>  (352) 
-2.58409

>  <r_i_glide_lipo>  (352) 
-0.0918851

>  <r_i_glide_hbond>  (352) 
-0.0437194

>  <r_i_glide_metal>  (352) 
-0

>  <r_i_glide_rewards>  (352) 
-1.36127

>  <r_i_glide_evdw>  (352) 
-16.2915

>  <r_i_glide_ecoul>  (352) 
-1.47585

>  <r_i_glide_erotb>  (352) 
0

>  <r_i_glide_esite>  (352) 
-0.0512602

>  <r_i_glide_emodel>  (352) 
-20.8001

>  <r_i_glide_energy>  (352) 
-17.7674

>  <r_i_glide_einternal>  (352) 
0

>  <r_i_glide_intrahb_reward>  (352) 
-0

>  <i_i_glide_confnum>  (352) 
2

>  <i_i_glide_posenum>  (352) 
25

>  <r_i_glide_eff_state_penalty>  (352) 
0

>  <ligand_id>  (352) 
100

>  <original_smiles>  (352) 
CC1(C)OC2C3OC(C)(C)OC3C3OC(C)(C)OC3C2O1

>  <smiles>  (352) 
[H]C([H])([H])C1(C([H])([H])[H])OC2([H])C3([H])OC(C([H])([H])[H])(C([H])([H])[H])OC3([H])C3([H])OC(C([H])([H])[H])(C([H])([H])[H])OC3([H])C2([H])O1

$$$$
100:0:1
     RDKit          3D

 45 48  0  0  1  0  0  0  0  0999 V2000
   -1.5686   -4.0548    7.1509 C   0  0  0  0  0  0  0  0  0  0  0  0
   -0.1874   -3.3781    7.0823 C   0  0  0  0  0  0  0  0  0  0  0  0
    0.9326   -4.3521    7.4720 C   0  0  0  0  0  0  0  0  0  0  0  0
    0.0573   -2.9225    5.7695 O   0  0  0  0  0  0  0  0  0  0  0  0
   -0.2344   -1.5473    5.8574 C   0  0  2  0  0  0  0  0  0  0  0  0
    0.3233   -0.4659    4.9149 C   0  0  1  0  0  0  0  0  0  0  0  0
    0.0979   -0.4304    3.5309 O   0  0  0  0  0  0  0  0  0  0  0  0
    0.2988    0.9285    3.2200 C   0  0  0  0  0  0  0  0  0  0  0  0
    1.7087    1.1359    2.6464 C   0  0  0  0  0  0  0  0  0  0  0  0
   -0.7860    1.3550    2.2288 C   0  0  0  0  0  0  0  0  0  0  0  0
    0.1844    1.7014    4.3946 O   0  0  0  0  0  0  0  0  0  0  0  0
   -0.4603    0.8097    5.2651 C   0  0  2  0  0  0  0  0  0  0  0  0
   -0.5648    1.0272    6.7977 C   0  0  2  0  0  0  0  0  0  0  0  0
   -0.4150    2.3000    7.3784 O   0  0  0  0  0  0  0  0  0  0  0  0
   -0.1504    2.0154    8.7288 C   0  0  0  0  0  0  0  0  0  0  0  0
    1.0477    2.8714    9.1677 C   0  0  0  0  0  0  0  0  0  0  0  0
   -1.3997    2.3179    9.5661 C   0  0  0  0  0  0  0  0  0  0  0  0
    0.1549    0.6498    8.8858 O   0  0  0  0  0  0  0  0  0  0  0  0
    0.4592    0.2258    7.5795 C   0  0  1  0  0  0  0  0  0  0  0  0
    0.4574   -1.2865    7.2050 C   0  0  1  0  0  0  0  0  0  0  0  0
   -0.1844   -2.2789    7.9660 O   0  0  0  0  0  0  0  0  0  0  0  0
   -2.3618   -3.3654    6.8544 H   0  0  0  0  0  0  0  0  0  0  0  0
   -1.7604   -4.3923    8.1708 H   0  0  0  0  0  0  0  0  0  0  0  0
   -1.5965   -4.9192    6.4862 H   0  0  0  0  0  0  0  0  0  0  0  0
    1.9094   -3.8737    7.3918 H   0  0  0  0  0  0  0  0  0  0  0  0
    0.9096   -5.2113    6.8018 H   0  0  0  0  0  0  0  0  0  0  0  0
    0.7847   -4.6936    8.4960 H   0  0  0  0  0  0  0  0  0  0  0  0
   -1.3221   -1.4494    5.9354 H   0  0  0  0  0  0  0  0  0  0  0  0
    1.3992   -0.3366    5.0797 H   0  0  0  0  0  0  0  0  0  0  0  0
    2.4744    0.8575    3.3718 H   0  0  0  0  0  0  0  0  0  0  0  0
    1.8434    2.1859    2.3883 H   0  0  0  0  0  0  0  0  0  0  0  0
    1.8337    0.5334    1.7443 H   0  0  0  0  0  0  0  0  0  0  0  0
   -1.7838    1.1727    2.6330 H   0  0  0  0  0  0  0  0  0  0  0  0
   -0.6684    0.7960    1.3006 H   0  0  0  0  0  0  0  0  0  0  0  0
   -0.6796    2.4180    2.0181 H   0  0  0  0  0  0  0  0  0  0  0  0
   -1.4930    0.7159    4.9135 H   0  0  0  0  0  0  0  0  0  0  0  0
   -1.5499    0.6637    7.0961 H   0  0  0  0  0  0  0  0  0  0  0  0
    1.9228    2.6707    8.5457 H   0  0  0  0  0  0  0  0  0  0  0  0
    1.2918    2.6722   10.2111 H   0  0  0  0  0  0  0  0  0  0  0  0
    0.7858    3.9243    9.0626 H   0  0  0  0  0  0  0  0  0  0  0  0
   -2.2382    1.7087    9.2314 H   0  0  0  0  0  0  0  0  0  0  0  0
   -1.6746    3.3681    9.4680 H   0  0  0  0  0  0  0  0  0  0  0  0
   -1.1976    2.0953   10.6149 H   0  0  0  0  0  0  0  0  0  0  0  0
    1.4445    0.6213    7.3216 H   0  0  0  0  0  0  0  0  0  0  0  0
    1.5139   -1.5722    7.1365 H   0  0  0  0  0  0  0  0  0  0  0  0
  1  2  1  0
  1 22  1  0
  1 23  1  0
  1 24  1  0
  2 21  1  0
  2  3  1  0
  2  4  1  0
  3 25  1  0
  3 26  1  0
  3 27  1  0
  4  5  1  0
  5 20  1  0
  5  6  1  0
  5 28  1  1
  6 12  1  0
  6  7  1  0
  6 29  1  6
  7  8  1  0
  8  9  1  0
  8 10  1  0
  8 11  1  0
  9 30  1  0
  9 31  1  0
  9 32  1  0
 10 33  1  0
 10 34  1  0
 10 35  1  0
 11 12  1  0
 12 13  1  0
 12 36  1  6
 13 19  1  0
 13 14  1  0
 13 37  1  1
 14 15  1  0
 15 16  1  0
 15 17  1  0
 15 18  1  0
 16 38  1  0
 16 39  1  0
 16 40  1  0
 17 41  1  0
 17 42  1  0
 17 43  1  0
 18 19  1  0
 19 20  1  0
 19 44  1  6
 20 21  1  0
 20 45  1  6
M  END
>  <i_m_ct_stereo_status>  (353) 
1

>  <s_m_source_file>  (353) 
/var/tmp/pbs.5076255.sched01/tmpbrgkg_oh/138myny07gr.sdf

>  <i_m_source_file_index>  (353) 
18

>  <i_lp_mmshare_version>  (353) 
48012

>  <i_f3d_flags>  (353) 
0

>  <s_epik_input>  (353) 
W0NIM11DKE8xKShbQ0gzXSlPW0NAQEhdMltDQEhdKE9DKE8zKShbQ0gzXSlbQ0gzXSlbQ0BASF0zW0NASF0oW0NASF00W0NAQEhdMTIpT0MoTzQpKFtDSDNdKVtDSDNd

>  <s_epik_cmdline>  (353) 
J2VwaWtfcHl0aG9uJywgJy1waHQnLCAnMi4wJywgJy1waCcsICc3LjAnLCAnLXRuJywgJzgnLCAnLW1hJywgJzIwMCcsICctaW1hZScsICc8aW5maWxlLm1hZT4nLCAnLW9tYWUnLCAnPG91dGZpbGUubWFlPic=

>  <r_lp_tautomer_probability>  (353) 
1

>  <r_epik_Ionization_Penalty>  (353) 
5.94643e-14

>  <r_epik_Ionization_Penalty_Charging>  (353) 
0

>  <r_epik_Ionization_Penalty_Neutral>  (353) 
5.94643e-14

>  <r_epik_State_Penalty>  (353) 
-0

>  <r_epik_Charging_Adjusted_Penalty>  (353) 
0

>  <i_epik_Tot_Q>  (353) 
0

>  <i_epik_Tot_abs_Q>  (353) 
0

>  <s_lp_Force_Field>  (353) 
OPLS3e

>  <r_lp_Energy>  (353) 
25.7638

>  <b_lp_Chiralities_Consistent>  (353) 
1

>  <s_lp_Variant>  (353) 
100:0-1

>  <s_i_glide_gridfile>  (353) 
pfpi4k_grid

>  <i_i_glide_lignum>  (353) 
18

>  <i_i_glide_rotatable_bonds>  (353) 
0

>  <r_i_docking_score>  (353) 
-2.40498

>  <r_i_glide_ligand_efficiency>  (353) 
-0.114523

>  <r_i_glide_ligand_efficiency_sa>  (353) 
-0.31596

>  <r_i_glide_ligand_efficiency_ln>  (353) 
-0.594627

>  <r_i_glide_gscore>  (353) 
-2.40498

>  <r_i_glide_lipo>  (353) 
0

>  <r_i_glide_hbond>  (353) 
-0.110805

>  <r_i_glide_metal>  (353) 
-0

>  <r_i_glide_rewards>  (353) 
-1.36127

>  <r_i_glide_evdw>  (353) 
-17.0979

>  <r_i_glide_ecoul>  (353) 
-0.0796929

>  <r_i_glide_erotb>  (353) 
0

>  <r_i_glide_esite>  (353) 
-0.0660656

>  <r_i_glide_emodel>  (353) 
-19.9965

>  <r_i_glide_energy>  (353) 
-17.1775

>  <r_i_glide_einternal>  (353) 
0

>  <r_i_glide_intrahb_reward>  (353) 
-0

>  <i_i_glide_confnum>  (353) 
1

>  <i_i_glide_posenum>  (353) 
1

>  <r_i_glide_eff_state_penalty>  (353) 
0

>  <ligand_id>  (353) 
100

>  <original_smiles>  (353) 
CC1(C)OC2C3OC(C)(C)OC3C3OC(C)(C)OC3C2O1

>  <smiles>  (353) 
[H]C([H])([H])C1(C([H])([H])[H])OC2([H])C3([H])OC(C([H])([H])[H])(C([H])([H])[H])OC3([H])C3([H])OC(C([H])([H])[H])(C([H])([H])[H])OC3([H])C2([H])O1

$$$$
100:0:2
     RDKit          3D

 45 48  0  0  1  0  0  0  0  0999 V2000
   -1.1011   -3.8215    6.9633 C   0  0  0  0  0  0  0  0  0  0  0  0
    0.1858   -3.0056    6.7620 C   0  0  0  0  0  0  0  0  0  0  0  0
    1.4210   -3.9183    6.7397 C   0  0  0  0  0  0  0  0  0  0  0  0
    0.1210   -2.3117    5.5368 O   0  0  0  0  0  0  0  0  0  0  0  0
   -0.2127   -1.0061    5.9446 C   0  0  2  0  0  0  0  0  0  0  0  0
    0.0634    0.2652    5.1247 C   0  0  1  0  0  0  0  0  0  0  0  0
   -0.4703    0.5169    3.8505 O   0  0  0  0  0  0  0  0  0  0  0  0
   -0.4081    1.9211    3.7652 C   0  0  0  0  0  0  0  0  0  0  0  0
    0.8431    2.3384    2.9750 C   0  0  0  0  0  0  0  0  0  0  0  0
   -1.6944    2.4180    3.1027 C   0  0  0  0  0  0  0  0  0  0  0  0
   -0.3136    2.4678    5.0594 O   0  0  0  0  0  0  0  0  0  0  0  0
   -0.6929    1.3823    5.8627 C   0  0  2  0  0  0  0  0  0  0  0  0
   -0.4787    1.3233    7.3977 C   0  0  2  0  0  0  0  0  0  0  0  0
   -0.2725    2.4838    8.1632 O   0  0  0  0  0  0  0  0  0  0  0  0
    0.2968    1.9992    9.3523 C   0  0  0  0  0  0  0  0  0  0  0  0
    1.5062    2.8766    9.6959 C   0  0  0  0  0  0  0  0  0  0  0  0
   -0.7569    2.0262   10.4681 C   0  0  0  0  0  0  0  0  0  0  0  0
    0.7122    0.6660    9.1844 O   0  0  0  0  0  0  0  0  0  0  0  0
    0.7319    0.4967    7.7898 C   0  0  1  0  0  0  0  0  0  0  0  0
    0.7280   -0.9192    7.1530 C   0  0  1  0  0  0  0  0  0  0  0  0
    0.2951   -2.0783    7.8197 O   0  0  0  0  0  0  0  0  0  0  0  0
   -1.9714   -3.1702    6.9634 H   0  0  0  0  0  0  0  0  0  0  0  0
   -1.0513   -4.3477    7.9168 H   0  0  0  0  0  0  0  0  0  0  0  0
   -1.2076   -4.5523    6.1621 H   0  0  0  0  0  0  0  0  0  0  0  0
    2.3325   -3.3436    6.5584 H   0  0  0  0  0  0  0  0  0  0  0  0
    1.3114   -4.6503    5.9377 H   0  0  0  0  0  0  0  0  0  0  0  0
    1.5163   -4.4450    7.6913 H   0  0  0  0  0  0  0  0  0  0  0  0
   -1.2675   -1.0241    6.2454 H   0  0  0  0  0  0  0  0  0  0  0  0
    1.1393    0.4602    5.0823 H   0  0  0  0  0  0  0  0  0  0  0  0
    1.7565    2.0072    3.4698 H   0  0  0  0  0  0  0  0  0  0  0  0
    0.8722    3.4253    2.8946 H   0  0  0  0  0  0  0  0  0  0  0  0
    0.8088    1.9170    1.9677 H   0  0  0  0  0  0  0  0  0  0  0  0
   -2.5675    2.0997    3.6717 H   0  0  0  0  0  0  0  0  0  0  0  0
   -1.7645    2.0099    2.0935 H   0  0  0  0  0  0  0  0  0  0  0  0
   -1.6893    3.5057    3.0475 H   0  0  0  0  0  0  0  0  0  0  0  0
   -1.7733    1.2522    5.7186 H   0  0  0  0  0  0  0  0  0  0  0  0
   -1.3597    0.8303    7.8179 H   0  0  0  0  0  0  0  0  0  0  0  0
    2.2337    2.8652    8.8856 H   0  0  0  0  0  0  0  0  0  0  0  0
    1.9794    2.5206   10.6109 H   0  0  0  0  0  0  0  0  0  0  0  0
    1.1680    3.9010    9.8449 H   0  0  0  0  0  0  0  0  0  0  0  0
   -1.5927    1.3744   10.2179 H   0  0  0  0  0  0  0  0  0  0  0  0
   -1.1317    3.0413   10.6194 H   0  0  0  0  0  0  0  0  0  0  0  0
   -0.3164    1.6689   11.4008 H   0  0  0  0  0  0  0  0  0  0  0  0
    1.6182    1.0144    7.4143 H   0  0  0  0  0  0  0  0  0  0  0  0
    1.7599   -1.1003    6.8374 H   0  0  0  0  0  0  0  0  0  0  0  0
  1  2  1  0
  1 22  1  0
  1 23  1  0
  1 24  1  0
  2 21  1  0
  2  3  1  0
  2  4  1  0
  3 25  1  0
  3 26  1  0
  3 27  1  0
  4  5  1  0
  5 20  1  0
  5  6  1  0
  5 28  1  1
  6 12  1  0
  6  7  1  0
  6 29  1  6
  7  8  1  0
  8  9  1  0
  8 10  1  0
  8 11  1  0
  9 30  1  0
  9 31  1  0
  9 32  1  0
 10 33  1  0
 10 34  1  0
 10 35  1  0
 11 12  1  0
 12 13  1  0
 12 36  1  1
 13 19  1  0
 13 14  1  0
 13 37  1  1
 14 15  1  0
 15 16  1  0
 15 17  1  0
 15 18  1  0
 16 38  1  0
 16 39  1  0
 16 40  1  0
 17 41  1  0
 17 42  1  0
 17 43  1  0
 18 19  1  0
 19 20  1  0
 19 44  1  6
 20 21  1  0
 20 45  1  6
M  END
>  <i_m_ct_stereo_status>  (354) 
1

>  <s_m_source_file>  (354) 
/var/tmp/pbs.5076255.sched01/tmpbrgkg_oh/138myny07gr.sdf

>  <i_m_source_file_index>  (354) 
18

>  <i_lp_mmshare_version>  (354) 
48012

>  <i_f3d_flags>  (354) 
0

>  <s_epik_input>  (354) 
W0NIM11DKE8xKShbQ0gzXSlPW0NAQEhdMltDQEhdKE9DKE8zKShbQ0gzXSlbQ0gzXSlbQ0BASF0zW0NASF0oW0NASF00W0NAQEhdMTIpT0MoTzQpKFtDSDNdKVtDSDNd

>  <s_epik_cmdline>  (354) 
J2VwaWtfcHl0aG9uJywgJy1waHQnLCAnMi4wJywgJy1waCcsICc3LjAnLCAnLXRuJywgJzgnLCAnLW1hJywgJzIwMCcsICctaW1hZScsICc8aW5maWxlLm1hZT4nLCAnLW9tYWUnLCAnPG91dGZpbGUubWFlPic=

>  <r_lp_tautomer_probability>  (354) 
1

>  <r_epik_Ionization_Penalty>  (354) 
5.94643e-14

>  <r_epik_Ionization_Penalty_Charging>  (354) 
0

>  <r_epik_Ionization_Penalty_Neutral>  (354) 
5.94643e-14

>  <r_epik_State_Penalty>  (354) 
-0

>  <r_epik_Charging_Adjusted_Penalty>  (354) 
0

>  <i_epik_Tot_Q>  (354) 
0

>  <i_epik_Tot_abs_Q>  (354) 
0

>  <s_lp_Force_Field>  (354) 
OPLS3e

>  <r_lp_Energy>  (354) 
25.7638

>  <b_lp_Chiralities_Consistent>  (354) 
1

>  <s_lp_Variant>  (354) 
100:0-1

>  <s_i_glide_gridfile>  (354) 
pfpi4k_grid

>  <i_i_glide_lignum>  (354) 
18

>  <i_i_glide_rotatable_bonds>  (354) 
0

>  <r_i_docking_score>  (354) 
-2.09054

>  <r_i_glide_ligand_efficiency>  (354) 
-0.0995493

>  <r_i_glide_ligand_efficiency_sa>  (354) 
-0.274649

>  <r_i_glide_ligand_efficiency_ln>  (354) 
-0.516881

>  <r_i_glide_gscore>  (354) 
-2.09054

>  <r_i_glide_lipo>  (354) 
0

>  <r_i_glide_hbond>  (354) 
-0.00208005

>  <r_i_glide_metal>  (354) 
-0

>  <r_i_glide_rewards>  (354) 
-1.36127

>  <r_i_glide_evdw>  (354) 
-15.7172

>  <r_i_glide_ecoul>  (354) 
0.762841

>  <r_i_glide_erotb>  (354) 
0

>  <r_i_glide_esite>  (354) 
-0.0557528

>  <r_i_glide_emodel>  (354) 
-17.4082

>  <r_i_glide_energy>  (354) 
-14.9544

>  <r_i_glide_einternal>  (354) 
0

>  <r_i_glide_intrahb_reward>  (354) 
-0

>  <i_i_glide_confnum>  (354) 
2

>  <i_i_glide_posenum>  (354) 
9

>  <r_i_glide_eff_state_penalty>  (354) 
0

>  <ligand_id>  (354) 
100

>  <original_smiles>  (354) 
CC1(C)OC2C3OC(C)(C)OC3C3OC(C)(C)OC3C2O1

>  <smiles>  (354) 
[H]C([H])([H])C1(C([H])([H])[H])OC2([H])C3([H])OC(C([H])([H])[H])(C([H])([H])[H])OC3([H])C3([H])OC(C([H])([H])[H])(C([H])([H])[H])OC3([H])C2([H])O1

$$$$
101:0:0
     RDKit          3D

 50 53  0  0  1  0  0  0  0  0999 V2000
    0.5770   -3.7559    5.1981 C   0  0  0  0  0  0  0  0  0  0  0  0
    1.9186   -4.5068    5.1527 C   0  0  0  0  0  0  0  0  0  0  0  0
    2.6453   -4.5108    3.7856 C   0  0  2  0  0  0  0  0  0  0  0  0
    3.0724   -3.1051    3.3349 C   0  0  0  0  0  0  0  0  0  0  0  0
    3.5961   -2.3161    4.1196 O   0  0  0  0  0  0  0  0  0  0  0  0
    2.7849   -2.7229    1.8662 C   0  0  1  0  0  0  0  0  0  0  0  0
    3.3285   -1.3235    1.4966 C   0  0  0  0  0  0  0  0  0  0  0  0
    3.2015   -3.8637    0.8800 C   0  0  1  0  0  0  0  0  0  0  0  0
    4.7123   -3.7500    0.5344 C   0  0  0  0  0  0  0  0  0  0  0  0
    5.3879   -5.0364    0.0773 C   0  0  0  0  0  0  0  0  0  0  0  0
    5.1683   -6.1375    1.1098 C   0  0  1  0  0  0  0  0  0  0  0  0
    5.8135   -5.8037    2.4706 C   0  0  0  0  0  0  0  0  0  0  0  0
    3.6679   -6.4894    1.1456 C   0  0  1  0  0  0  0  0  0  0  0  0
    3.4011   -7.7240    2.0183 C   0  0  0  0  0  0  0  0  0  0  0  0
    1.9972   -8.3078    1.8468 C   0  0  0  0  0  0  0  0  0  0  0  0
    0.8932   -7.2517    2.0123 C   0  0  2  0  0  0  0  0  0  0  0  0
   -0.4353   -7.9138    2.4124 C   0  0  0  0  0  0  0  0  0  0  0  0
    0.5627   -6.5532    0.8107 O   0  0  0  0  0  0  0  0  0  0  0  0
    1.6682   -5.5976    0.3230 O   0  0  0  0  0  0  0  0  0  0  0  0
    2.6514   -5.2967    1.3182 C   0  0  2  0  0  0  0  0  0  0  0  0
    1.8487   -5.1879    2.6568 C   0  0  1  0  0  0  0  0  0  0  0  0
    1.2618   -6.4077    3.0826 O   0  0  0  0  0  0  0  0  0  0  0  0
    0.1531   -3.7986    6.2023 H   0  0  0  0  0  0  0  0  0  0  0  0
   -0.1526   -4.1944    4.5174 H   0  0  0  0  0  0  0  0  0  0  0  0
    0.6945   -2.7010    4.9401 H   0  0  0  0  0  0  0  0  0  0  0  0
    2.5829   -4.0778    5.9042 H   0  0  0  0  0  0  0  0  0  0  0  0
    1.7545   -5.5376    5.4726 H   0  0  0  0  0  0  0  0  0  0  0  0
    3.5524   -5.0925    3.9419 H   0  0  0  0  0  0  0  0  0  0  0  0
    1.7001   -2.6289    1.7901 H   0  0  0  0  0  0  0  0  0  0  0  0
    2.8239   -0.5572    2.0868 H   0  0  0  0  0  0  0  0  0  0  0  0
    3.1454   -1.0922    0.4446 H   0  0  0  0  0  0  0  0  0  0  0  0
    4.3974   -1.2214    1.6862 H   0  0  0  0  0  0  0  0  0  0  0  0
    2.7022   -3.6322   -0.0601 H   0  0  0  0  0  0  0  0  0  0  0  0
    4.8312   -3.0151   -0.2672 H   0  0  0  0  0  0  0  0  0  0  0  0
    5.2695   -3.3421    1.3763 H   0  0  0  0  0  0  0  0  0  0  0  0
    4.9928   -5.3416   -0.8938 H   0  0  0  0  0  0  0  0  0  0  0  0
    6.4550   -4.8701   -0.0758 H   0  0  0  0  0  0  0  0  0  0  0  0
    5.6891   -7.0245    0.7364 H   0  0  0  0  0  0  0  0  0  0  0  0
    5.3904   -4.9120    2.9257 H   0  0  0  0  0  0  0  0  0  0  0  0
    6.8825   -5.6217    2.3465 H   0  0  0  0  0  0  0  0  0  0  0  0
    5.7011   -6.6258    3.1765 H   0  0  0  0  0  0  0  0  0  0  0  0
    3.4943   -6.8335    0.1291 H   0  0  0  0  0  0  0  0  0  0  0  0
    4.1248   -8.5026    1.7856 H   0  0  0  0  0  0  0  0  0  0  0  0
    3.5585   -7.4748    3.0671 H   0  0  0  0  0  0  0  0  0  0  0  0
    1.8870   -8.8339    0.8999 H   0  0  0  0  0  0  0  0  0  0  0  0
    1.8767   -9.0707    2.6161 H   0  0  0  0  0  0  0  0  0  0  0  0
   -1.2256   -7.1692    2.5067 H   0  0  0  0  0  0  0  0  0  0  0  0
   -0.3545   -8.4377    3.3668 H   0  0  0  0  0  0  0  0  0  0  0  0
   -0.7553   -8.6461    1.6649 H   0  0  0  0  0  0  0  0  0  0  0  0
    0.9872   -4.5519    2.4822 H   0  0  0  0  0  0  0  0  0  0  0  0
  1  2  1  0
  1 23  1  0
  1 24  1  0
  1 25  1  0
  2  3  1  0
  2 26  1  0
  2 27  1  0
  3 21  1  0
  3  4  1  0
  3 28  1  1
  4  5  2  0
  4  6  1  0
  6  7  1  0
  6  8  1  0
  6 29  1  1
  7 30  1  0
  7 31  1  0
  7 32  1  0
  8 20  1  0
  8  9  1  0
  8 33  1  6
  9 10  1  0
  9 34  1  0
  9 35  1  0
 10 11  1  0
 10 36  1  0
 10 37  1  0
 11 12  1  0
 11 13  1  0
 11 38  1  6
 12 39  1  0
 12 40  1  0
 12 41  1  0
 13 20  1  0
 13 14  1  0
 13 42  1  6
 14 15  1  0
 14 43  1  0
 14 44  1  0
 15 16  1  0
 15 45  1  0
 15 46  1  0
 16 22  1  0
 16 17  1  1
 16 18  1  0
 17 47  1  0
 17 48  1  0
 17 49  1  0
 18 19  1  0
 20 19  1  6
 20 21  1  0
 21 22  1  0
 21 50  1  6
M  END
>  <i_m_ct_stereo_status>  (355) 
1

>  <s_m_source_file>  (355) 
/var/tmp/pbs.5076255.sched01/tmpbrgkg_oh/138myny07gr.sdf

>  <i_m_source_file_index>  (355) 
19

>  <i_lp_mmshare_version>  (355) 
48012

>  <i_f3d_flags>  (355) 
0

>  <s_epik_input>  (355) 
W0NAQF0xMjNbQ0BIXTRbQ0BIXShbQ0gzXSlDKD1PKVtDQEBIXShbQ0gyXVtDSDNdKVtDQEBIXTNPW0NAQF0oW0NIM10pKE9PMilbQ0gyXVtDSDJdW0NAQEhdMVtDQEhdKFtDSDNdKVtDSDJdW0NIMl00

>  <s_epik_cmdline>  (355) 
J2VwaWtfcHl0aG9uJywgJy1waHQnLCAnMi4wJywgJy1waCcsICc3LjAnLCAnLXRuJywgJzgnLCAnLW1hJywgJzIwMCcsICctaW1hZScsICc8aW5maWxlLm1hZT4nLCAnLW9tYWUnLCAnPG91dGZpbGUubWFlPic=

>  <r_lp_tautomer_probability>  (355) 
1

>  <r_epik_Ionization_Penalty>  (355) 
1.16495e-12

>  <r_epik_Ionization_Penalty_Charging>  (355) 
0

>  <r_epik_Ionization_Penalty_Neutral>  (355) 
1.16495e-12

>  <r_epik_State_Penalty>  (355) 
-0

>  <r_epik_Charging_Adjusted_Penalty>  (355) 
0

>  <i_epik_Tot_Q>  (355) 
0

>  <i_epik_Tot_abs_Q>  (355) 
0

>  <s_lp_Force_Field>  (355) 
OPLS3e

>  <r_lp_Energy>  (355) 
37.7853

>  <b_lp_Chiralities_Consistent>  (355) 
1

>  <s_lp_Variant>  (355) 
101:0-1

>  <s_i_glide_gridfile>  (355) 
pfpi4k_grid

>  <i_i_glide_lignum>  (355) 
19

>  <i_i_glide_rotatable_bonds>  (355) 
1

>  <r_i_docking_score>  (355) 
-3.25747

>  <r_i_glide_ligand_efficiency>  (355) 
-0.148067

>  <r_i_glide_ligand_efficiency_sa>  (355) 
-0.41489

>  <r_i_glide_ligand_efficiency_ln>  (355) 
-0.796246

>  <r_i_glide_gscore>  (355) 
-3.25747

>  <r_i_glide_lipo>  (355) 
-0.268355

>  <r_i_glide_hbond>  (355) 
-0.282047

>  <r_i_glide_metal>  (355) 
-0

>  <r_i_glide_rewards>  (355) 
-1.3064

>  <r_i_glide_evdw>  (355) 
-16.657

>  <r_i_glide_ecoul>  (355) 
-3.45532

>  <r_i_glide_erotb>  (355) 
0

>  <r_i_glide_esite>  (355) 
-0.0495272

>  <r_i_glide_emodel>  (355) 
-23.9452

>  <r_i_glide_energy>  (355) 
-20.1123

>  <r_i_glide_einternal>  (355) 
0.00499768

>  <r_i_glide_intrahb_reward>  (355) 
-0

>  <i_i_glide_confnum>  (355) 
2

>  <i_i_glide_posenum>  (355) 
8

>  <r_i_glide_eff_state_penalty>  (355) 
0

>  <ligand_id>  (355) 
101

>  <original_smiles>  (355) 
CCC1C(=O)C(C)C2CCC(C)C3CCC4(C)OOC32C1O4

>  <smiles>  (355) 
[H]C([H])([H])C([H])([H])C1([H])C(=O)C([H])(C([H])([H])[H])C2([H])C([H])([H])C([H])([H])C([H])(C([H])([H])[H])C3([H])C([H])([H])C([H])([H])C4(C([H])([H])[H])OOC23C1([H])O4

$$$$
101:0:1
     RDKit          3D

 50 53  0  0  1  0  0  0  0  0999 V2000
    2.0714   -5.6686    5.9143 C   0  0  0  0  0  0  0  0  0  0  0  0
    1.9175   -4.3721    5.0996 C   0  0  0  0  0  0  0  0  0  0  0  0
    2.6669   -4.3856    3.7407 C   0  0  2  0  0  0  0  0  0  0  0  0
    3.0260   -2.9613    3.2729 C   0  0  0  0  0  0  0  0  0  0  0  0
    3.5235   -2.1422    4.0452 O   0  0  0  0  0  0  0  0  0  0  0  0
    2.7167   -2.5965    1.8017 C   0  0  1  0  0  0  0  0  0  0  0  0
    3.2089   -1.1794    1.4215 C   0  0  0  0  0  0  0  0  0  0  0  0
    3.1766   -3.7241    0.8206 C   0  0  1  0  0  0  0  0  0  0  0  0
    4.6820   -3.5546    0.4739 C   0  0  0  0  0  0  0  0  0  0  0  0
    5.4045   -4.8185    0.0240 C   0  0  0  0  0  0  0  0  0  0  0  0
    5.2260   -5.9201    1.0639 C   0  0  1  0  0  0  0  0  0  0  0  0
    5.8598   -5.5532    2.4220 C   0  0  0  0  0  0  0  0  0  0  0  0
    3.7384   -6.3283    1.1019 C   0  0  1  0  0  0  0  0  0  0  0  0
    3.5164   -7.5641    1.9866 C   0  0  0  0  0  0  0  0  0  0  0  0
    2.1349   -8.1998    1.8146 C   0  0  0  0  0  0  0  0  0  0  0  0
    0.9896   -7.1841    1.9641 C   0  0  2  0  0  0  0  0  0  0  0  0
   -0.3098   -7.8906    2.3786 C   0  0  0  0  0  0  0  0  0  0  0  0
    0.6405   -6.5028    0.7568 O   0  0  0  0  0  0  0  0  0  0  0  0
    1.7088   -5.5064    0.2734 O   0  0  0  0  0  0  0  0  0  0  0  0
    2.6819   -5.1714    1.2668 C   0  0  2  0  0  0  0  0  0  0  0  0
    1.8884   -5.0883    2.6125 C   0  0  1  0  0  0  0  0  0  0  0  0
    1.3190   -6.3173    3.0271 O   0  0  0  0  0  0  0  0  0  0  0  0
    1.5396   -5.5930    6.8646 H   0  0  0  0  0  0  0  0  0  0  0  0
    3.1226   -5.8607    6.1368 H   0  0  0  0  0  0  0  0  0  0  0  0
    1.6776   -6.5434    5.3939 H   0  0  0  0  0  0  0  0  0  0  0  0
    0.8579   -4.1600    4.9381 H   0  0  0  0  0  0  0  0  0  0  0  0
    2.2836   -3.5698    5.7373 H   0  0  0  0  0  0  0  0  0  0  0  0
    3.5997   -4.9166    3.9060 H   0  0  0  0  0  0  0  0  0  0  0  0
    1.6300   -2.5400    1.7232 H   0  0  0  0  0  0  0  0  0  0  0  0
    2.6770   -0.4265    2.0041 H   0  0  0  0  0  0  0  0  0  0  0  0
    3.0186   -0.9613    0.3670 H   0  0  0  0  0  0  0  0  0  0  0  0
    4.2736   -1.0350    1.6098 H   0  0  0  0  0  0  0  0  0  0  0  0
    2.6679   -3.5150   -0.1230 H   0  0  0  0  0  0  0  0  0  0  0  0
    4.7730   -2.8228   -0.3313 H   0  0  0  0  0  0  0  0  0  0  0  0
    5.2240   -3.1198    1.3137 H   0  0  0  0  0  0  0  0  0  0  0  0
    5.0154   -5.1436   -0.9435 H   0  0  0  0  0  0  0  0  0  0  0  0
    6.4645   -4.6152   -0.1340 H   0  0  0  0  0  0  0  0  0  0  0  0
    5.7794   -6.7878    0.6948 H   0  0  0  0  0  0  0  0  0  0  0  0
    5.4073   -4.6736    2.8707 H   0  0  0  0  0  0  0  0  0  0  0  0
    6.9216   -5.3338    2.2976 H   0  0  0  0  0  0  0  0  0  0  0  0
    5.7761   -6.3734    3.1347 H   0  0  0  0  0  0  0  0  0  0  0  0
    3.5721   -6.6886    0.0895 H   0  0  0  0  0  0  0  0  0  0  0  0
    4.2696   -8.3158    1.7596 H   0  0  0  0  0  0  0  0  0  0  0  0
    3.6634   -7.3018    3.0341 H   0  0  0  0  0  0  0  0  0  0  0  0
    2.0483   -8.7430    0.8748 H   0  0  0  0  0  0  0  0  0  0  0  0
    2.0409   -8.9587    2.5929 H   0  0  0  0  0  0  0  0  0  0  0  0
   -1.1263   -7.1731    2.4695 H   0  0  0  0  0  0  0  0  0  0  0  0
   -0.2044   -8.3978    3.3404 H   0  0  0  0  0  0  0  0  0  0  0  0
   -0.6104   -8.6478    1.6495 H   0  0  0  0  0  0  0  0  0  0  0  0
    1.0129   -4.4690    2.4553 H   0  0  0  0  0  0  0  0  0  0  0  0
  1  2  1  0
  1 23  1  0
  1 24  1  0
  1 25  1  0
  2  3  1  0
  2 26  1  0
  2 27  1  0
  3 21  1  0
  3  4  1  0
  3 28  1  1
  4  5  2  0
  4  6  1  0
  6  7  1  0
  6  8  1  0
  6 29  1  1
  7 30  1  0
  7 31  1  0
  7 32  1  0
  8 20  1  0
  8  9  1  0
  8 33  1  6
  9 10  1  0
  9 34  1  0
  9 35  1  0
 10 11  1  0
 10 36  1  0
 10 37  1  0
 11 12  1  0
 11 13  1  0
 11 38  1  6
 12 39  1  0
 12 40  1  0
 12 41  1  0
 13 20  1  0
 13 14  1  0
 13 42  1  6
 14 15  1  0
 14 43  1  0
 14 44  1  0
 15 16  1  0
 15 45  1  0
 15 46  1  0
 16 22  1  0
 16 17  1  1
 16 18  1  0
 17 47  1  0
 17 48  1  0
 17 49  1  0
 18 19  1  0
 20 19  1  6
 20 21  1  0
 21 22  1  0
 21 50  1  6
M  END
>  <i_m_ct_stereo_status>  (356) 
1

>  <s_m_source_file>  (356) 
/var/tmp/pbs.5076255.sched01/tmpbrgkg_oh/138myny07gr.sdf

>  <i_m_source_file_index>  (356) 
19

>  <i_lp_mmshare_version>  (356) 
48012

>  <i_f3d_flags>  (356) 
0

>  <s_epik_input>  (356) 
W0NAQF0xMjNbQ0BIXTRbQ0BIXShbQ0gzXSlDKD1PKVtDQEBIXShbQ0gyXVtDSDNdKVtDQEBIXTNPW0NAQF0oW0NIM10pKE9PMilbQ0gyXVtDSDJdW0NAQEhdMVtDQEhdKFtDSDNdKVtDSDJdW0NIMl00

>  <s_epik_cmdline>  (356) 
J2VwaWtfcHl0aG9uJywgJy1waHQnLCAnMi4wJywgJy1waCcsICc3LjAnLCAnLXRuJywgJzgnLCAnLW1hJywgJzIwMCcsICctaW1hZScsICc8aW5maWxlLm1hZT4nLCAnLW9tYWUnLCAnPG91dGZpbGUubWFlPic=

>  <r_lp_tautomer_probability>  (356) 
1

>  <r_epik_Ionization_Penalty>  (356) 
1.16495e-12

>  <r_epik_Ionization_Penalty_Charging>  (356) 
0

>  <r_epik_Ionization_Penalty_Neutral>  (356) 
1.16495e-12

>  <r_epik_State_Penalty>  (356) 
-0

>  <r_epik_Charging_Adjusted_Penalty>  (356) 
0

>  <i_epik_Tot_Q>  (356) 
0

>  <i_epik_Tot_abs_Q>  (356) 
0

>  <s_lp_Force_Field>  (356) 
OPLS3e

>  <r_lp_Energy>  (356) 
37.7853

>  <b_lp_Chiralities_Consistent>  (356) 
1

>  <s_lp_Variant>  (356) 
101:0-1

>  <s_i_glide_gridfile>  (356) 
pfpi4k_grid

>  <i_i_glide_lignum>  (356) 
19

>  <i_i_glide_rotatable_bonds>  (356) 
1

>  <r_i_docking_score>  (356) 
-3.2319

>  <r_i_glide_ligand_efficiency>  (356) 
-0.146905

>  <r_i_glide_ligand_efficiency_sa>  (356) 
-0.411633

>  <r_i_glide_ligand_efficiency_ln>  (356) 
-0.789995

>  <r_i_glide_gscore>  (356) 
-3.2319

>  <r_i_glide_lipo>  (356) 
-0.274544

>  <r_i_glide_hbond>  (356) 
-0.272668

>  <r_i_glide_metal>  (356) 
-0

>  <r_i_glide_rewards>  (356) 
-1.30628

>  <r_i_glide_evdw>  (356) 
-16.2172

>  <r_i_glide_ecoul>  (356) 
-3.45835

>  <r_i_glide_erotb>  (356) 
0

>  <r_i_glide_esite>  (356) 
-0.0488013

>  <r_i_glide_emodel>  (356) 
-22.3057

>  <r_i_glide_energy>  (356) 
-19.6755

>  <r_i_glide_einternal>  (356) 
2.22033

>  <r_i_glide_intrahb_reward>  (356) 
-0

>  <i_i_glide_confnum>  (356) 
2

>  <i_i_glide_posenum>  (356) 
16

>  <r_i_glide_eff_state_penalty>  (356) 
0

>  <ligand_id>  (356) 
101

>  <original_smiles>  (356) 
CCC1C(=O)C(C)C2CCC(C)C3CCC4(C)OOC32C1O4

>  <smiles>  (356) 
[H]C([H])([H])C([H])([H])C1([H])C(=O)C([H])(C([H])([H])[H])C2([H])C([H])([H])C([H])([H])C([H])(C([H])([H])[H])C3([H])C([H])([H])C([H])([H])C4(C([H])([H])[H])OOC23C1([H])O4

$$$$
101:0:2
     RDKit          3D

 50 53  0  0  1  0  0  0  0  0999 V2000
    2.6311   -0.7647    1.9411 C   0  0  0  0  0  0  0  0  0  0  0  0
    2.6808   -2.2103    1.4376 C   0  0  0  0  0  0  0  0  0  0  0  0
    3.9204   -2.5732    0.5844 C   0  0  2  0  0  0  0  0  0  0  0  0
    3.9229   -1.9560   -0.8325 C   0  0  0  0  0  0  0  0  0  0  0  0
    3.8329   -0.7182   -0.9894 O   0  0  0  0  0  0  0  0  0  0  0  0
    4.1601   -2.9400   -2.0261 C   0  0  1  0  0  0  0  0  0  0  0  0
    4.1506   -2.1884   -3.3776 C   0  0  0  0  0  0  0  0  0  0  0  0
    5.4671   -3.7399   -1.7505 C   0  0  1  0  0  0  0  0  0  0  0  0
    6.7129   -2.8876   -2.1189 C   0  0  0  0  0  0  0  0  0  0  0  0
    8.0417   -3.2394   -1.4261 C   0  0  0  0  0  0  0  0  0  0  0  0
    7.8337   -3.2411    0.0812 C   0  0  1  0  0  0  0  0  0  0  0  0
    7.4743   -1.8216    0.5792 C   0  0  0  0  0  0  0  0  0  0  0  0
    6.8367   -4.3944    0.4258 C   0  0  1  0  0  0  0  0  0  0  0  0
    6.7801   -4.5879    1.9506 C   0  0  0  0  0  0  0  0  0  0  0  0
    6.0466   -5.8389    2.4075 C   0  0  0  0  0  0  0  0  0  0  0  0
    4.6721   -6.0163    1.7628 C   0  0  2  0  0  0  0  0  0  0  0  0
    3.7796   -6.9363    2.5876 C   0  0  0  0  0  0  0  0  0  0  0  0
    4.8028   -6.6589    0.4881 O   0  0  0  0  0  0  0  0  0  0  0  0
    5.1431   -5.7870   -0.6603 O   0  0  0  0  0  0  0  0  0  0  0  0
    5.4476   -4.4439   -0.3413 C   0  0  2  0  0  0  0  0  0  0  0  0
    4.1580   -4.0877    0.4756 C   0  0  1  0  0  0  0  0  0  0  0  0
    4.0501   -4.7378    1.7329 O   0  0  0  0  0  0  0  0  0  0  0  0
    1.7569   -0.6222    2.5747 H   0  0  0  0  0  0  0  0  0  0  0  0
    2.5680   -0.0435    1.1215 H   0  0  0  0  0  0  0  0  0  0  0  0
    3.5114   -0.5314    2.5438 H   0  0  0  0  0  0  0  0  0  0  0  0
    2.6241   -2.8578    2.3131 H   0  0  0  0  0  0  0  0  0  0  0  0
    1.7895   -2.4312    0.8578 H   0  0  0  0  0  0  0  0  0  0  0  0
    4.7821   -2.1781    1.1150 H   0  0  0  0  0  0  0  0  0  0  0  0
    3.3431   -3.6791   -2.0831 H   0  0  0  0  0  0  0  0  0  0  0  0
    3.1504   -1.8124   -3.5806 H   0  0  0  0  0  0  0  0  0  0  0  0
    4.4377   -2.8230   -4.2146 H   0  0  0  0  0  0  0  0  0  0  0  0
    4.8028   -1.3124   -3.3901 H   0  0  0  0  0  0  0  0  0  0  0  0
    5.4550   -4.5477   -2.4728 H   0  0  0  0  0  0  0  0  0  0  0  0
    6.8406   -2.9907   -3.1864 H   0  0  0  0  0  0  0  0  0  0  0  0
    6.5022   -1.8296   -1.9381 H   0  0  0  0  0  0  0  0  0  0  0  0
    8.4457   -4.1968   -1.7755 H   0  0  0  0  0  0  0  0  0  0  0  0
    8.8069   -2.5144   -1.7203 H   0  0  0  0  0  0  0  0  0  0  0  0
    8.8060   -3.5012    0.5162 H   0  0  0  0  0  0  0  0  0  0  0  0
    6.5599   -1.4349    0.1359 H   0  0  0  0  0  0  0  0  0  0  0  0
    8.2763   -1.1248    0.3250 H   0  0  0  0  0  0  0  0  0  0  0  0
    7.3261   -1.7880    1.6534 H   0  0  0  0  0  0  0  0  0  0  0  0
    7.3468   -5.2944    0.0829 H   0  0  0  0  0  0  0  0  0  0  0  0
    7.7917   -4.6761    2.3483 H   0  0  0  0  0  0  0  0  0  0  0  0
    6.3126   -3.7181    2.4178 H   0  0  0  0  0  0  0  0  0  0  0  0
    6.6596   -6.7212    2.2302 H   0  0  0  0  0  0  0  0  0  0  0  0
    5.9256   -5.7637    3.4911 H   0  0  0  0  0  0  0  0  0  0  0  0
    2.8296   -7.0669    2.0844 H   0  0  0  0  0  0  0  0  0  0  0  0
    3.6066   -6.5201    3.5803 H   0  0  0  0  0  0  0  0  0  0  0  0
    4.2584   -7.9054    2.6965 H   0  0  0  0  0  0  0  0  0  0  0  0
    3.3132   -4.5059   -0.0804 H   0  0  0  0  0  0  0  0  0  0  0  0
  1  2  1  0
  1 23  1  0
  1 24  1  0
  1 25  1  0
  2  3  1  0
  2 26  1  0
  2 27  1  0
  3 21  1  0
  3  4  1  0
  3 28  1  1
  4  5  2  0
  4  6  1  0
  6  7  1  0
  6  8  1  0
  6 29  1  6
  7 30  1  0
  7 31  1  0
  7 32  1  0
  8 20  1  0
  8  9  1  0
  8 33  1  6
  9 10  1  0
  9 34  1  0
  9 35  1  0
 10 11  1  0
 10 36  1  0
 10 37  1  0
 11 12  1  0
 11 13  1  0
 11 38  1  1
 12 39  1  0
 12 40  1  0
 12 41  1  0
 13 20  1  0
 13 14  1  0
 13 42  1  6
 14 15  1  0
 14 43  1  0
 14 44  1  0
 15 16  1  0
 15 45  1  0
 15 46  1  0
 16 22  1  0
 16 17  1  1
 16 18  1  0
 17 47  1  0
 17 48  1  0
 17 49  1  0
 18 19  1  0
 20 19  1  6
 20 21  1  0
 21 22  1  0
 21 50  1  6
M  END
>  <i_m_ct_stereo_status>  (357) 
1

>  <s_m_source_file>  (357) 
/var/tmp/pbs.5076255.sched01/tmpbrgkg_oh/138myny07gr.sdf

>  <i_m_source_file_index>  (357) 
19

>  <i_lp_mmshare_version>  (357) 
48012

>  <i_f3d_flags>  (357) 
0

>  <s_epik_input>  (357) 
W0NAQF0xMjNbQ0BIXTRbQ0BIXShbQ0gzXSlDKD1PKVtDQEBIXShbQ0gyXVtDSDNdKVtDQEBIXTNPW0NAQF0oW0NIM10pKE9PMilbQ0gyXVtDSDJdW0NAQEhdMVtDQEhdKFtDSDNdKVtDSDJdW0NIMl00

>  <s_epik_cmdline>  (357) 
J2VwaWtfcHl0aG9uJywgJy1waHQnLCAnMi4wJywgJy1waCcsICc3LjAnLCAnLXRuJywgJzgnLCAnLW1hJywgJzIwMCcsICctaW1hZScsICc8aW5maWxlLm1hZT4nLCAnLW9tYWUnLCAnPG91dGZpbGUubWFlPic=

>  <r_lp_tautomer_probability>  (357) 
1

>  <r_epik_Ionization_Penalty>  (357) 
1.16495e-12

>  <r_epik_Ionization_Penalty_Charging>  (357) 
0

>  <r_epik_Ionization_Penalty_Neutral>  (357) 
1.16495e-12

>  <r_epik_State_Penalty>  (357) 
-0

>  <r_epik_Charging_Adjusted_Penalty>  (357) 
0

>  <i_epik_Tot_Q>  (357) 
0

>  <i_epik_Tot_abs_Q>  (357) 
0

>  <s_lp_Force_Field>  (357) 
OPLS3e

>  <r_lp_Energy>  (357) 
37.7853

>  <b_lp_Chiralities_Consistent>  (357) 
1

>  <s_lp_Variant>  (357) 
101:0-1

>  <s_i_glide_gridfile>  (357) 
pfpi4k_grid

>  <i_i_glide_lignum>  (357) 
19

>  <i_i_glide_rotatable_bonds>  (357) 
1

>  <r_i_docking_score>  (357) 
-2.76746

>  <r_i_glide_ligand_efficiency>  (357) 
-0.125794

>  <r_i_glide_ligand_efficiency_sa>  (357) 
-0.352479

>  <r_i_glide_ligand_efficiency_ln>  (357) 
-0.676469

>  <r_i_glide_gscore>  (357) 
-2.76746

>  <r_i_glide_lipo>  (357) 
-0.712179

>  <r_i_glide_hbond>  (357) 
0

>  <r_i_glide_metal>  (357) 
-0

>  <r_i_glide_rewards>  (357) 
-1.35853

>  <r_i_glide_evdw>  (357) 
-13.3442

>  <r_i_glide_ecoul>  (357) 
0.114542

>  <r_i_glide_erotb>  (357) 
0

>  <r_i_glide_esite>  (357) 
-0.0467258

>  <r_i_glide_emodel>  (357) 
-15.4616

>  <r_i_glide_energy>  (357) 
-13.2296

>  <r_i_glide_einternal>  (357) 
0.358473

>  <r_i_glide_intrahb_reward>  (357) 
-0

>  <i_i_glide_confnum>  (357) 
1

>  <i_i_glide_posenum>  (357) 
14

>  <r_i_glide_eff_state_penalty>  (357) 
0

>  <ligand_id>  (357) 
101

>  <original_smiles>  (357) 
CCC1C(=O)C(C)C2CCC(C)C3CCC4(C)OOC32C1O4

>  <smiles>  (357) 
[H]C([H])([H])C([H])([H])C1([H])C(=O)C([H])(C([H])([H])[H])C2([H])C([H])([H])C([H])([H])C([H])(C([H])([H])[H])C3([H])C([H])([H])C([H])([H])C4(C([H])([H])[H])OOC23C1([H])O4

$$$$
102:0:0
     RDKit          3D

 75 80  0  0  1  0  0  0  0  0999 V2000
   -0.4272    4.6609    6.7635 C   0  0  0  0  0  0  0  0  0  0  0  0
    0.3254    3.5383    6.6543 C   0  0  0  0  0  0  0  0  0  0  0  0
    1.5449    3.6405    5.6760 C   0  0  2  0  0  0  0  0  0  0  0  0
    2.0909    4.9398    5.9112 O   0  0  0  0  0  0  0  0  0  0  0  0
    1.1354    3.6113    4.1451 C   0  0  0  0  0  0  0  0  0  0  0  0
    1.9834    2.8189    3.1558 N   0  0  0  0  0  0  0  0  0  0  0  0
    2.0686    1.3026    3.1027 C   0  0  1  0  0  0  0  0  0  0  0  0
    2.7171    0.9038    1.7631 C   0  0  0  0  0  0  0  0  0  0  0  0
    2.8048    0.6255    4.3179 C   0  0  1  0  0  0  0  0  0  0  0  0
    4.2193    0.6109    4.2550 O   0  0  0  0  0  0  0  0  0  0  0  0
    2.0360    1.1847    5.5148 C   0  0  1  0  0  0  0  0  0  0  0  0
    0.5860    0.7453    4.8837 C   0  0  1  0  0  0  0  0  0  0  0  0
   -0.8404    1.1455    5.4310 C   0  0  1  0  0  0  0  0  0  0  0  0
   -1.7539    0.1143    5.0731 O   0  0  0  0  0  0  0  0  0  0  0  0
   -0.9609    1.2835    6.9499 C   0  0  1  0  0  0  0  0  0  0  0  0
   -2.3296    1.3462    7.4064 O   0  0  0  0  0  0  0  0  0  0  0  0
   -3.1136    2.4948    7.1176 C   0  0  0  0  0  0  0  0  0  0  0  0
   -0.3018    0.2109    7.8334 C   0  0  1  0  0  0  0  0  0  0  0  0
   -0.1714   -1.1233    7.3763 O   0  0  0  0  0  0  0  0  0  0  0  0
    0.9295    1.0994    7.8924 C   0  0  1  0  0  0  0  0  0  0  0  0
    2.1610    0.8635    7.0305 C   0  0  1  0  0  0  0  0  0  0  0  0
    2.8119   -0.3599    7.2888 O   0  0  0  0  0  0  0  0  0  0  0  0
    3.0197    2.0739    7.2571 C   0  0  0  0  0  0  0  0  0  0  0  0
    2.6341    2.6115    5.8852 C   0  0  2  0  0  0  0  0  0  0  0  0
    4.0007    3.1797    5.3382 C   0  0  0  0  0  0  0  0  0  0  0  0
   -0.0155    2.3244    7.6153 C   0  0  1  0  0  0  0  0  0  0  0  0
   -0.5937    2.7471    8.8555 O   0  0  0  0  0  0  0  0  0  0  0  0
    0.2430    3.4207    9.7942 C   0  0  0  0  0  0  0  0  0  0  0  0
   -0.5244    3.5409   11.1280 C   0  0  0  0  0  0  0  0  0  0  0  0
    0.2477    4.4330   12.1197 C   0  0  0  0  0  0  0  0  0  0  0  0
   -1.9595    4.0573   10.9378 C   0  0  0  0  0  0  0  0  0  0  0  0
   -0.5768    2.2468   11.6995 O   0  0  0  0  0  0  0  0  0  0  0  0
    0.6776    0.6989    3.3167 C   0  0  1  0  0  0  0  0  0  0  0  0
   -0.4574    1.2534    2.4113 C   0  0  0  0  0  0  0  0  0  0  0  0
    0.6817   -0.6701    2.9322 O   0  0  0  0  0  0  0  0  0  0  0  0
   -1.2065    4.7759    7.5001 H   0  0  0  0  0  0  0  0  0  0  0  0
   -0.2498    5.5162    6.1186 H   0  0  0  0  0  0  0  0  0  0  0  0
    2.7584    5.1280    5.2708 H   0  0  0  0  0  0  0  0  0  0  0  0
    0.0765    3.4126    4.0496 H   0  0  0  0  0  0  0  0  0  0  0  0
    1.1962    4.6318    3.7704 H   0  0  0  0  0  0  0  0  0  0  0  0
    1.6119    3.0938    2.2547 H   0  0  0  0  0  0  0  0  0  0  0  0
    2.8311   -0.1747    1.6514 H   0  0  0  0  0  0  0  0  0  0  0  0
    3.7154    1.3250    1.6702 H   0  0  0  0  0  0  0  0  0  0  0  0
    2.1273    1.2656    0.9243 H   0  0  0  0  0  0  0  0  0  0  0  0
    2.6549   -0.4537    4.3119 H   0  0  0  0  0  0  0  0  0  0  0  0
    4.5429    1.4877    4.1504 H   0  0  0  0  0  0  0  0  0  0  0  0
    0.5787   -0.3130    5.1534 H   0  0  0  0  0  0  0  0  0  0  0  0
   -1.2098    2.0527    4.9617 H   0  0  0  0  0  0  0  0  0  0  0  0
   -1.9336    0.1766    4.1481 H   0  0  0  0  0  0  0  0  0  0  0  0
   -4.0798    2.4275    7.6231 H   0  0  0  0  0  0  0  0  0  0  0  0
   -3.3051    2.6038    6.0493 H   0  0  0  0  0  0  0  0  0  0  0  0
   -2.6739    3.4000    7.5057 H   0  0  0  0  0  0  0  0  0  0  0  0
   -0.7651    0.1847    8.8238 H   0  0  0  0  0  0  0  0  0  0  0  0
    0.4288   -1.1154    6.6474 H   0  0  0  0  0  0  0  0  0  0  0  0
    1.2541    1.0556    8.9281 H   0  0  0  0  0  0  0  0  0  0  0  0
    3.3782   -0.2197    8.0318 H   0  0  0  0  0  0  0  0  0  0  0  0
    2.7240    2.7423    8.0634 H   0  0  0  0  0  0  0  0  0  0  0  0
    4.0656    1.8008    7.3872 H   0  0  0  0  0  0  0  0  0  0  0  0
    4.8458    2.5246    5.5409 H   0  0  0  0  0  0  0  0  0  0  0  0
    4.3150    4.0886    5.8546 H   0  0  0  0  0  0  0  0  0  0  0  0
    4.0417    3.4093    4.2781 H   0  0  0  0  0  0  0  0  0  0  0  0
    1.1937    2.9170    9.9718 H   0  0  0  0  0  0  0  0  0  0  0  0
    0.4897    4.4077    9.4049 H   0  0  0  0  0  0  0  0  0  0  0  0
    0.3696    5.4475   11.7323 H   0  0  0  0  0  0  0  0  0  0  0  0
    1.2482    4.0392   12.3174 H   0  0  0  0  0  0  0  0  0  0  0  0
   -0.2691    4.5097   13.0797 H   0  0  0  0  0  0  0  0  0  0  0  0
   -1.9640    5.0547   10.4997 H   0  0  0  0  0  0  0  0  0  0  0  0
   -2.4917    4.1040   11.8885 H   0  0  0  0  0  0  0  0  0  0  0  0
   -2.5331    3.4019   10.2848 H   0  0  0  0  0  0  0  0  0  0  0  0
   -1.3387    2.1839   12.2862 H   0  0  0  0  0  0  0  0  0  0  0  0
   -0.6660    2.3124    2.5003 H   0  0  0  0  0  0  0  0  0  0  0  0
   -1.3957    0.7290    2.5754 H   0  0  0  0  0  0  0  0  0  0  0  0
   -0.2143    1.0906    1.3617 H   0  0  0  0  0  0  0  0  0  0  0  0
    0.8358   -0.7286    1.9998 H   0  0  0  0  0  0  0  0  0  0  0  0
    2.9309    3.1655    3.2047 H   0  0  0  0  0  0  0  0  0  0  0  0
  1  2  2  0
  1 36  1  0
  1 37  1  0
  2 26  1  0
  2  3  1  0
  3 24  1  0
  3  4  1  1
  3  5  1  0
  4 38  1  0
  5  6  1  0
  5 39  1  0
  5 40  1  0
  6  7  1  0
  6 41  1  0
  6 75  1  0
  7 33  1  0
  7  8  1  6
  7  9  1  0
  8 42  1  0
  8 43  1  0
  8 44  1  0
  9 10  1  0
  9 11  1  0
  9 45  1  6
 10 46  1  0
 11 21  1  1
 11 24  1  0
 11 12  1  0
 12 13  1  0
 12 33  1  0
 12 47  1  1
 13 14  1  0
 13 15  1  0
 13 48  1  6
 14 49  1  0
 15 26  1  0
 15 16  1  6
 15 18  1  0
 16 17  1  0
 17 50  1  0
 17 51  1  0
 17 52  1  0
 18 19  1  0
 18 20  1  0
 18 53  1  1
 19 54  1  0
 20 21  1  0
 20 26  1  0
 20 55  1  1
 21 22  1  6
 21 23  1  0
 22 56  1  0
 23 24  1  0
 23 57  1  0
 23 58  1  0
 24 25  1  6
 25 59  1  0
 25 60  1  0
 25 61  1  0
 26 27  1  1
 27 28  1  0
 28 29  1  0
 28 62  1  0
 28 63  1  0
 29 30  1  0
 29 31  1  0
 29 32  1  0
 30 64  1  0
 30 65  1  0
 30 66  1  0
 31 67  1  0
 31 68  1  0
 31 69  1  0
 32 70  1  0
 33 34  1  0
 33 35  1  1
 34 71  1  0
 34 72  1  0
 34 73  1  0
 35 74  1  0
M  CHG  1   6   1
M  END
>  <i_m_ct_stereo_status>  (358) 
1

>  <s_m_source_file>  (358) 
/var/tmp/pbs.5076255.sched01/tmpbrgkg_oh/138myny07gr.sdf

>  <i_m_source_file_index>  (358) 
20

>  <i_lp_mmshare_version>  (358) 
48012

>  <i_f3d_flags>  (358) 
0

>  <s_epik_input>  (358) 
W09IXVtDQEBIXTFbQ0BAXShbQ0gzXSkoW0NAQF0yKFtDSDNdKVtPSF0pW05IXVtDSDJdW0NAQF0oW09IXSkoQzM9W0NIMl0pW0NAQF00KFtDSDNdKVtDSDJdW0NAQF01KFtPSF0pW0NASF0oW0NAQEhdNltPSF0pW0NAQF0zKFtDQF02KFtDQEBIXShbQ0BASF0yW0NAQF0xNDUpW09IXSlPW0NIM10pT1tDSDJdQyhbQ0gzXSkoW0NIM10pW09IXQ==

>  <s_epik_cmdline>  (358) 
J2VwaWtfcHl0aG9uJywgJy1waHQnLCAnMi4wJywgJy1waCcsICc3LjAnLCAnLXRuJywgJzgnLCAnLW1hJywgJzIwMCcsICctaW1hZScsICc8aW5maWxlLm1hZT4nLCAnLW9tYWUnLCAnPG91dGZpbGUubWFlPic=

>  <r_epik_Ionization_Penalty>  (358) 
0.00388458

>  <r_epik_Ionization_Penalty_Charging>  (358) 
0.00388315

>  <r_epik_Ionization_Penalty_Neutral>  (358) 
1.43672e-06

>  <r_epik_State_Penalty>  (358) 
0.0027747

>  <r_epik_Charging_Adjusted_Penalty>  (358) 
0.00665785

>  <i_epik_Tot_Q>  (358) 
1

>  <i_epik_Tot_abs_Q>  (358) 
1

>  <s_lp_Force_Field>  (358) 
OPLS3e

>  <r_lp_Energy>  (358) 
135.364

>  <b_lp_Chiralities_Consistent>  (358) 
1

>  <s_lp_Variant>  (358) 
102:0-1

>  <s_i_glide_gridfile>  (358) 
pfpi4k_grid

>  <i_i_glide_lignum>  (358) 
20

>  <i_i_glide_rotatable_bonds>  (358) 
11

>  <r_i_docking_score>  (358) 
-3.09206

>  <r_i_glide_ligand_efficiency>  (358) 
-0.0883446

>  <r_i_glide_ligand_efficiency_sa>  (358) 
-0.288981

>  <r_i_glide_ligand_efficiency_ln>  (358) 
-0.678776

>  <r_i_glide_gscore>  (358) 
-3.09206

>  <r_i_glide_lipo>  (358) 
-0.169382

>  <r_i_glide_hbond>  (358) 
-0.16

>  <r_i_glide_metal>  (358) 
-0

>  <r_i_glide_rewards>  (358) 
-0.00963818

>  <r_i_glide_evdw>  (358) 
-19.6165

>  <r_i_glide_ecoul>  (358) 
-13.1903

>  <r_i_glide_erotb>  (358) 
0.246275

>  <r_i_glide_esite>  (358) 
-0.039943

>  <r_i_glide_emodel>  (358) 
-38.9137

>  <r_i_glide_energy>  (358) 
-32.8068

>  <r_i_glide_einternal>  (358) 
4.50321

>  <r_i_glide_intrahb_reward>  (358) 
-0

>  <i_i_glide_confnum>  (358) 
1

>  <i_i_glide_posenum>  (358) 
13

>  <r_i_glide_eff_state_penalty>  (358) 
0

>  <ligand_id>  (358) 
102

>  <original_smiles>  (358) 
C=C1C2(O)CNC3(C)C(O)C45C(C(O)C6(OC)C(O)C(C4(O)CC25C)C16OCC(C)(C)O)C3(C)O

>  <smiles>  (358) 
[H]OC1([H])C2([H])C3(OC([H])([H])C(O[H])(C([H])([H])[H])C([H])([H])[H])C(=C([H])[H])C4(O[H])C5(C([H])([H])[H])C([H])([H])C2(O[H])C52C([H])(O[H])C(C([H])([H])[H])(C(O[H])(C([H])([H])[H])C2([H])C([H])(O[H])C13OC([H])([H])[H])[N+]([H])([H])C4([H])[H]

$$$$
102:0:1
     RDKit          3D

 75 80  0  0  1  0  0  0  0  0999 V2000
   -0.1608    0.2711    8.0857 C   0  0  0  0  0  0  0  0  0  0  0  0
    0.2398    0.9643    6.9995 C   0  0  0  0  0  0  0  0  0  0  0  0
   -0.0886    0.2979    5.6234 C   0  0  2  0  0  0  0  0  0  0  0  0
   -1.4049   -0.2366    5.7654 O   0  0  0  0  0  0  0  0  0  0  0  0
    0.8234   -0.9493    5.3168 C   0  0  0  0  0  0  0  0  0  0  0  0
    1.3540   -1.1493    3.8971 N   0  0  0  0  0  0  0  0  0  0  0  0
    2.4150   -0.2931    3.2408 C   0  0  1  0  0  0  0  0  0  0  0  0
    2.9141   -1.0653    1.9977 C   0  0  0  0  0  0  0  0  0  0  0  0
    1.9638    1.1686    2.8838 C   0  0  1  0  0  0  0  0  0  0  0  0
    1.1838    1.3017    1.7187 O   0  0  0  0  0  0  0  0  0  0  0  0
    1.4672    1.6888    4.2310 C   0  0  1  0  0  0  0  0  0  0  0  0
    2.8457    1.2550    4.9910 C   0  0  1  0  0  0  0  0  0  0  0  0
    3.0983    1.2611    6.5479 C   0  0  1  0  0  0  0  0  0  0  0  0
    4.4918    1.4512    6.7264 O   0  0  0  0  0  0  0  0  0  0  0  0
    2.4010    2.3688    7.3408 C   0  0  1  0  0  0  0  0  0  0  0  0
    2.8733    2.5117    8.6913 O   0  0  0  0  0  0  0  0  0  0  0  0
    2.7881    1.4116    9.5876 C   0  0  0  0  0  0  0  0  0  0  0  0
    2.4252    3.7960    6.7611 C   0  0  1  0  0  0  0  0  0  0  0  0
    3.5165    4.1865    5.9497 O   0  0  0  0  0  0  0  0  0  0  0  0
    1.0816    3.4731    6.1133 C   0  0  1  0  0  0  0  0  0  0  0  0
    0.9611    3.1039    4.6352 C   0  0  1  0  0  0  0  0  0  0  0  0
    1.3769    4.1327    3.7619 O   0  0  0  0  0  0  0  0  0  0  0  0
   -0.4717    2.6869    4.4765 C   0  0  0  0  0  0  0  0  0  0  0  0
   -0.0421    1.2278    4.4344 C   0  0  2  0  0  0  0  0  0  0  0  0
   -0.9598    0.6290    3.3046 C   0  0  0  0  0  0  0  0  0  0  0  0
    0.8538    2.4005    7.2308 C   0  0  1  0  0  0  0  0  0  0  0  0
    0.3170    3.0345    8.4044 O   0  0  0  0  0  0  0  0  0  0  0  0
   -1.0863    3.2920    8.4327 C   0  0  0  0  0  0  0  0  0  0  0  0
   -1.5533    3.4171    9.9043 C   0  0  0  0  0  0  0  0  0  0  0  0
   -0.7110    4.4328   10.6917 C   0  0  0  0  0  0  0  0  0  0  0  0
   -3.0428    3.7689    9.9713 C   0  0  0  0  0  0  0  0  0  0  0  0
   -1.4725    2.1463   10.5194 O   0  0  0  0  0  0  0  0  0  0  0  0
    3.5114    0.0384    4.2539 C   0  0  1  0  0  0  0  0  0  0  0  0
    4.1204   -1.1623    5.0257 C   0  0  0  0  0  0  0  0  0  0  0  0
    4.6785    0.5155    3.6010 O   0  0  0  0  0  0  0  0  0  0  0  0
   -0.1065    0.6949    9.0793 H   0  0  0  0  0  0  0  0  0  0  0  0
   -0.5823   -0.7222    8.0042 H   0  0  0  0  0  0  0  0  0  0  0  0
   -1.8819   -0.0397    4.9715 H   0  0  0  0  0  0  0  0  0  0  0  0
    1.5794   -1.0573    6.0736 H   0  0  0  0  0  0  0  0  0  0  0  0
    0.2231   -1.8432    5.4866 H   0  0  0  0  0  0  0  0  0  0  0  0
    1.7569   -2.0749    3.9070 H   0  0  0  0  0  0  0  0  0  0  0  0
    3.6639   -0.5115    1.4399 H   0  0  0  0  0  0  0  0  0  0  0  0
    2.0937   -1.2681    1.3091 H   0  0  0  0  0  0  0  0  0  0  0  0
    3.3435   -2.0275    2.2709 H   0  0  0  0  0  0  0  0  0  0  0  0
    2.8206    1.7687    2.5830 H   0  0  0  0  0  0  0  0  0  0  0  0
    0.9451    2.2161    1.6103 H   0  0  0  0  0  0  0  0  0  0  0  0
    3.4842    2.0919    4.7043 H   0  0  0  0  0  0  0  0  0  0  0  0
    2.8689    0.2997    6.9914 H   0  0  0  0  0  0  0  0  0  0  0  0
    4.7032    2.3143    6.3963 H   0  0  0  0  0  0  0  0  0  0  0  0
    3.0895    1.7535   10.5778 H   0  0  0  0  0  0  0  0  0  0  0  0
    3.4474    0.5911    9.2990 H   0  0  0  0  0  0  0  0  0  0  0  0
    1.7817    1.0447    9.7048 H   0  0  0  0  0  0  0  0  0  0  0  0
    2.2879    4.5443    7.5462 H   0  0  0  0  0  0  0  0  0  0  0  0
    3.2977    5.0249    5.5678 H   0  0  0  0  0  0  0  0  0  0  0  0
    0.4334    4.3335    6.2867 H   0  0  0  0  0  0  0  0  0  0  0  0
    0.8874    4.0518    2.9484 H   0  0  0  0  0  0  0  0  0  0  0  0
   -1.1423    2.8916    5.3113 H   0  0  0  0  0  0  0  0  0  0  0  0
   -0.9028    3.0765    3.5546 H   0  0  0  0  0  0  0  0  0  0  0  0
   -1.0542    1.2731    2.4313 H   0  0  0  0  0  0  0  0  0  0  0  0
   -1.9976    0.5401    3.6103 H   0  0  0  0  0  0  0  0  0  0  0  0
   -0.6482   -0.3259    2.9112 H   0  0  0  0  0  0  0  0  0  0  0  0
   -1.2878    4.2156    7.8874 H   0  0  0  0  0  0  0  0  0  0  0  0
   -1.6656    2.5141    7.9384 H   0  0  0  0  0  0  0  0  0  0  0  0
   -0.7750    5.4237   10.2422 H   0  0  0  0  0  0  0  0  0  0  0  0
    0.3424    4.1519   10.7119 H   0  0  0  0  0  0  0  0  0  0  0  0
   -1.0476    4.5170   11.7261 H   0  0  0  0  0  0  0  0  0  0  0  0
   -3.2452    4.7379    9.5143 H   0  0  0  0  0  0  0  0  0  0  0  0
   -3.3860    3.8039   11.0082 H   0  0  0  0  0  0  0  0  0  0  0  0
   -3.6474    3.0213    9.4545 H   0  0  0  0  0  0  0  0  0  0  0  0
   -1.8612    2.1675   11.3917 H   0  0  0  0  0  0  0  0  0  0  0  0
    3.4447   -1.7461    5.6384 H   0  0  0  0  0  0  0  0  0  0  0  0
    4.9353   -0.8424    5.6731 H   0  0  0  0  0  0  0  0  0  0  0  0
    4.5726   -1.8621    4.3250 H   0  0  0  0  0  0  0  0  0  0  0  0
    4.5110    1.3669    3.2063 H   0  0  0  0  0  0  0  0  0  0  0  0
    0.5683   -1.1616    3.2615 H   0  0  0  0  0  0  0  0  0  0  0  0
  1  2  2  0
  1 36  1  0
  1 37  1  0
  2 26  1  0
  2  3  1  0
  3 24  1  0
  3  4  1  1
  3  5  1  0
  4 38  1  0
  5  6  1  0
  5 39  1  0
  5 40  1  0
  6  7  1  0
  6 41  1  0
  6 75  1  0
  7 33  1  0
  7  8  1  6
  7  9  1  0
  8 42  1  0
  8 43  1  0
  8 44  1  0
  9 10  1  0
  9 11  1  0
  9 45  1  6
 10 46  1  0
 11 21  1  6
 11 24  1  0
 11 12  1  0
 12 13  1  0
 12 33  1  0
 12 47  1  6
 13 14  1  0
 13 15  1  0
 13 48  1  1
 14 49  1  0
 15 26  1  0
 15 16  1  1
 15 18  1  0
 16 17  1  0
 17 50  1  0
 17 51  1  0
 17 52  1  0
 18 19  1  0
 18 20  1  0
 18 53  1  1
 19 54  1  0
 20 21  1  0
 20 26  1  0
 20 55  1  1
 21 22  1  6
 21 23  1  0
 22 56  1  0
 23 24  1  0
 23 57  1  0
 23 58  1  0
 24 25  1  6
 25 59  1  0
 25 60  1  0
 25 61  1  0
 26 27  1  1
 27 28  1  0
 28 29  1  0
 28 62  1  0
 28 63  1  0
 29 30  1  0
 29 31  1  0
 29 32  1  0
 30 64  1  0
 30 65  1  0
 30 66  1  0
 31 67  1  0
 31 68  1  0
 31 69  1  0
 32 70  1  0
 33 34  1  0
 33 35  1  6
 34 71  1  0
 34 72  1  0
 34 73  1  0
 35 74  1  0
M  CHG  1   6   1
M  END
>  <i_m_ct_stereo_status>  (359) 
1

>  <s_m_source_file>  (359) 
/var/tmp/pbs.5076255.sched01/tmpbrgkg_oh/138myny07gr.sdf

>  <i_m_source_file_index>  (359) 
20

>  <i_lp_mmshare_version>  (359) 
48012

>  <i_f3d_flags>  (359) 
0

>  <s_epik_input>  (359) 
W09IXVtDQEBIXTFbQ0BAXShbQ0gzXSkoW0NAQF0yKFtDSDNdKVtPSF0pW05IXVtDSDJdW0NAQF0oW09IXSkoQzM9W0NIMl0pW0NAQF00KFtDSDNdKVtDSDJdW0NAQF01KFtPSF0pW0NASF0oW0NAQEhdNltPSF0pW0NAQF0zKFtDQF02KFtDQEBIXShbQ0BASF0yW0NAQF0xNDUpW09IXSlPW0NIM10pT1tDSDJdQyhbQ0gzXSkoW0NIM10pW09IXQ==

>  <s_epik_cmdline>  (359) 
J2VwaWtfcHl0aG9uJywgJy1waHQnLCAnMi4wJywgJy1waCcsICc3LjAnLCAnLXRuJywgJzgnLCAnLW1hJywgJzIwMCcsICctaW1hZScsICc8aW5maWxlLm1hZT4nLCAnLW9tYWUnLCAnPG91dGZpbGUubWFlPic=

>  <r_epik_Ionization_Penalty>  (359) 
0.00388458

>  <r_epik_Ionization_Penalty_Charging>  (359) 
0.00388315

>  <r_epik_Ionization_Penalty_Neutral>  (359) 
1.43672e-06

>  <r_epik_State_Penalty>  (359) 
0.0027747

>  <r_epik_Charging_Adjusted_Penalty>  (359) 
0.00665785

>  <i_epik_Tot_Q>  (359) 
1

>  <i_epik_Tot_abs_Q>  (359) 
1

>  <s_lp_Force_Field>  (359) 
OPLS3e

>  <r_lp_Energy>  (359) 
135.364

>  <b_lp_Chiralities_Consistent>  (359) 
1

>  <s_lp_Variant>  (359) 
102:0-1

>  <s_i_glide_gridfile>  (359) 
pfpi4k_grid

>  <i_i_glide_lignum>  (359) 
20

>  <i_i_glide_rotatable_bonds>  (359) 
11

>  <r_i_docking_score>  (359) 
-2.94476

>  <r_i_glide_ligand_efficiency>  (359) 
-0.084136

>  <r_i_glide_ligand_efficiency_sa>  (359) 
-0.275214

>  <r_i_glide_ligand_efficiency_ln>  (359) 
-0.64644

>  <r_i_glide_gscore>  (359) 
-2.94476

>  <r_i_glide_lipo>  (359) 
-0.00133495

>  <r_i_glide_hbond>  (359) 
-0.0127291

>  <r_i_glide_metal>  (359) 
-0

>  <r_i_glide_rewards>  (359) 
-0.509638

>  <r_i_glide_evdw>  (359) 
-17.8442

>  <r_i_glide_ecoul>  (359) 
-11.8106

>  <r_i_glide_erotb>  (359) 
0.246275

>  <r_i_glide_esite>  (359) 
-0.00353705

>  <r_i_glide_emodel>  (359) 
-39.6048

>  <r_i_glide_energy>  (359) 
-29.6547

>  <r_i_glide_einternal>  (359) 
6.2651

>  <r_i_glide_intrahb_reward>  (359) 
-0.5

>  <i_i_glide_confnum>  (359) 
5

>  <i_i_glide_posenum>  (359) 
9

>  <r_i_glide_eff_state_penalty>  (359) 
0

>  <ligand_id>  (359) 
102

>  <original_smiles>  (359) 
C=C1C2(O)CNC3(C)C(O)C45C(C(O)C6(OC)C(O)C(C4(O)CC25C)C16OCC(C)(C)O)C3(C)O

>  <smiles>  (359) 
[H]OC1([H])C2([H])C3(OC([H])([H])C(O[H])(C([H])([H])[H])C([H])([H])[H])C(=C([H])[H])C4(O[H])C5(C([H])([H])[H])C([H])([H])C2(O[H])C52C([H])(O[H])C(C([H])([H])[H])(C(O[H])(C([H])([H])[H])C2([H])C([H])(O[H])C13OC([H])([H])[H])[N+]([H])([H])C4([H])[H]

$$$$
102:0:2
     RDKit          3D

 75 80  0  0  1  0  0  0  0  0999 V2000
   -0.1015    4.8294    5.7381 C   0  0  0  0  0  0  0  0  0  0  0  0
    0.5339    3.6361    5.8710 C   0  0  0  0  0  0  0  0  0  0  0  0
    1.8747    3.5045    5.0991 C   0  0  2  0  0  0  0  0  0  0  0  0
    2.5412    4.7654    5.2340 O   0  0  0  0  0  0  0  0  0  0  0  0
    1.6980    3.3078    3.5493 C   0  0  0  0  0  0  0  0  0  0  0  0
    2.6161    2.3458    2.8165 N   0  0  0  0  0  0  0  0  0  0  0  0
    2.5683    0.8388    2.9448 C   0  0  1  0  0  0  0  0  0  0  0  0
    3.3691    0.2266    1.7811 C   0  0  0  0  0  0  0  0  0  0  0  0
    3.0522    0.2910    4.3280 C   0  0  1  0  0  0  0  0  0  0  0  0
    4.4551    0.2238    4.4666 O   0  0  0  0  0  0  0  0  0  0  0  0
    2.1628    1.0344    5.3179 C   0  0  1  0  0  0  0  0  0  0  0  0
    0.7923    0.6198    4.5203 C   0  0  1  0  0  0  0  0  0  0  0  0
   -0.6448    1.2011    4.7748 C   0  0  1  0  0  0  0  0  0  0  0  0
   -1.5597    0.1771    4.4059 O   0  0  0  0  0  0  0  0  0  0  0  0
   -0.9690    1.5428    6.2347 C   0  0  1  0  0  0  0  0  0  0  0  0
   -2.3607    1.7713    6.4779 O   0  0  0  0  0  0  0  0  0  0  0  0
   -3.0159    2.8591    5.8441 C   0  0  0  0  0  0  0  0  0  0  0  0
   -0.5515    0.5561    7.3319 C   0  0  1  0  0  0  0  0  0  0  0  0
   -0.4390   -0.8323    7.0629 O   0  0  0  0  0  0  0  0  0  0  0  0
    0.7196    1.3568    7.4815 C   0  0  1  0  0  0  0  0  0  0  0  0
    2.0406    0.9145    6.8602 C   0  0  1  0  0  0  0  0  0  0  0  0
    2.5722   -0.2821    7.3828 O   0  0  0  0  0  0  0  0  0  0  0  0
    2.9511    2.0735    7.0748 C   0  0  0  0  0  0  0  0  0  0  0  0
    2.8152    2.4486    5.6158 C   0  0  2  0  0  0  0  0  0  0  0  0
    4.2851    2.8496    5.2482 C   0  0  0  0  0  0  0  0  0  0  0  0
   -0.0612    2.5972    6.9141 C   0  0  1  0  0  0  0  0  0  0  0  0
   -0.7856    3.2220    7.9871 O   0  0  0  0  0  0  0  0  0  0  0  0
   -0.0344    4.0244    8.9000 C   0  0  0  0  0  0  0  0  0  0  0  0
   -0.9918    4.5419    9.9879 C   0  0  0  0  0  0  0  0  0  0  0  0
   -2.0834    5.4548    9.4107 C   0  0  0  0  0  0  0  0  0  0  0  0
   -1.5926    3.3863   10.8001 C   0  0  0  0  0  0  0  0  0  0  0  0
   -0.2264    5.3289   10.8768 O   0  0  0  0  0  0  0  0  0  0  0  0
    1.1178    0.3810    3.0052 C   0  0  1  0  0  0  0  0  0  0  0  0
    0.1797    0.8980    1.8754 C   0  0  0  0  0  0  0  0  0  0  0  0
    1.0967   -1.0231    2.7912 O   0  0  0  0  0  0  0  0  0  0  0  0
   -0.9278    5.1106    6.3664 H   0  0  0  0  0  0  0  0  0  0  0  0
    0.2285    5.5782    5.0185 H   0  0  0  0  0  0  0  0  0  0  0  0
    2.0702    5.4335    4.7623 H   0  0  0  0  0  0  0  0  0  0  0  0
    0.6513    3.1970    3.3069 H   0  0  0  0  0  0  0  0  0  0  0  0
    1.9088    4.2571    3.0694 H   0  0  0  0  0  0  0  0  0  0  0  0
    2.3969    2.5235    1.8493 H   0  0  0  0  0  0  0  0  0  0  0  0
    3.4018   -0.8629    1.8094 H   0  0  0  0  0  0  0  0  0  0  0  0
    4.4093    0.5420    1.7871 H   0  0  0  0  0  0  0  0  0  0  0  0
    2.9369    0.5193    0.8286 H   0  0  0  0  0  0  0  0  0  0  0  0
    2.8291   -0.7683    4.4170 H   0  0  0  0  0  0  0  0  0  0  0  0
    4.7853   -0.4337    3.8772 H   0  0  0  0  0  0  0  0  0  0  0  0
    0.6433   -0.4021    4.8839 H   0  0  0  0  0  0  0  0  0  0  0  0
   -0.8581    2.0600    4.1400 H   0  0  0  0  0  0  0  0  0  0  0  0
   -2.3284    0.5617    3.9998 H   0  0  0  0  0  0  0  0  0  0  0  0
   -4.0380    2.9037    6.2225 H   0  0  0  0  0  0  0  0  0  0  0  0
   -3.0586    2.7569    4.7529 H   0  0  0  0  0  0  0  0  0  0  0  0
   -2.6027    3.8252    6.1178 H   0  0  0  0  0  0  0  0  0  0  0  0
   -1.1560    0.6981    8.2296 H   0  0  0  0  0  0  0  0  0  0  0  0
    0.0792   -0.9266    6.2867 H   0  0  0  0  0  0  0  0  0  0  0  0
    0.8767    1.4385    8.5477 H   0  0  0  0  0  0  0  0  0  0  0  0
    2.0883   -0.9960    7.0121 H   0  0  0  0  0  0  0  0  0  0  0  0
    2.6011    2.8567    7.7378 H   0  0  0  0  0  0  0  0  0  0  0  0
    3.9410    1.7271    7.3883 H   0  0  0  0  0  0  0  0  0  0  0  0
    5.0337    2.1700    5.6396 H   0  0  0  0  0  0  0  0  0  0  0  0
    4.6139    3.8024    5.6726 H   0  0  0  0  0  0  0  0  0  0  0  0
    4.4561    2.9106    4.1902 H   0  0  0  0  0  0  0  0  0  0  0  0
    0.7676    3.4568    9.3708 H   0  0  0  0  0  0  0  0  0  0  0  0
    0.4390    4.8556    8.3815 H   0  0  0  0  0  0  0  0  0  0  0  0
   -2.7030    4.9188    8.6888 H   0  0  0  0  0  0  0  0  0  0  0  0
   -1.6524    6.3209    8.9080 H   0  0  0  0  0  0  0  0  0  0  0  0
   -2.7458    5.8227   10.1943 H   0  0  0  0  0  0  0  0  0  0  0  0
   -2.2023    2.7383   10.1674 H   0  0  0  0  0  0  0  0  0  0  0  0
   -2.2330    3.7429   11.6071 H   0  0  0  0  0  0  0  0  0  0  0  0
   -0.8149    2.7672   11.2468 H   0  0  0  0  0  0  0  0  0  0  0  0
   -0.7655    5.5477   11.6229 H   0  0  0  0  0  0  0  0  0  0  0  0
    0.0507    1.9709    1.7995 H   0  0  0  0  0  0  0  0  0  0  0  0
   -0.8181    0.4734    1.9547 H   0  0  0  0  0  0  0  0  0  0  0  0
    0.5663    0.5819    0.9075 H   0  0  0  0  0  0  0  0  0  0  0  0
    1.2028   -1.1957    1.8676 H   0  0  0  0  0  0  0  0  0  0  0  0
    3.5705    2.6199    2.9769 H   0  0  0  0  0  0  0  0  0  0  0  0
  1  2  2  0
  1 36  1  0
  1 37  1  0
  2 26  1  0
  2  3  1  0
  3 24  1  0
  3  4  1  6
  3  5  1  0
  4 38  1  0
  5  6  1  0
  5 39  1  0
  5 40  1  0
  6  7  1  0
  6 41  1  0
  6 75  1  0
  7 33  1  0
  7  8  1  6
  7  9  1  0
  8 42  1  0
  8 43  1  0
  8 44  1  0
  9 10  1  0
  9 11  1  0
  9 45  1  6
 10 46  1  0
 11 21  1  1
 11 24  1  0
 11 12  1  0
 12 13  1  0
 12 33  1  0
 12 47  1  1
 13 14  1  0
 13 15  1  0
 13 48  1  6
 14 49  1  0
 15 26  1  0
 15 16  1  6
 15 18  1  0
 16 17  1  0
 17 50  1  0
 17 51  1  0
 17 52  1  0
 18 19  1  0
 18 20  1  0
 18 53  1  1
 19 54  1  0
 20 21  1  0
 20 26  1  0
 20 55  1  1
 21 22  1  1
 21 23  1  0
 22 56  1  0
 23 24  1  0
 23 57  1  0
 23 58  1  0
 24 25  1  6
 25 59  1  0
 25 60  1  0
 25 61  1  0
 26 27  1  1
 27 28  1  0
 28 29  1  0
 28 62  1  0
 28 63  1  0
 29 30  1  0
 29 31  1  0
 29 32  1  0
 30 64  1  0
 30 65  1  0
 30 66  1  0
 31 67  1  0
 31 68  1  0
 31 69  1  0
 32 70  1  0
 33 34  1  0
 33 35  1  1
 34 71  1  0
 34 72  1  0
 34 73  1  0
 35 74  1  0
M  CHG  1   6   1
M  END
>  <i_m_ct_stereo_status>  (360) 
1

>  <s_m_source_file>  (360) 
/var/tmp/pbs.5076255.sched01/tmpbrgkg_oh/138myny07gr.sdf

>  <i_m_source_file_index>  (360) 
20

>  <i_lp_mmshare_version>  (360) 
48012

>  <i_f3d_flags>  (360) 
0

>  <s_epik_input>  (360) 
W09IXVtDQEBIXTFbQ0BAXShbQ0gzXSkoW0NAQF0yKFtDSDNdKVtPSF0pW05IXVtDSDJdW0NAQF0oW09IXSkoQzM9W0NIMl0pW0NAQF00KFtDSDNdKVtDSDJdW0NAQF01KFtPSF0pW0NASF0oW0NAQEhdNltPSF0pW0NAQF0zKFtDQF02KFtDQEBIXShbQ0BASF0yW0NAQF0xNDUpW09IXSlPW0NIM10pT1tDSDJdQyhbQ0gzXSkoW0NIM10pW09IXQ==

>  <s_epik_cmdline>  (360) 
J2VwaWtfcHl0aG9uJywgJy1waHQnLCAnMi4wJywgJy1waCcsICc3LjAnLCAnLXRuJywgJzgnLCAnLW1hJywgJzIwMCcsICctaW1hZScsICc8aW5maWxlLm1hZT4nLCAnLW9tYWUnLCAnPG91dGZpbGUubWFlPic=

>  <r_epik_Ionization_Penalty>  (360) 
0.00388458

>  <r_epik_Ionization_Penalty_Charging>  (360) 
0.00388315

>  <r_epik_Ionization_Penalty_Neutral>  (360) 
1.43672e-06

>  <r_epik_State_Penalty>  (360) 
0.0027747

>  <r_epik_Charging_Adjusted_Penalty>  (360) 
0.00665785

>  <i_epik_Tot_Q>  (360) 
1

>  <i_epik_Tot_abs_Q>  (360) 
1

>  <s_lp_Force_Field>  (360) 
OPLS3e

>  <r_lp_Energy>  (360) 
135.364

>  <b_lp_Chiralities_Consistent>  (360) 
1

>  <s_lp_Variant>  (360) 
102:0-1

>  <s_i_glide_gridfile>  (360) 
pfpi4k_grid

>  <i_i_glide_lignum>  (360) 
20

>  <i_i_glide_rotatable_bonds>  (360) 
11

>  <r_i_docking_score>  (360) 
-2.3343

>  <r_i_glide_ligand_efficiency>  (360) 
-0.0666943

>  <r_i_glide_ligand_efficiency_sa>  (360) 
-0.218162

>  <r_i_glide_ligand_efficiency_ln>  (360) 
-0.512431

>  <r_i_glide_gscore>  (360) 
-2.3343

>  <r_i_glide_lipo>  (360) 
-0.112911

>  <r_i_glide_hbond>  (360) 
0

>  <r_i_glide_metal>  (360) 
-0

>  <r_i_glide_rewards>  (360) 
-0.00963818

>  <r_i_glide_evdw>  (360) 
-18.2492

>  <r_i_glide_ecoul>  (360) 
-10.1005

>  <r_i_glide_erotb>  (360) 
0.246275

>  <r_i_glide_esite>  (360) 
-0.0304921

>  <r_i_glide_emodel>  (360) 
-33.3378

>  <r_i_glide_energy>  (360) 
-28.3497

>  <r_i_glide_einternal>  (360) 
1.91784

>  <r_i_glide_intrahb_reward>  (360) 
-0

>  <i_i_glide_confnum>  (360) 
6

>  <i_i_glide_posenum>  (360) 
8

>  <r_i_glide_eff_state_penalty>  (360) 
0

>  <ligand_id>  (360) 
102

>  <original_smiles>  (360) 
C=C1C2(O)CNC3(C)C(O)C45C(C(O)C6(OC)C(O)C(C4(O)CC25C)C16OCC(C)(C)O)C3(C)O

>  <smiles>  (360) 
[H]OC1([H])C2([H])C3(OC([H])([H])C(O[H])(C([H])([H])[H])C([H])([H])[H])C(=C([H])[H])C4(O[H])C5(C([H])([H])[H])C([H])([H])C2(O[H])C52C([H])(O[H])C(C([H])([H])[H])(C(O[H])(C([H])([H])[H])C2([H])C([H])(O[H])C13OC([H])([H])[H])[N+]([H])([H])C4([H])[H]

$$$$
103:0:0
     RDKit          3D

 96104  0  0  1  0  0  0  0  0999 V2000
    1.2968    8.1436    6.4828 C   0  0  0  0  0  0  0  0  0  0  0  0
    1.2542    6.7309    6.3120 O   0  0  0  0  0  0  0  0  0  0  0  0
    2.1427    6.2133    5.3161 C   0  0  2  0  0  0  0  0  0  0  0  0
    1.6077    6.4382    3.8993 C   0  0  0  0  0  0  0  0  0  0  0  0
    0.3452    5.6001    3.6576 C   0  0  0  0  0  0  0  0  0  0  0  0
    0.5265    4.0627    3.9423 C   0  0  2  0  0  0  0  0  0  0  0  0
    1.4107    3.8159    2.8860 O   0  0  0  0  0  0  0  0  0  0  0  0
   -0.8278    3.3023    3.9777 C   0  0  1  0  0  0  0  0  0  0  0  0
   -1.9954    3.9331    3.1663 C   0  0  0  0  0  0  0  0  0  0  0  0
   -0.6545    1.8619    3.3393 C   0  0  0  0  0  0  0  0  0  0  0  0
   -0.1987    0.5975    3.6535 C   0  0  0  0  0  0  0  0  0  0  0  0
    0.6752   -0.0517    2.5300 C   0  0  1  0  0  0  0  0  0  0  0  0
    1.8148    0.9294    2.5153 C   0  0  0  0  0  0  0  0  0  0  0  0
    2.3764    1.1055    3.9842 C   0  0  1  0  0  0  0  0  0  0  0  0
    3.4239    2.0434    4.1079 O   0  0  0  0  0  0  0  0  0  0  0  0
    1.5712    0.7965    5.3594 C   0  0  2  0  0  0  0  0  0  0  0  0
    2.6618   -0.2457    6.1151 C   0  0  1  0  0  0  0  0  0  0  0  0
    2.2844   -1.0005    7.4220 C   0  0  0  0  0  0  0  0  0  0  0  0
    3.7629   -1.1889    5.3737 C   0  0  0  0  0  0  0  0  0  0  0  0
    3.5285   -2.5744    4.6227 C   0  0  1  0  0  0  0  0  0  0  0  0
    2.6792   -3.5319    5.2728 O   0  0  0  0  0  0  0  0  0  0  0  0
    1.6440   -4.2807    4.7595 C   0  0  0  0  0  0  0  0  0  0  0  0
    1.0533   -5.1096    5.4504 O   0  0  0  0  0  0  0  0  0  0  0  0
    1.1350   -4.0692    3.3171 C   0  0  0  0  0  0  0  0  0  0  0  0
    2.1090   -3.5565    2.2490 C   0  0  2  0  0  0  0  0  0  0  0  0
    3.3756   -4.0129    2.6824 O   0  0  0  0  0  0  0  0  0  0  0  0
    4.0835   -2.8924    3.1610 C   0  0  2  0  0  0  0  0  0  0  0  0
    5.5545   -3.3220    3.1828 C   0  0  0  0  0  0  0  0  0  0  0  0
    3.7537   -1.9260    1.9941 C   0  0  1  0  0  0  0  0  0  0  0  0
    4.6198   -0.6390    1.8885 C   0  0  0  0  0  0  0  0  0  0  0  0
    4.1942   -2.5003    0.7609 O   0  0  0  0  0  0  0  0  0  0  0  0
    2.2025   -2.0253    1.9038 C   0  0  2  0  0  0  0  0  0  0  0  0
    1.3569   -1.2998    2.8183 O   0  0  0  0  0  0  0  0  0  0  0  0
    0.1463    0.0750    5.0490 C   0  0  2  0  0  0  0  0  0  0  0  0
    0.1464   -1.4648    5.0919 C   0  0  0  0  0  0  0  0  0  0  0  0
   -1.1067    0.1995    5.9832 C   0  0  0  0  0  0  0  0  0  0  0  0
   -0.8355    0.8779    7.3100 C   0  0  1  0  0  0  0  0  0  0  0  0
   -0.2020    0.1141    8.3013 O   0  0  0  0  0  0  0  0  0  0  0  0
   -0.1792    2.1822    6.9711 C   0  0  2  0  0  0  0  0  0  0  0  0
   -1.3176    2.6722    6.2852 O   0  0  0  0  0  0  0  0  0  0  0  0
   -1.0671    3.7021    5.4817 C   0  0  1  0  0  0  0  0  0  0  0  0
    0.0552    4.3768    5.9593 O   0  0  0  0  0  0  0  0  0  0  0  0
    1.1628    3.7421    5.3577 C   0  0  2  0  0  0  0  0  0  0  0  0
    2.4008    4.7044    5.5454 C   0  0  0  0  0  0  0  0  0  0  0  0
    1.1940    2.2456    6.1320 C   0  0  2  0  0  0  0  0  0  0  0  0
    2.2008    2.4455    7.3042 C   0  0  0  0  0  0  0  0  0  0  0  0
    0.5184    8.4528    7.1818 H   0  0  0  0  0  0  0  0  0  0  0  0
    1.1264    8.6917    5.5547 H   0  0  0  0  0  0  0  0  0  0  0  0
    2.2613    8.4539    6.8927 H   0  0  0  0  0  0  0  0  0  0  0  0
    3.1042    6.7207    5.4171 H   0  0  0  0  0  0  0  0  0  0  0  0
    1.4059    7.4887    3.7193 H   0  0  0  0  0  0  0  0  0  0  0  0
    2.3815    6.1804    3.1777 H   0  0  0  0  0  0  0  0  0  0  0  0
   -0.4460    6.0326    4.2598 H   0  0  0  0  0  0  0  0  0  0  0  0
    0.0392    5.7640    2.6247 H   0  0  0  0  0  0  0  0  0  0  0  0
    0.9673    4.0435    2.0514 H   0  0  0  0  0  0  0  0  0  0  0  0
   -2.2490    4.9424    3.4758 H   0  0  0  0  0  0  0  0  0  0  0  0
   -2.8994    3.3303    3.2775 H   0  0  0  0  0  0  0  0  0  0  0  0
   -1.7815    3.9740    2.0982 H   0  0  0  0  0  0  0  0  0  0  0  0
   -0.6799    2.0019    2.2684 H   0  0  0  0  0  0  0  0  0  0  0  0
    0.1535   -0.0765    1.5743 H   0  0  0  0  0  0  0  0  0  0  0  0
    2.5617    0.6104    1.8138 H   0  0  0  0  0  0  0  0  0  0  0  0
    1.4825    1.7940    1.9731 H   0  0  0  0  0  0  0  0  0  0  0  0
    2.9059    0.2098    3.8227 H   0  0  0  0  0  0  0  0  0  0  0  0
    3.8300    2.1706    3.2673 H   0  0  0  0  0  0  0  0  0  0  0  0
    3.4022    0.4541    6.4838 H   0  0  0  0  0  0  0  0  0  0  0  0
    1.4161   -1.6395    7.3511 H   0  0  0  0  0  0  0  0  0  0  0  0
    2.1890   -0.3612    8.2897 H   0  0  0  0  0  0  0  0  0  0  0  0
    3.0712   -1.6842    7.7340 H   0  0  0  0  0  0  0  0  0  0  0  0
    4.4721   -0.5943    4.8020 H   0  0  0  0  0  0  0  0  0  0  0  0
    4.4489   -1.4639    6.1727 H   0  0  0  0  0  0  0  0  0  0  0  0
    4.3715   -3.0639    5.1082 H   0  0  0  0  0  0  0  0  0  0  0  0
    0.8447   -5.0733    2.9964 H   0  0  0  0  0  0  0  0  0  0  0  0
    0.2229   -3.4854    3.3172 H   0  0  0  0  0  0  0  0  0  0  0  0
    1.9019   -4.0999    1.3270 H   0  0  0  0  0  0  0  0  0  0  0  0
    6.1544   -2.4928    3.5445 H   0  0  0  0  0  0  0  0  0  0  0  0
    5.9407   -3.6064    2.2025 H   0  0  0  0  0  0  0  0  0  0  0  0
    5.7073   -4.1780    3.8424 H   0  0  0  0  0  0  0  0  0  0  0  0
    4.6252    0.0148    2.7495 H   0  0  0  0  0  0  0  0  0  0  0  0
    4.3818   -0.0391    1.0069 H   0  0  0  0  0  0  0  0  0  0  0  0
    5.6715   -0.9035    1.7601 H   0  0  0  0  0  0  0  0  0  0  0  0
    3.8815   -1.9560    0.0554 H   0  0  0  0  0  0  0  0  0  0  0  0
    1.8425   -1.8478    0.8920 H   0  0  0  0  0  0  0  0  0  0  0  0
   -0.1106   -1.9519    6.0330 H   0  0  0  0  0  0  0  0  0  0  0  0
    1.1345   -1.8089    4.9253 H   0  0  0  0  0  0  0  0  0  0  0  0
   -0.5454   -1.8723    4.3522 H   0  0  0  0  0  0  0  0  0  0  0  0
   -1.8981    0.7020    5.4280 H   0  0  0  0  0  0  0  0  0  0  0  0
   -1.6751   -0.7081    6.1953 H   0  0  0  0  0  0  0  0  0  0  0  0
   -1.8034    1.0929    7.7708 H   0  0  0  0  0  0  0  0  0  0  0  0
    0.7179    0.0606    8.0904 H   0  0  0  0  0  0  0  0  0  0  0  0
   -0.1159    2.7766    7.8865 H   0  0  0  0  0  0  0  0  0  0  0  0
   -1.9083    4.3785    5.6003 H   0  0  0  0  0  0  0  0  0  0  0  0
    3.1565    4.4156    4.8202 H   0  0  0  0  0  0  0  0  0  0  0  0
    2.8956    4.6477    6.5079 H   0  0  0  0  0  0  0  0  0  0  0  0
    1.9945    3.3571    7.8730 H   0  0  0  0  0  0  0  0  0  0  0  0
    3.2366    2.5032    6.9633 H   0  0  0  0  0  0  0  0  0  0  0  0
    2.1312    1.6686    8.0580 H   0  0  0  0  0  0  0  0  0  0  0  0
  1  2  1  0
  1 47  1  0
  1 48  1  0
  1 49  1  0
  2  3  1  0
  3 44  1  0
  3  4  1  0
  3 50  1  6
  4  5  1  0
  4 51  1  0
  4 52  1  0
  5  6  1  0
  5 53  1  0
  5 54  1  0
  6 43  1  0
  6  7  1  6
  6  8  1  0
  7 55  1  0
  8 41  1  0
  8  9  1  6
  8 10  1  0
  9 56  1  0
  9 57  1  0
  9 58  1  0
 10 11  2  3
 10 59  1  0
 11 34  1  0
 11 12  1  0
 12 33  1  0
 12 13  1  0
 12 60  1  6
 13 14  1  0
 13 61  1  0
 13 62  1  0
 14 15  1  0
 14 16  1  0
 14 63  1  6
 15 64  1  0
 16 45  1  0
 16 17  1  0
 16 34  1  6
 17 18  1  0
 17 19  1  0
 17 65  1  1
 18 66  1  0
 18 67  1  0
 18 68  1  0
 19 20  1  0
 19 69  1  0
 19 70  1  0
 20 27  1  0
 20 21  1  0
 20 71  1  1
 21 22  1  0
 22 23  2  0
 22 24  1  0
 24 25  1  0
 24 72  1  0
 24 73  1  0
 25 32  1  0
 25 26  1  0
 25 74  1  6
 26 27  1  0
 27 28  1  1
 27 29  1  0
 28 75  1  0
 28 76  1  0
 28 77  1  0
 29 30  1  0
 29 31  1  6
 29 32  1  0
 30 78  1  0
 30 79  1  0
 30 80  1  0
 31 81  1  0
 32 33  1  0
 32 82  1  6
 34 35  1  6
 34 36  1  0
 35 83  1  0
 35 84  1  0
 35 85  1  0
 36 37  1  0
 36 86  1  0
 36 87  1  0
 37 38  1  0
 37 39  1  0
 37 88  1  1
 38 89  1  0
 39 45  1  0
 39 40  1  0
 39 90  1  1
 40 41  1  0
 41 42  1  0
 41 91  1  6
 42 43  1  0
 43 44  1  6
 43 45  1  0
 44 92  1  0
 44 93  1  0
 45 46  1  1
 46 94  1  0
 46 95  1  0
 46 96  1  0
M  END
>  <i_m_ct_stereo_status>  (361) 
1

>  <s_m_source_file>  (361) 
/var/tmp/pbs.5076255.sched01/tmpbrgkg_oh/138myny07gr.sdf

>  <i_m_source_file_index>  (361) 
21

>  <i_lp_mmshare_version>  (361) 
48012

>  <i_f3d_flags>  (361) 
0

>  <s_epik_input>  (361) 
TzFbQ0BASF0yT1tDQEBIXShbQ0BASF0oW0NIMl0zKVtPSF0pW0NAXTQoW0NIM10pW0NAQF0xKFtDSDJdW0NASF0oT1tDSDNdKVtDSDJdW0NIMl01KVtDQEBdNShbT0hdKVtDQEBdMihbQ0gzXSkvW0NIXT1DKFtDQF0zKFtDQF00NjcpW0NIM10pL1tDQEBIXShbQ0gyXVtDQEhdNltPSF0pT1tDQEBIXThbQ0BASF05W0NIMl1DKD1PKU9bQ0BIXShbQ0gyXVtDQEBIXTdbQ0gzXSlbQ0BdKE85KShbQ0gzXSlbQ0BAXTgoW0NIM10pW09IXQ==

>  <s_epik_cmdline>  (361) 
J2VwaWtfcHl0aG9uJywgJy1waHQnLCAnMi4wJywgJy1waCcsICc3LjAnLCAnLXRuJywgJzgnLCAnLW1hJywgJzIwMCcsICctaW1hZScsICc8aW5maWxlLm1hZT4nLCAnLW9tYWUnLCAnPG91dGZpbGUubWFlPic=

>  <r_lp_tautomer_probability>  (361) 
1

>  <r_epik_Ionization_Penalty>  (361) 
4.79993e-07

>  <r_epik_Ionization_Penalty_Charging>  (361) 
0

>  <r_epik_Ionization_Penalty_Neutral>  (361) 
4.79993e-07

>  <r_epik_State_Penalty>  (361) 
-0

>  <r_epik_Charging_Adjusted_Penalty>  (361) 
0

>  <i_epik_Tot_Q>  (361) 
0

>  <i_epik_Tot_abs_Q>  (361) 
0

>  <s_epik_Chemistry_Notes>  (361) 
This compound has an ester and may undergo hydrolysis at high or low pH. This compound contains an acetal/aminal-like group ( X-CH(R)-Y where X, Y are N, S, or O) that may be acid/base labile, releasing an aldehyde.

>  <s_lp_Force_Field>  (361) 
OPLS3e

>  <r_lp_Energy>  (361) 
331.413

>  <b_lp_Chiralities_Consistent>  (361) 
1

>  <s_lp_Variant>  (361) 
103:0-1

>  <s_i_glide_gridfile>  (361) 
pfpi4k_grid

>  <i_i_glide_lignum>  (361) 
21

>  <i_i_glide_rotatable_bonds>  (361) 
5

>  <r_i_docking_score>  (361) 
-2.79471

>  <r_i_glide_ligand_efficiency>  (361) 
-0.0607546

>  <r_i_glide_ligand_efficiency_sa>  (361) 
-0.217687

>  <r_i_glide_ligand_efficiency_ln>  (361) 
-0.578778

>  <r_i_glide_gscore>  (361) 
-2.79471

>  <r_i_glide_lipo>  (361) 
-0.157267

>  <r_i_glide_hbond>  (361) 
0

>  <r_i_glide_metal>  (361) 
-0

>  <r_i_glide_rewards>  (361) 
-0.00292724

>  <r_i_glide_evdw>  (361) 
-25.1293

>  <r_i_glide_ecoul>  (361) 
-9.09555

>  <r_i_glide_erotb>  (361) 
0

>  <r_i_glide_esite>  (361) 
-0.0137224

>  <r_i_glide_emodel>  (361) 
-39.7628

>  <r_i_glide_energy>  (361) 
-34.2248

>  <r_i_glide_einternal>  (361) 
1.54468

>  <r_i_glide_intrahb_reward>  (361) 
-0

>  <i_i_glide_confnum>  (361) 
2

>  <i_i_glide_posenum>  (361) 
15

>  <r_i_glide_eff_state_penalty>  (361) 
0

>  <ligand_id>  (361) 
103

>  <original_smiles>  (361) 
COC1CCC2(O)C3(C)C=C4C5CC(O)C6(C(C)CC7OC(=O)CC8OC7(C)C(C)(O)C8O5)C4(C)CC(O)C4OC3OC2(C1)C46C

>  <smiles>  (361) 
[H]OC1([H])C([H])([H])C2(C([H])([H])[H])C3=C([H])C4(C([H])([H])[H])C5([H])OC1([H])C(C([H])([H])[H])(C1(O5)C([H])([H])C([H])(OC([H])([H])[H])C([H])([H])C([H])([H])C14O[H])C21C([H])(O[H])C([H])([H])C3([H])OC2([H])C3([H])OC(C([H])([H])[H])(C([H])(OC(=O)C3([H])[H])C([H])([H])C1([H])C([H])([H])[H])C2(O[H])C([H])([H])[H]

$$$$
103:0:1
     RDKit          3D

 96104  0  0  1  0  0  0  0  0999 V2000
    1.8413    6.4260    7.7552 C   0  0  0  0  0  0  0  0  0  0  0  0
    1.2961    6.4275    6.4437 O   0  0  0  0  0  0  0  0  0  0  0  0
    2.1706    5.9445    5.4210 C   0  0  2  0  0  0  0  0  0  0  0  0
    1.5417    6.2518    4.0632 C   0  0  0  0  0  0  0  0  0  0  0  0
    0.3014    5.3815    3.8196 C   0  0  0  0  0  0  0  0  0  0  0  0
    0.5434    3.8306    4.0081 C   0  0  2  0  0  0  0  0  0  0  0  0
    1.3680    3.6614    2.8980 O   0  0  0  0  0  0  0  0  0  0  0  0
   -0.7873    3.0337    4.0780 C   0  0  1  0  0  0  0  0  0  0  0  0
   -2.0067    3.6803    3.3586 C   0  0  0  0  0  0  0  0  0  0  0  0
   -0.6153    1.6383    3.3464 C   0  0  0  0  0  0  0  0  0  0  0  0
   -0.1011    0.3720    3.5609 C   0  0  0  0  0  0  0  0  0  0  0  0
    0.7307   -0.1861    2.3548 C   0  0  1  0  0  0  0  0  0  0  0  0
    1.8394    0.8287    2.3358 C   0  0  0  0  0  0  0  0  0  0  0  0
    2.4732    0.9372    3.7815 C   0  0  1  0  0  0  0  0  0  0  0  0
    3.4754    1.9085    3.9328 O   0  0  0  0  0  0  0  0  0  0  0  0
    1.7545    0.5301    5.1768 C   0  0  2  0  0  0  0  0  0  0  0  0
    2.9201   -0.5144    5.8120 C   0  0  1  0  0  0  0  0  0  0  0  0
    2.6373   -1.3472    7.0946 C   0  0  0  0  0  0  0  0  0  0  0  0
    4.0056   -1.3802    4.9589 C   0  0  0  0  0  0  0  0  0  0  0  0
    3.7743   -2.7315    4.1434 C   0  0  1  0  0  0  0  0  0  0  0  0
    2.9885   -3.7424    4.7947 O   0  0  0  0  0  0  0  0  0  0  0  0
    1.9504   -4.5041    4.2968 C   0  0  0  0  0  0  0  0  0  0  0  0
    1.4274   -5.3863    4.9755 O   0  0  0  0  0  0  0  0  0  0  0  0
    1.3576   -4.2331    2.8988 C   0  0  0  0  0  0  0  0  0  0  0  0
    2.2438   -3.6307    1.8031 C   0  0  2  0  0  0  0  0  0  0  0  0
    3.5484   -4.0722    2.1302 O   0  0  0  0  0  0  0  0  0  0  0  0
    4.2490   -2.9566    2.6324 C   0  0  2  0  0  0  0  0  0  0  0  0
    5.7291   -3.3295    2.5389 C   0  0  0  0  0  0  0  0  0  0  0  0
    3.8358   -1.9339    1.5465 C   0  0  1  0  0  0  0  0  0  0  0  0
    4.6529   -0.6129    1.4689 C   0  0  0  0  0  0  0  0  0  0  0  0
    4.2430   -2.4169    0.2633 O   0  0  0  0  0  0  0  0  0  0  0  0
    2.2885   -2.0824    1.5436 C   0  0  2  0  0  0  0  0  0  0  0  0
    1.4569   -1.4326    2.5322 O   0  0  0  0  0  0  0  0  0  0  0  0
    0.3342   -0.2171    4.9039 C   0  0  2  0  0  0  0  0  0  0  0  0
    0.3860   -1.7562    4.8588 C   0  0  0  0  0  0  0  0  0  0  0  0
   -0.8679   -0.1796    5.9114 C   0  0  0  0  0  0  0  0  0  0  0  0
   -0.5393    0.4317    7.2551 C   0  0  1  0  0  0  0  0  0  0  0  0
    0.1467   -0.3822    8.1644 O   0  0  0  0  0  0  0  0  0  0  0  0
    0.0631    1.7719    6.9580 C   0  0  2  0  0  0  0  0  0  0  0  0
   -1.1308    2.2705    6.3732 O   0  0  0  0  0  0  0  0  0  0  0  0
   -0.9579    3.3518    5.6151 C   0  0  1  0  0  0  0  0  0  0  0  0
    0.1789    4.0288    6.0631 O   0  0  0  0  0  0  0  0  0  0  0  0
    1.2649    3.4566    5.3636 C   0  0  2  0  0  0  0  0  0  0  0  0
    2.4931    4.4353    5.5274 C   0  0  0  0  0  0  0  0  0  0  0  0
    1.3855    1.9242    6.0521 C   0  0  2  0  0  0  0  0  0  0  0  0
    2.4515    2.0888    7.1756 C   0  0  0  0  0  0  0  0  0  0  0  0
    1.1258    6.8713    8.4448 H   0  0  0  0  0  0  0  0  0  0  0  0
    2.7609    7.0099    7.8051 H   0  0  0  0  0  0  0  0  0  0  0  0
    2.0461    5.4156    8.1114 H   0  0  0  0  0  0  0  0  0  0  0  0
    3.1017    6.5087    5.4872 H   0  0  0  0  0  0  0  0  0  0  0  0
    1.2783    7.3072    4.0076 H   0  0  0  0  0  0  0  0  0  0  0  0
    2.2790    6.0856    3.2764 H   0  0  0  0  0  0  0  0  0  0  0  0
   -0.4757    5.7548    4.4825 H   0  0  0  0  0  0  0  0  0  0  0  0
   -0.0630    5.6025    2.8175 H   0  0  0  0  0  0  0  0  0  0  0  0
    0.8868    3.9572    2.1155 H   0  0  0  0  0  0  0  0  0  0  0  0
   -2.2762    4.6629    3.7377 H   0  0  0  0  0  0  0  0  0  0  0  0
   -2.8943    3.0550    3.4732 H   0  0  0  0  0  0  0  0  0  0  0  0
   -1.8279    3.7919    2.2877 H   0  0  0  0  0  0  0  0  0  0  0  0
   -0.7027    1.8367    2.2886 H   0  0  0  0  0  0  0  0  0  0  0  0
    0.1602   -0.1779    1.4272 H   0  0  0  0  0  0  0  0  0  0  0  0
    2.5533    0.5715    1.5761 H   0  0  0  0  0  0  0  0  0  0  0  0
    1.4540    1.7095    1.8584 H   0  0  0  0  0  0  0  0  0  0  0  0
    3.0332    0.0806    3.5358 H   0  0  0  0  0  0  0  0  0  0  0  0
    3.8658    2.0962    3.0872 H   0  0  0  0  0  0  0  0  0  0  0  0
    3.6592    0.1898    6.1768 H   0  0  0  0  0  0  0  0  0  0  0  0
    1.7868   -2.0091    7.0326 H   0  0  0  0  0  0  0  0  0  0  0  0
    2.5642   -0.7580    7.9989 H   0  0  0  0  0  0  0  0  0  0  0  0
    3.4620   -2.0195    7.3251 H   0  0  0  0  0  0  0  0  0  0  0  0
    4.6629   -0.7339    4.3829 H   0  0  0  0  0  0  0  0  0  0  0  0
    4.7461   -1.6693    5.7033 H   0  0  0  0  0  0  0  0  0  0  0  0
    4.6537   -3.2195    4.5599 H   0  0  0  0  0  0  0  0  0  0  0  0
    1.0725   -5.2224    2.5395 H   0  0  0  0  0  0  0  0  0  0  0  0
    0.4303   -3.6814    2.9864 H   0  0  0  0  0  0  0  0  0  0  0  0
    1.9970   -4.1225    0.8608 H   0  0  0  0  0  0  0  0  0  0  0  0
    6.2839   -2.4613    2.8729 H   0  0  0  0  0  0  0  0  0  0  0  0
    6.0634   -3.5685    1.5294 H   0  0  0  0  0  0  0  0  0  0  0  0
    5.9624   -4.1937    3.1619 H   0  0  0  0  0  0  0  0  0  0  0  0
    4.6817   -0.0063    2.3610 H   0  0  0  0  0  0  0  0  0  0  0  0
    4.3411    0.0188    0.6351 H   0  0  0  0  0  0  0  0  0  0  0  0
    5.7029   -0.8266    1.2668 H   0  0  0  0  0  0  0  0  0  0  0  0
    3.4729   -2.6710   -0.2236 H   0  0  0  0  0  0  0  0  0  0  0  0
    1.8814   -1.8822    0.5634 H   0  0  0  0  0  0  0  0  0  0  0  0
    0.1976   -2.3015    5.7829 H   0  0  0  0  0  0  0  0  0  0  0  0
    1.3742   -2.0545    4.6215 H   0  0  0  0  0  0  0  0  0  0  0  0
   -0.3307   -2.1464    4.1359 H   0  0  0  0  0  0  0  0  0  0  0  0
   -1.7033    0.3303    5.4314 H   0  0  0  0  0  0  0  0  0  0  0  0
   -1.3932   -1.1161    6.1118 H   0  0  0  0  0  0  0  0  0  0  0  0
   -1.4788    0.5990    7.7832 H   0  0  0  0  0  0  0  0  0  0  0  0
    1.0441   -0.4578    7.8729 H   0  0  0  0  0  0  0  0  0  0  0  0
    0.1637    2.3171    7.9008 H   0  0  0  0  0  0  0  0  0  0  0  0
   -1.8119    3.9997    5.8195 H   0  0  0  0  0  0  0  0  0  0  0  0
    3.2056    4.2234    4.7360 H   0  0  0  0  0  0  0  0  0  0  0  0
    3.0709    4.3226    6.4329 H   0  0  0  0  0  0  0  0  0  0  0  0
    2.2543    2.9613    7.8031 H   0  0  0  0  0  0  0  0  0  0  0  0
    3.4639    2.1978    6.7843 H   0  0  0  0  0  0  0  0  0  0  0  0
    2.4479    1.2728    7.8889 H   0  0  0  0  0  0  0  0  0  0  0  0
  1  2  1  0
  1 47  1  0
  1 48  1  0
  1 49  1  0
  2  3  1  0
  3 44  1  0
  3  4  1  0
  3 50  1  6
  4  5  1  0
  4 51  1  0
  4 52  1  0
  5  6  1  0
  5 53  1  0
  5 54  1  0
  6 43  1  0
  6  7  1  6
  6  8  1  0
  7 55  1  0
  8 41  1  0
  8  9  1  6
  8 10  1  0
  9 56  1  0
  9 57  1  0
  9 58  1  0
 10 11  2  3
 10 59  1  0
 11 34  1  0
 11 12  1  0
 12 33  1  0
 12 13  1  0
 12 60  1  6
 13 14  1  0
 13 61  1  0
 13 62  1  0
 14 15  1  0
 14 16  1  0
 14 63  1  6
 15 64  1  0
 16 45  1  0
 16 17  1  0
 16 34  1  6
 17 18  1  0
 17 19  1  0
 17 65  1  1
 18 66  1  0
 18 67  1  0
 18 68  1  0
 19 20  1  0
 19 69  1  0
 19 70  1  0
 20 27  1  0
 20 21  1  0
 20 71  1  1
 21 22  1  0
 22 23  2  0
 22 24  1  0
 24 25  1  0
 24 72  1  0
 24 73  1  0
 25 32  1  0
 25 26  1  0
 25 74  1  6
 26 27  1  0
 27 28  1  1
 27 29  1  0
 28 75  1  0
 28 76  1  0
 28 77  1  0
 29 30  1  0
 29 31  1  6
 29 32  1  0
 30 78  1  0
 30 79  1  0
 30 80  1  0
 31 81  1  0
 32 33  1  0
 32 82  1  6
 34 35  1  6
 34 36  1  0
 35 83  1  0
 35 84  1  0
 35 85  1  0
 36 37  1  0
 36 86  1  0
 36 87  1  0
 37 38  1  0
 37 39  1  0
 37 88  1  1
 38 89  1  0
 39 45  1  0
 39 40  1  0
 39 90  1  1
 40 41  1  0
 41 42  1  0
 41 91  1  6
 42 43  1  0
 43 44  1  6
 43 45  1  0
 44 92  1  0
 44 93  1  0
 45 46  1  1
 46 94  1  0
 46 95  1  0
 46 96  1  0
M  END
>  <i_m_ct_stereo_status>  (362) 
1

>  <s_m_source_file>  (362) 
/var/tmp/pbs.5076255.sched01/tmpbrgkg_oh/138myny07gr.sdf

>  <i_m_source_file_index>  (362) 
21

>  <i_lp_mmshare_version>  (362) 
48012

>  <i_f3d_flags>  (362) 
0

>  <s_epik_input>  (362) 
TzFbQ0BASF0yT1tDQEBIXShbQ0BASF0oW0NIMl0zKVtPSF0pW0NAXTQoW0NIM10pW0NAQF0xKFtDSDJdW0NASF0oT1tDSDNdKVtDSDJdW0NIMl01KVtDQEBdNShbT0hdKVtDQEBdMihbQ0gzXSkvW0NIXT1DKFtDQF0zKFtDQF00NjcpW0NIM10pL1tDQEBIXShbQ0gyXVtDQEhdNltPSF0pT1tDQEBIXThbQ0BASF05W0NIMl1DKD1PKU9bQ0BIXShbQ0gyXVtDQEBIXTdbQ0gzXSlbQ0BdKE85KShbQ0gzXSlbQ0BAXTgoW0NIM10pW09IXQ==

>  <s_epik_cmdline>  (362) 
J2VwaWtfcHl0aG9uJywgJy1waHQnLCAnMi4wJywgJy1waCcsICc3LjAnLCAnLXRuJywgJzgnLCAnLW1hJywgJzIwMCcsICctaW1hZScsICc8aW5maWxlLm1hZT4nLCAnLW9tYWUnLCAnPG91dGZpbGUubWFlPic=

>  <r_lp_tautomer_probability>  (362) 
1

>  <r_epik_Ionization_Penalty>  (362) 
4.79993e-07

>  <r_epik_Ionization_Penalty_Charging>  (362) 
0

>  <r_epik_Ionization_Penalty_Neutral>  (362) 
4.79993e-07

>  <r_epik_State_Penalty>  (362) 
-0

>  <r_epik_Charging_Adjusted_Penalty>  (362) 
0

>  <i_epik_Tot_Q>  (362) 
0

>  <i_epik_Tot_abs_Q>  (362) 
0

>  <s_epik_Chemistry_Notes>  (362) 
This compound has an ester and may undergo hydrolysis at high or low pH. This compound contains an acetal/aminal-like group ( X-CH(R)-Y where X, Y are N, S, or O) that may be acid/base labile, releasing an aldehyde.

>  <s_lp_Force_Field>  (362) 
OPLS3e

>  <r_lp_Energy>  (362) 
331.413

>  <b_lp_Chiralities_Consistent>  (362) 
1

>  <s_lp_Variant>  (362) 
103:0-1

>  <s_i_glide_gridfile>  (362) 
pfpi4k_grid

>  <i_i_glide_lignum>  (362) 
21

>  <i_i_glide_rotatable_bonds>  (362) 
5

>  <r_i_docking_score>  (362) 
-2.713

>  <r_i_glide_ligand_efficiency>  (362) 
-0.0589783

>  <r_i_glide_ligand_efficiency_sa>  (362) 
-0.211322

>  <r_i_glide_ligand_efficiency_ln>  (362) 
-0.561856

>  <r_i_glide_gscore>  (362) 
-2.713

>  <r_i_glide_lipo>  (362) 
-0.146571

>  <r_i_glide_hbond>  (362) 
0

>  <r_i_glide_metal>  (362) 
-0

>  <r_i_glide_rewards>  (362) 
0

>  <r_i_glide_evdw>  (362) 
-23.1909

>  <r_i_glide_ecoul>  (362) 
-9.32841

>  <r_i_glide_erotb>  (362) 
0

>  <r_i_glide_esite>  (362) 
-0.00762547

>  <r_i_glide_emodel>  (362) 
-37.8955

>  <r_i_glide_energy>  (362) 
-32.5193

>  <r_i_glide_einternal>  (362) 
1.73855

>  <r_i_glide_intrahb_reward>  (362) 
-0

>  <i_i_glide_confnum>  (362) 
2

>  <i_i_glide_posenum>  (362) 
10

>  <r_i_glide_eff_state_penalty>  (362) 
0

>  <ligand_id>  (362) 
103

>  <original_smiles>  (362) 
COC1CCC2(O)C3(C)C=C4C5CC(O)C6(C(C)CC7OC(=O)CC8OC7(C)C(C)(O)C8O5)C4(C)CC(O)C4OC3OC2(C1)C46C

>  <smiles>  (362) 
[H]OC1([H])C([H])([H])C2(C([H])([H])[H])C3=C([H])C4(C([H])([H])[H])C5([H])OC1([H])C(C([H])([H])[H])(C1(O5)C([H])([H])C([H])(OC([H])([H])[H])C([H])([H])C([H])([H])C14O[H])C21C([H])(O[H])C([H])([H])C3([H])OC2([H])C3([H])OC(C([H])([H])[H])(C([H])(OC(=O)C3([H])[H])C([H])([H])C1([H])C([H])([H])[H])C2(O[H])C([H])([H])[H]

$$$$
103:0:2
     RDKit          3D

 96104  0  0  1  0  0  0  0  0999 V2000
    1.6760    6.7459    7.6238 C   0  0  0  0  0  0  0  0  0  0  0  0
    1.2229    6.7239    6.2784 O   0  0  0  0  0  0  0  0  0  0  0  0
    2.1406    6.1588    5.3382 C   0  0  2  0  0  0  0  0  0  0  0  0
    1.6062    6.4063    3.9307 C   0  0  0  0  0  0  0  0  0  0  0  0
    0.3463    5.5722    3.6645 C   0  0  0  0  0  0  0  0  0  0  0  0
    0.5299    4.0276    3.9412 C   0  0  2  0  0  0  0  0  0  0  0  0
    1.4100    3.7790    2.8815 O   0  0  0  0  0  0  0  0  0  0  0  0
   -0.8308    3.2715    3.9767 C   0  0  1  0  0  0  0  0  0  0  0  0
   -1.9927    3.9119    3.1632 C   0  0  0  0  0  0  0  0  0  0  0  0
   -0.6574    1.8356    3.3369 C   0  0  0  0  0  0  0  0  0  0  0  0
   -0.1990    0.5672    3.6493 C   0  0  0  0  0  0  0  0  0  0  0  0
    0.6764   -0.0819    2.5291 C   0  0  1  0  0  0  0  0  0  0  0  0
    1.8171    0.8986    2.5138 C   0  0  0  0  0  0  0  0  0  0  0  0
    2.3773    1.0737    3.9836 C   0  0  1  0  0  0  0  0  0  0  0  0
    3.4264    2.0063    4.1138 O   0  0  0  0  0  0  0  0  0  0  0  0
    1.5693    0.7624    5.3570 C   0  0  2  0  0  0  0  0  0  0  0  0
    2.6589   -0.2802    6.1151 C   0  0  1  0  0  0  0  0  0  0  0  0
    2.2803   -1.0343    7.4211 C   0  0  0  0  0  0  0  0  0  0  0  0
    3.7600   -1.2232    5.3739 C   0  0  0  0  0  0  0  0  0  0  0  0
    3.5285   -2.6074    4.6180 C   0  0  1  0  0  0  0  0  0  0  0  0
    2.6800   -3.5650    5.2678 O   0  0  0  0  0  0  0  0  0  0  0  0
    1.6441   -4.3145    4.7550 C   0  0  0  0  0  0  0  0  0  0  0  0
    1.0524   -5.1428    5.4456 O   0  0  0  0  0  0  0  0  0  0  0  0
    1.1379   -4.0996    3.3139 C   0  0  0  0  0  0  0  0  0  0  0  0
    2.1069   -3.5838    2.2402 C   0  0  2  0  0  0  0  0  0  0  0  0
    3.3817   -4.0427    2.6550 O   0  0  0  0  0  0  0  0  0  0  0  0
    4.0858   -2.9260    3.1552 C   0  0  2  0  0  0  0  0  0  0  0  0
    5.5569   -3.3555    3.1864 C   0  0  0  0  0  0  0  0  0  0  0  0
    3.7599   -1.9538    1.9916 C   0  0  1  0  0  0  0  0  0  0  0  0
    4.6256   -0.6697    1.8928 C   0  0  0  0  0  0  0  0  0  0  0  0
    4.2146   -2.5253    0.7630 O   0  0  0  0  0  0  0  0  0  0  0  0
    2.2073   -2.0517    1.8946 C   0  0  2  0  0  0  0  0  0  0  0  0
    1.3596   -1.3313    2.8150 O   0  0  0  0  0  0  0  0  0  0  0  0
    0.1429    0.0431    5.0451 C   0  0  2  0  0  0  0  0  0  0  0  0
    0.1441   -1.4972    5.0876 C   0  0  0  0  0  0  0  0  0  0  0  0
   -1.1112    0.1673    5.9776 C   0  0  0  0  0  0  0  0  0  0  0  0
   -0.8389    0.8425    7.3057 C   0  0  1  0  0  0  0  0  0  0  0  0
   -0.1990    0.0710    8.2862 O   0  0  0  0  0  0  0  0  0  0  0  0
   -0.1829    2.1466    6.9668 C   0  0  2  0  0  0  0  0  0  0  0  0
   -1.3211    2.6395    6.2809 O   0  0  0  0  0  0  0  0  0  0  0  0
   -1.0690    3.6721    5.4826 C   0  0  1  0  0  0  0  0  0  0  0  0
    0.0587    4.3403    5.9605 O   0  0  0  0  0  0  0  0  0  0  0  0
    1.1630    3.7025    5.3563 C   0  0  2  0  0  0  0  0  0  0  0  0
    2.4093    4.6502    5.5439 C   0  0  0  0  0  0  0  0  0  0  0  0
    1.1920    2.2086    6.1323 C   0  0  2  0  0  0  0  0  0  0  0  0
    2.1949    2.4069    7.3056 C   0  0  0  0  0  0  0  0  0  0  0  0
    0.9425    7.2535    8.2477 H   0  0  0  0  0  0  0  0  0  0  0  0
    2.6227    7.2788    7.7185 H   0  0  0  0  0  0  0  0  0  0  0  0
    1.7984    5.7402    8.0283 H   0  0  0  0  0  0  0  0  0  0  0  0
    3.0825    6.7011    5.4270 H   0  0  0  0  0  0  0  0  0  0  0  0
    1.3947    7.4651    3.8041 H   0  0  0  0  0  0  0  0  0  0  0  0
    2.3781    6.1692    3.1972 H   0  0  0  0  0  0  0  0  0  0  0  0
   -0.4504    6.0009    4.2644 H   0  0  0  0  0  0  0  0  0  0  0  0
    0.0505    5.7517    2.6322 H   0  0  0  0  0  0  0  0  0  0  0  0
    0.9601    4.0101    2.0483 H   0  0  0  0  0  0  0  0  0  0  0  0
   -2.2424    4.9250    3.4651 H   0  0  0  0  0  0  0  0  0  0  0  0
   -2.9019    3.3197    3.2777 H   0  0  0  0  0  0  0  0  0  0  0  0
   -1.7796    3.9499    2.0941 H   0  0  0  0  0  0  0  0  0  0  0  0
   -0.6799    1.9747    2.2642 H   0  0  0  0  0  0  0  0  0  0  0  0
    0.1570   -0.1081    1.5714 H   0  0  0  0  0  0  0  0  0  0  0  0
    2.5645    0.5775    1.8131 H   0  0  0  0  0  0  0  0  0  0  0  0
    1.4850    1.7629    1.9704 H   0  0  0  0  0  0  0  0  0  0  0  0
    2.9060    0.1781    3.8218 H   0  0  0  0  0  0  0  0  0  0  0  0
    3.8357    2.1368    3.2688 H   0  0  0  0  0  0  0  0  0  0  0  0
    3.3986    0.4207    6.4842 H   0  0  0  0  0  0  0  0  0  0  0  0
    1.4140   -1.6750    7.3482 H   0  0  0  0  0  0  0  0  0  0  0  0
    2.1848   -0.3950    8.2887 H   0  0  0  0  0  0  0  0  0  0  0  0
    3.0673   -1.7169    7.7340 H   0  0  0  0  0  0  0  0  0  0  0  0
    4.4690   -0.6277    4.8042 H   0  0  0  0  0  0  0  0  0  0  0  0
    4.4454   -1.4962    6.1738 H   0  0  0  0  0  0  0  0  0  0  0  0
    4.3688   -3.0962    5.1099 H   0  0  0  0  0  0  0  0  0  0  0  0
    0.8457   -5.1018    2.9924 H   0  0  0  0  0  0  0  0  0  0  0  0
    0.2261   -3.5173    3.3149 H   0  0  0  0  0  0  0  0  0  0  0  0
    1.8899   -4.1256    1.3190 H   0  0  0  0  0  0  0  0  0  0  0  0
    6.1529   -2.5244    3.5510 H   0  0  0  0  0  0  0  0  0  0  0  0
    5.9491   -3.6384    2.2092 H   0  0  0  0  0  0  0  0  0  0  0  0
    5.7086   -4.2111    3.8471 H   0  0  0  0  0  0  0  0  0  0  0  0
    4.6237   -0.0163    2.7529 H   0  0  0  0  0  0  0  0  0  0  0  0
    4.3811   -0.0807    1.0074 H   0  0  0  0  0  0  0  0  0  0  0  0
    5.6766   -0.9328    1.7653 H   0  0  0  0  0  0  0  0  0  0  0  0
    3.8255   -3.3816    0.6818 H   0  0  0  0  0  0  0  0  0  0  0  0
    1.8491   -1.8714    0.8810 H   0  0  0  0  0  0  0  0  0  0  0  0
   -0.1139   -1.9842    6.0283 H   0  0  0  0  0  0  0  0  0  0  0  0
    1.1321   -1.8414    4.9239 H   0  0  0  0  0  0  0  0  0  0  0  0
   -0.5466   -1.9039    4.3476 H   0  0  0  0  0  0  0  0  0  0  0  0
   -1.9019    0.6706    5.4220 H   0  0  0  0  0  0  0  0  0  0  0  0
   -1.6803   -0.7404    6.1884 H   0  0  0  0  0  0  0  0  0  0  0  0
   -1.8045    1.0588    7.7697 H   0  0  0  0  0  0  0  0  0  0  0  0
    0.6984   -0.0605    8.0199 H   0  0  0  0  0  0  0  0  0  0  0  0
   -0.1211    2.7413    7.8829 H   0  0  0  0  0  0  0  0  0  0  0  0
   -1.9117    4.3474    5.6004 H   0  0  0  0  0  0  0  0  0  0  0  0
    3.1572    4.3730    4.8088 H   0  0  0  0  0  0  0  0  0  0  0  0
    2.9264    4.5734    6.4877 H   0  0  0  0  0  0  0  0  0  0  0  0
    1.9880    3.3177    7.8740 H   0  0  0  0  0  0  0  0  0  0  0  0
    3.2310    2.4646    6.9675 H   0  0  0  0  0  0  0  0  0  0  0  0
    2.1244    1.6309    8.0602 H   0  0  0  0  0  0  0  0  0  0  0  0
  1  2  1  0
  1 47  1  0
  1 48  1  0
  1 49  1  0
  2  3  1  0
  3 44  1  0
  3  4  1  0
  3 50  1  6
  4  5  1  0
  4 51  1  0
  4 52  1  0
  5  6  1  0
  5 53  1  0
  5 54  1  0
  6 43  1  0
  6  7  1  6
  6  8  1  0
  7 55  1  0
  8 41  1  0
  8  9  1  6
  8 10  1  0
  9 56  1  0
  9 57  1  0
  9 58  1  0
 10 11  2  3
 10 59  1  0
 11 34  1  0
 11 12  1  0
 12 33  1  0
 12 13  1  0
 12 60  1  6
 13 14  1  0
 13 61  1  0
 13 62  1  0
 14 15  1  0
 14 16  1  0
 14 63  1  6
 15 64  1  0
 16 45  1  0
 16 17  1  0
 16 34  1  6
 17 18  1  0
 17 19  1  0
 17 65  1  1
 18 66  1  0
 18 67  1  0
 18 68  1  0
 19 20  1  0
 19 69  1  0
 19 70  1  0
 20 27  1  0
 20 21  1  0
 20 71  1  1
 21 22  1  0
 22 23  2  0
 22 24  1  0
 24 25  1  0
 24 72  1  0
 24 73  1  0
 25 32  1  0
 25 26  1  0
 25 74  1  6
 26 27  1  0
 27 28  1  1
 27 29  1  0
 28 75  1  0
 28 76  1  0
 28 77  1  0
 29 30  1  0
 29 31  1  6
 29 32  1  0
 30 78  1  0
 30 79  1  0
 30 80  1  0
 31 81  1  0
 32 33  1  0
 32 82  1  6
 34 35  1  6
 34 36  1  0
 35 83  1  0
 35 84  1  0
 35 85  1  0
 36 37  1  0
 36 86  1  0
 36 87  1  0
 37 38  1  0
 37 39  1  0
 37 88  1  1
 38 89  1  0
 39 45  1  0
 39 40  1  0
 39 90  1  1
 40 41  1  0
 41 42  1  0
 41 91  1  6
 42 43  1  0
 43 44  1  6
 43 45  1  0
 44 92  1  0
 44 93  1  0
 45 46  1  1
 46 94  1  0
 46 95  1  0
 46 96  1  0
M  END
>  <i_m_ct_stereo_status>  (363) 
1

>  <s_m_source_file>  (363) 
/var/tmp/pbs.5076255.sched01/tmpbrgkg_oh/138myny07gr.sdf

>  <i_m_source_file_index>  (363) 
21

>  <i_lp_mmshare_version>  (363) 
48012

>  <i_f3d_flags>  (363) 
0

>  <s_epik_input>  (363) 
TzFbQ0BASF0yT1tDQEBIXShbQ0BASF0oW0NIMl0zKVtPSF0pW0NAXTQoW0NIM10pW0NAQF0xKFtDSDJdW0NASF0oT1tDSDNdKVtDSDJdW0NIMl01KVtDQEBdNShbT0hdKVtDQEBdMihbQ0gzXSkvW0NIXT1DKFtDQF0zKFtDQF00NjcpW0NIM10pL1tDQEBIXShbQ0gyXVtDQEhdNltPSF0pT1tDQEBIXThbQ0BASF05W0NIMl1DKD1PKU9bQ0BIXShbQ0gyXVtDQEBIXTdbQ0gzXSlbQ0BdKE85KShbQ0gzXSlbQ0BAXTgoW0NIM10pW09IXQ==

>  <s_epik_cmdline>  (363) 
J2VwaWtfcHl0aG9uJywgJy1waHQnLCAnMi4wJywgJy1waCcsICc3LjAnLCAnLXRuJywgJzgnLCAnLW1hJywgJzIwMCcsICctaW1hZScsICc8aW5maWxlLm1hZT4nLCAnLW9tYWUnLCAnPG91dGZpbGUubWFlPic=

>  <r_lp_tautomer_probability>  (363) 
1

>  <r_epik_Ionization_Penalty>  (363) 
4.79993e-07

>  <r_epik_Ionization_Penalty_Charging>  (363) 
0

>  <r_epik_Ionization_Penalty_Neutral>  (363) 
4.79993e-07

>  <r_epik_State_Penalty>  (363) 
-0

>  <r_epik_Charging_Adjusted_Penalty>  (363) 
0

>  <i_epik_Tot_Q>  (363) 
0

>  <i_epik_Tot_abs_Q>  (363) 
0

>  <s_epik_Chemistry_Notes>  (363) 
This compound has an ester and may undergo hydrolysis at high or low pH. This compound contains an acetal/aminal-like group ( X-CH(R)-Y where X, Y are N, S, or O) that may be acid/base labile, releasing an aldehyde.

>  <s_lp_Force_Field>  (363) 
OPLS3e

>  <r_lp_Energy>  (363) 
331.413

>  <b_lp_Chiralities_Consistent>  (363) 
1

>  <s_lp_Variant>  (363) 
103:0-1

>  <s_i_glide_gridfile>  (363) 
pfpi4k_grid

>  <i_i_glide_lignum>  (363) 
21

>  <i_i_glide_rotatable_bonds>  (363) 
5

>  <r_i_docking_score>  (363) 
-2.69696

>  <r_i_glide_ligand_efficiency>  (363) 
-0.0586295

>  <r_i_glide_ligand_efficiency_sa>  (363) 
-0.210072

>  <r_i_glide_ligand_efficiency_ln>  (363) 
-0.558533

>  <r_i_glide_gscore>  (363) 
-2.69696

>  <r_i_glide_lipo>  (363) 
-0.127531

>  <r_i_glide_hbond>  (363) 
0

>  <r_i_glide_metal>  (363) 
-0

>  <r_i_glide_rewards>  (363) 
-0.00268353

>  <r_i_glide_evdw>  (363) 
-24.5777

>  <r_i_glide_ecoul>  (363) 
-8.83187

>  <r_i_glide_erotb>  (363) 
0

>  <r_i_glide_esite>  (363) 
-0.0130753

>  <r_i_glide_emodel>  (363) 
-39.4079

>  <r_i_glide_energy>  (363) 
-33.4096

>  <r_i_glide_einternal>  (363) 
0.520409

>  <r_i_glide_intrahb_reward>  (363) 
-0

>  <i_i_glide_confnum>  (363) 
2

>  <i_i_glide_posenum>  (363) 
8

>  <r_i_glide_eff_state_penalty>  (363) 
0

>  <ligand_id>  (363) 
103

>  <original_smiles>  (363) 
COC1CCC2(O)C3(C)C=C4C5CC(O)C6(C(C)CC7OC(=O)CC8OC7(C)C(C)(O)C8O5)C4(C)CC(O)C4OC3OC2(C1)C46C

>  <smiles>  (363) 
[H]OC1([H])C([H])([H])C2(C([H])([H])[H])C3=C([H])C4(C([H])([H])[H])C5([H])OC1([H])C(C([H])([H])[H])(C1(O5)C([H])([H])C([H])(OC([H])([H])[H])C([H])([H])C([H])([H])C14O[H])C21C([H])(O[H])C([H])([H])C3([H])OC2([H])C3([H])OC(C([H])([H])[H])(C([H])(OC(=O)C3([H])[H])C([H])([H])C1([H])C([H])([H])[H])C2(O[H])C([H])([H])[H]

$$$$
106:0:0
     RDKit          3D

 48 51  0  0  1  0  0  0  0  0999 V2000
    5.1379   -8.8515    2.9510 C   0  0  0  0  0  0  0  0  0  0  0  0
    5.0496   -7.3093    2.9015 C   0  0  1  0  0  0  0  0  0  0  0  0
    6.2751   -6.7790    2.1379 C   0  0  0  0  0  0  0  0  0  0  0  0
    6.1676   -5.3125    1.7045 C   0  0  1  0  0  0  0  0  0  0  0  0
    7.4199   -5.0122    1.1257 O   0  0  0  0  0  0  0  0  0  0  0  0
    4.9587   -5.1290    0.7408 C   0  0  1  0  0  0  0  0  0  0  0  0
    3.6812   -5.4592    1.5615 C   0  0  1  0  0  0  0  0  0  0  0  0
    2.4083   -5.3716    0.6946 C   0  0  0  0  0  0  0  0  0  0  0  0
    2.4152   -4.2557   -0.3195 C   0  0  0  0  0  0  0  0  0  0  0  0
    3.4776   -3.5032   -0.6354 C   0  0  0  0  0  0  0  0  0  0  0  0
    3.3092   -2.3628   -1.6389 C   0  0  0  0  0  0  0  0  0  0  0  0
    4.3986   -2.3680   -2.7006 C   0  0  0  0  0  0  0  0  0  0  0  0
    4.1704   -2.1711   -3.8925 O   0  0  0  0  0  0  0  0  0  0  0  0
    5.8099   -2.5508   -2.1768 C   0  0  0  0  0  0  0  0  0  0  0  0
    5.8819   -3.7440   -1.2182 C   0  0  0  0  0  0  0  0  0  0  0  0
    4.8744   -3.7393   -0.0308 C   0  0  2  0  0  0  0  0  0  0  0  0
    5.1718   -2.5578    0.9164 C   0  0  0  0  0  0  0  0  0  0  0  0
    3.7017   -6.8553    2.2806 C   0  0  2  0  0  0  0  0  0  0  0  0
    2.7236   -6.8667    3.4843 C   0  0  0  0  0  0  0  0  0  0  0  0
    3.5294   -6.4532    4.7211 C   0  0  0  0  0  0  0  0  0  0  0  0
    4.9552   -6.8023    4.3450 C   0  0  0  0  0  0  0  0  0  0  0  0
    5.9081   -6.7182    5.1171 O   0  0  0  0  0  0  0  0  0  0  0  0
    5.0521   -9.2816    1.9529 H   0  0  0  0  0  0  0  0  0  0  0  0
    4.3472   -9.2905    3.5601 H   0  0  0  0  0  0  0  0  0  0  0  0
    6.0891   -9.1879    3.3670 H   0  0  0  0  0  0  0  0  0  0  0  0
    7.1656   -6.9045    2.7531 H   0  0  0  0  0  0  0  0  0  0  0  0
    6.4481   -7.3951    1.2552 H   0  0  0  0  0  0  0  0  0  0  0  0
    6.0482   -4.6787    2.5856 H   0  0  0  0  0  0  0  0  0  0  0  0
    8.0850   -5.1022    1.7964 H   0  0  0  0  0  0  0  0  0  0  0  0
    5.0403   -5.9028   -0.0225 H   0  0  0  0  0  0  0  0  0  0  0  0
    3.6129   -4.6861    2.3302 H   0  0  0  0  0  0  0  0  0  0  0  0
    2.2488   -6.2897    0.1329 H   0  0  0  0  0  0  0  0  0  0  0  0
    1.5439   -5.2353    1.3440 H   0  0  0  0  0  0  0  0  0  0  0  0
    1.4741   -4.0602   -0.8028 H   0  0  0  0  0  0  0  0  0  0  0  0
    2.3340   -2.4183   -2.1217 H   0  0  0  0  0  0  0  0  0  0  0  0
    3.3430   -1.4133   -1.1108 H   0  0  0  0  0  0  0  0  0  0  0  0
    6.4903   -2.6940   -3.0164 H   0  0  0  0  0  0  0  0  0  0  0  0
    6.1072   -1.6337   -1.6725 H   0  0  0  0  0  0  0  0  0  0  0  0
    5.7021   -4.6391   -1.8141 H   0  0  0  0  0  0  0  0  0  0  0  0
    6.9117   -3.8017   -0.8766 H   0  0  0  0  0  0  0  0  0  0  0  0
    6.1895   -2.5941    1.2994 H   0  0  0  0  0  0  0  0  0  0  0  0
    4.4817   -2.5633    1.7588 H   0  0  0  0  0  0  0  0  0  0  0  0
    5.0536   -1.6007    0.4098 H   0  0  0  0  0  0  0  0  0  0  0  0
    3.3957   -7.6135    1.5563 H   0  0  0  0  0  0  0  0  0  0  0  0
    1.8557   -6.2255    3.3472 H   0  0  0  0  0  0  0  0  0  0  0  0
    2.3444   -7.8784    3.6353 H   0  0  0  0  0  0  0  0  0  0  0  0
    3.4661   -5.3820    4.9076 H   0  0  0  0  0  0  0  0  0  0  0  0
    3.2117   -6.9764    5.6226 H   0  0  0  0  0  0  0  0  0  0  0  0
  2  1  1  1
  1 23  1  0
  1 24  1  0
  1 25  1  0
  2 18  1  0
  2 21  1  0
  2  3  1  0
  3  4  1  0
  3 26  1  0
  3 27  1  0
  4  5  1  0
  4  6  1  0
  4 28  1  1
  5 29  1  0
  6 16  1  0
  6  7  1  0
  6 30  1  6
  7  8  1  0
  7 18  1  0
  7 31  1  1
  8  9  1  0
  8 32  1  0
  8 33  1  0
  9 10  2  0
  9 34  1  0
 10 16  1  0
 10 11  1  0
 11 12  1  0
 11 35  1  0
 11 36  1  0
 12 13  2  0
 12 14  1  0
 14 15  1  0
 14 37  1  0
 14 38  1  0
 15 16  1  0
 15 39  1  0
 15 40  1  0
 16 17  1  1
 17 41  1  0
 17 42  1  0
 17 43  1  0
 18 19  1  0
 18 44  1  6
 19 20  1  0
 19 45  1  0
 19 46  1  0
 20 21  1  0
 20 47  1  0
 20 48  1  0
 21 22  2  0
M  END
>  <i_m_ct_stereo_status>  (364) 
1

>  <s_m_source_file>  (364) 
/var/tmp/pbs.5076255.sched01/tmpbrgkg_oh/138myny07gr.sdf

>  <i_m_source_file_index>  (364) 
25

>  <i_lp_mmshare_version>  (364) 
48012

>  <i_f3d_flags>  (364) 
0

>  <s_epik_input>  (364) 
Tz1DMVtDSDJdW0NIMl1bQ0BIXShbQ0BdMTJbQ0gzXSlbQ0BIXTNbQ0BIXShbQ0BASF0oW0NIMl0yKVtPSF0pW0NAXTQoW0NIM10pQyg9W0NIXVtDSDJdMylbQ0gyXUMoPU8pW0NIMl1bQ0gyXTQ=

>  <s_epik_cmdline>  (364) 
J2VwaWtfcHl0aG9uJywgJy1waHQnLCAnMi4wJywgJy1waCcsICc3LjAnLCAnLXRuJywgJzgnLCAnLW1hJywgJzIwMCcsICctaW1hZScsICc8aW5maWxlLm1hZT4nLCAnLW9tYWUnLCAnPG91dGZpbGUubWFlPic=

>  <r_lp_tautomer_probability>  (364) 
1

>  <r_epik_Ionization_Penalty>  (364) 
4.3485e-07

>  <r_epik_Ionization_Penalty_Charging>  (364) 
0

>  <r_epik_Ionization_Penalty_Neutral>  (364) 
4.3485e-07

>  <r_epik_State_Penalty>  (364) 
-0

>  <r_epik_Charging_Adjusted_Penalty>  (364) 
0

>  <i_epik_Tot_Q>  (364) 
0

>  <i_epik_Tot_abs_Q>  (364) 
0

>  <s_lp_Force_Field>  (364) 
OPLS3e

>  <r_lp_Energy>  (364) 
30.3944

>  <b_lp_Chiralities_Consistent>  (364) 
1

>  <s_lp_Variant>  (364) 
106:0-1

>  <s_i_glide_gridfile>  (364) 
pfpi4k_grid

>  <i_i_glide_lignum>  (364) 
25

>  <i_i_glide_rotatable_bonds>  (364) 
1

>  <r_i_docking_score>  (364) 
-3.49763

>  <r_i_glide_ligand_efficiency>  (364) 
-0.158983

>  <r_i_glide_ligand_efficiency_sa>  (364) 
-0.445478

>  <r_i_glide_ligand_efficiency_ln>  (364) 
-0.854949

>  <r_i_glide_gscore>  (364) 
-3.49763

>  <r_i_glide_lipo>  (364) 
-0.382666

>  <r_i_glide_hbond>  (364) 
-0.138553

>  <r_i_glide_metal>  (364) 
-0

>  <r_i_glide_rewards>  (364) 
-1.52776

>  <r_i_glide_evdw>  (364) 
-22.2023

>  <r_i_glide_ecoul>  (364) 
-2.2569

>  <r_i_glide_erotb>  (364) 
0

>  <r_i_glide_esite>  (364) 
0

>  <r_i_glide_emodel>  (364) 
-29.6526

>  <r_i_glide_energy>  (364) 
-24.4592

>  <r_i_glide_einternal>  (364) 
0.347021

>  <r_i_glide_intrahb_reward>  (364) 
-0

>  <i_i_glide_confnum>  (364) 
1

>  <i_i_glide_posenum>  (364) 
24

>  <r_i_glide_eff_state_penalty>  (364) 
0

>  <ligand_id>  (364) 
106

>  <original_smiles>  (364) 
CC12CC(O)C3C(CC=C4CC(=O)CCC43C)C1CCC2=O

>  <smiles>  (364) 
[H]OC1([H])C([H])([H])C2(C([H])([H])[H])C(=O)C([H])([H])C([H])([H])C2([H])C2([H])C([H])([H])C([H])=C3C([H])([H])C(=O)C([H])([H])C([H])([H])C3(C([H])([H])[H])C12[H]

$$$$
106:0:1
     RDKit          3D

 48 51  0  0  1  0  0  0  0  0999 V2000
    7.4107   -8.3748    2.4980 C   0  0  0  0  0  0  0  0  0  0  0  0
    6.9388   -6.9067    2.5043 C   0  0  1  0  0  0  0  0  0  0  0  0
    7.7778   -6.1258    1.4753 C   0  0  0  0  0  0  0  0  0  0  0  0
    7.2020   -4.7543    1.1144 C   0  0  1  0  0  0  0  0  0  0  0  0
    8.1612   -4.1605    0.2664 O   0  0  0  0  0  0  0  0  0  0  0  0
    5.7945   -4.9091    0.4737 C   0  0  1  0  0  0  0  0  0  0  0  0
    4.8704   -5.5070    1.5739 C   0  0  1  0  0  0  0  0  0  0  0  0
    3.4472   -5.7732    1.0383 C   0  0  0  0  0  0  0  0  0  0  0  0
    2.9389   -4.7244    0.0839 C   0  0  0  0  0  0  0  0  0  0  0  0
    3.6845   -3.7580   -0.4716 C   0  0  0  0  0  0  0  0  0  0  0  0
    3.0101   -2.7271   -1.3728 C   0  0  0  0  0  0  0  0  0  0  0  0
    3.7768   -2.5035   -2.6645 C   0  0  0  0  0  0  0  0  0  0  0  0
    3.2305   -2.4234   -3.7637 O   0  0  0  0  0  0  0  0  0  0  0  0
    5.2644   -2.3026   -2.5024 C   0  0  0  0  0  0  0  0  0  0  0  0
    5.8685   -3.4100   -1.6318 C   0  0  0  0  0  0  0  0  0  0  0  0
    5.1971   -3.6157   -0.2326 C   0  0  2  0  0  0  0  0  0  0  0  0
    5.4069   -2.3597    0.6454 C   0  0  0  0  0  0  0  0  0  0  0  0
    5.4121   -6.8237    2.2340 C   0  0  2  0  0  0  0  0  0  0  0  0
    4.7823   -7.0316    3.6354 C   0  0  0  0  0  0  0  0  0  0  0  0
    5.7308   -6.3842    4.6523 C   0  0  0  0  0  0  0  0  0  0  0  0
    7.0675   -6.3870    3.9385 C   0  0  0  0  0  0  0  0  0  0  0  0
    8.1259   -6.0587    4.4694 O   0  0  0  0  0  0  0  0  0  0  0  0
    7.1993   -8.8521    1.5407 H   0  0  0  0  0  0  0  0  0  0  0  0
    6.9201   -8.9708    3.2693 H   0  0  0  0  0  0  0  0  0  0  0  0
    8.4861   -8.4473    2.6676 H   0  0  0  0  0  0  0  0  0  0  0  0
    8.7930   -6.0003    1.8536 H   0  0  0  0  0  0  0  0  0  0  0  0
    7.8842   -6.7132    0.5636 H   0  0  0  0  0  0  0  0  0  0  0  0
    7.1370   -4.1391    2.0123 H   0  0  0  0  0  0  0  0  0  0  0  0
    7.8669   -3.2828    0.0707 H   0  0  0  0  0  0  0  0  0  0  0  0
    5.8742   -5.6711   -0.3015 H   0  0  0  0  0  0  0  0  0  0  0  0
    4.7968   -4.7443    2.3528 H   0  0  0  0  0  0  0  0  0  0  0  0
    3.3967   -6.7301    0.5149 H   0  0  0  0  0  0  0  0  0  0  0  0
    2.7450   -5.8282    1.8720 H   0  0  0  0  0  0  0  0  0  0  0  0
    1.8879   -4.7835   -0.1435 H   0  0  0  0  0  0  0  0  0  0  0  0
    1.9944   -3.0359   -1.6138 H   0  0  0  0  0  0  0  0  0  0  0  0
    2.9431   -1.7780   -0.8498 H   0  0  0  0  0  0  0  0  0  0  0  0
    5.7219   -2.3160   -3.4902 H   0  0  0  0  0  0  0  0  0  0  0  0
    5.4378   -1.3188   -2.0690 H   0  0  0  0  0  0  0  0  0  0  0  0
    5.7890   -4.3296   -2.2081 H   0  0  0  0  0  0  0  0  0  0  0  0
    6.9305   -3.1973   -1.5606 H   0  0  0  0  0  0  0  0  0  0  0  0
    6.4584   -2.1167    0.7807 H   0  0  0  0  0  0  0  0  0  0  0  0
    4.9590   -2.4995    1.6295 H   0  0  0  0  0  0  0  0  0  0  0  0
    4.9351   -1.4807    0.2052 H   0  0  0  0  0  0  0  0  0  0  0  0
    5.1379   -7.6611    1.5879 H   0  0  0  0  0  0  0  0  0  0  0  0
    3.7744   -6.6300    3.7247 H   0  0  0  0  0  0  0  0  0  0  0  0
    4.7123   -8.0988    3.8488 H   0  0  0  0  0  0  0  0  0  0  0  0
    5.4490   -5.3564    4.8703 H   0  0  0  0  0  0  0  0  0  0  0  0
    5.7758   -6.9355    5.5905 H   0  0  0  0  0  0  0  0  0  0  0  0
  2  1  1  1
  1 23  1  0
  1 24  1  0
  1 25  1  0
  2 18  1  0
  2 21  1  0
  2  3  1  0
  3  4  1  0
  3 26  1  0
  3 27  1  0
  4  5  1  0
  4  6  1  0
  4 28  1  1
  5 29  1  0
  6 16  1  0
  6  7  1  0
  6 30  1  6
  7  8  1  0
  7 18  1  0
  7 31  1  1
  8  9  1  0
  8 32  1  0
  8 33  1  0
  9 10  2  0
  9 34  1  0
 10 16  1  0
 10 11  1  0
 11 12  1  0
 11 35  1  0
 11 36  1  0
 12 13  2  0
 12 14  1  0
 14 15  1  0
 14 37  1  0
 14 38  1  0
 15 16  1  0
 15 39  1  0
 15 40  1  0
 16 17  1  1
 17 41  1  0
 17 42  1  0
 17 43  1  0
 18 19  1  0
 18 44  1  6
 19 20  1  0
 19 45  1  0
 19 46  1  0
 20 21  1  0
 20 47  1  0
 20 48  1  0
 21 22  2  0
M  END
>  <i_m_ct_stereo_status>  (365) 
1

>  <s_m_source_file>  (365) 
/var/tmp/pbs.5076255.sched01/tmpbrgkg_oh/138myny07gr.sdf

>  <i_m_source_file_index>  (365) 
25

>  <i_lp_mmshare_version>  (365) 
48012

>  <i_f3d_flags>  (365) 
0

>  <s_epik_input>  (365) 
Tz1DMVtDSDJdW0NIMl1bQ0BIXShbQ0BdMTJbQ0gzXSlbQ0BIXTNbQ0BIXShbQ0BASF0oW0NIMl0yKVtPSF0pW0NAXTQoW0NIM10pQyg9W0NIXVtDSDJdMylbQ0gyXUMoPU8pW0NIMl1bQ0gyXTQ=

>  <s_epik_cmdline>  (365) 
J2VwaWtfcHl0aG9uJywgJy1waHQnLCAnMi4wJywgJy1waCcsICc3LjAnLCAnLXRuJywgJzgnLCAnLW1hJywgJzIwMCcsICctaW1hZScsICc8aW5maWxlLm1hZT4nLCAnLW9tYWUnLCAnPG91dGZpbGUubWFlPic=

>  <r_lp_tautomer_probability>  (365) 
1

>  <r_epik_Ionization_Penalty>  (365) 
4.3485e-07

>  <r_epik_Ionization_Penalty_Charging>  (365) 
0

>  <r_epik_Ionization_Penalty_Neutral>  (365) 
4.3485e-07

>  <r_epik_State_Penalty>  (365) 
-0

>  <r_epik_Charging_Adjusted_Penalty>  (365) 
0

>  <i_epik_Tot_Q>  (365) 
0

>  <i_epik_Tot_abs_Q>  (365) 
0

>  <s_lp_Force_Field>  (365) 
OPLS3e

>  <r_lp_Energy>  (365) 
30.3944

>  <b_lp_Chiralities_Consistent>  (365) 
1

>  <s_lp_Variant>  (365) 
106:0-1

>  <s_i_glide_gridfile>  (365) 
pfpi4k_grid

>  <i_i_glide_lignum>  (365) 
25

>  <i_i_glide_rotatable_bonds>  (365) 
1

>  <r_i_docking_score>  (365) 
-3.44388

>  <r_i_glide_ligand_efficiency>  (365) 
-0.15654

>  <r_i_glide_ligand_efficiency_sa>  (365) 
-0.438631

>  <r_i_glide_ligand_efficiency_ln>  (365) 
-0.841809

>  <r_i_glide_gscore>  (365) 
-3.44388

>  <r_i_glide_lipo>  (365) 
-0.668872

>  <r_i_glide_hbond>  (365) 
0

>  <r_i_glide_metal>  (365) 
-0

>  <r_i_glide_rewards>  (365) 
-1.37214

>  <r_i_glide_evdw>  (365) 
-26.0377

>  <r_i_glide_ecoul>  (365) 
-0.673238

>  <r_i_glide_erotb>  (365) 
0

>  <r_i_glide_esite>  (365) 
0

>  <r_i_glide_emodel>  (365) 
-31.8224

>  <r_i_glide_energy>  (365) 
-26.7109

>  <r_i_glide_einternal>  (365) 
0.322488

>  <r_i_glide_intrahb_reward>  (365) 
-0

>  <i_i_glide_confnum>  (365) 
2

>  <i_i_glide_posenum>  (365) 
8

>  <r_i_glide_eff_state_penalty>  (365) 
0

>  <ligand_id>  (365) 
106

>  <original_smiles>  (365) 
CC12CC(O)C3C(CC=C4CC(=O)CCC43C)C1CCC2=O

>  <smiles>  (365) 
[H]OC1([H])C([H])([H])C2(C([H])([H])[H])C(=O)C([H])([H])C([H])([H])C2([H])C2([H])C([H])([H])C([H])=C3C([H])([H])C(=O)C([H])([H])C([H])([H])C3(C([H])([H])[H])C12[H]

$$$$
106:0:2
     RDKit          3D

 48 51  0  0  1  0  0  0  0  0999 V2000
    7.4440   -8.2682    2.5537 C   0  0  0  0  0  0  0  0  0  0  0  0
    6.9632   -6.8030    2.5413 C   0  0  1  0  0  0  0  0  0  0  0  0
    7.7993   -6.0305    1.5023 C   0  0  0  0  0  0  0  0  0  0  0  0
    7.2198   -4.6644    1.1197 C   0  0  1  0  0  0  0  0  0  0  0  0
    8.1851   -4.0515    0.2880 O   0  0  0  0  0  0  0  0  0  0  0  0
    5.8111   -4.8394    0.4837 C   0  0  1  0  0  0  0  0  0  0  0  0
    4.8893   -5.4305    1.5926 C   0  0  1  0  0  0  0  0  0  0  0  0
    3.4669   -5.7154    1.0636 C   0  0  0  0  0  0  0  0  0  0  0  0
    2.9496   -4.6825    0.0958 C   0  0  0  0  0  0  0  0  0  0  0  0
    3.6877   -3.7148   -0.4691 C   0  0  0  0  0  0  0  0  0  0  0  0
    3.0082   -2.7004   -1.3835 C   0  0  0  0  0  0  0  0  0  0  0  0
    3.7730   -2.4838   -2.6757 C   0  0  0  0  0  0  0  0  0  0  0  0
    3.2267   -2.4220   -3.7764 O   0  0  0  0  0  0  0  0  0  0  0  0
    5.2594   -2.2707   -2.5157 C   0  0  0  0  0  0  0  0  0  0  0  0
    5.8728   -3.3626   -1.6331 C   0  0  0  0  0  0  0  0  0  0  0  0
    5.2003   -3.5592   -0.2338 C   0  0  2  0  0  0  0  0  0  0  0  0
    5.3986   -2.2932    0.6313 C   0  0  0  0  0  0  0  0  0  0  0  0
    5.4371   -6.7351    2.2723 C   0  0  2  0  0  0  0  0  0  0  0  0
    4.8078   -6.9290    3.6769 C   0  0  0  0  0  0  0  0  0  0  0  0
    5.7512   -6.2633    4.6851 C   0  0  0  0  0  0  0  0  0  0  0  0
    7.0886   -6.2662    3.9713 C   0  0  0  0  0  0  0  0  0  0  0  0
    8.1449   -5.9270    4.5015 O   0  0  0  0  0  0  0  0  0  0  0  0
    7.2381   -8.7564    1.6015 H   0  0  0  0  0  0  0  0  0  0  0  0
    6.9609   -8.8598    3.3320 H   0  0  0  0  0  0  0  0  0  0  0  0
    8.5206   -8.3304    2.7213 H   0  0  0  0  0  0  0  0  0  0  0  0
    8.8105   -5.8962    1.8839 H   0  0  0  0  0  0  0  0  0  0  0  0
    7.9106   -6.6355    0.6029 H   0  0  0  0  0  0  0  0  0  0  0  0
    7.1407   -4.0486    2.0129 H   0  0  0  0  0  0  0  0  0  0  0  0
    8.1883   -4.4960   -0.5442 H   0  0  0  0  0  0  0  0  0  0  0  0
    5.8888   -5.6117   -0.2819 H   0  0  0  0  0  0  0  0  0  0  0  0
    4.8089   -4.6590    2.3628 H   0  0  0  0  0  0  0  0  0  0  0  0
    3.4217   -6.6792    0.5526 H   0  0  0  0  0  0  0  0  0  0  0  0
    2.7649   -5.7602    1.8975 H   0  0  0  0  0  0  0  0  0  0  0  0
    1.9000   -4.7530   -0.1345 H   0  0  0  0  0  0  0  0  0  0  0  0
    1.9941   -3.0172   -1.6192 H   0  0  0  0  0  0  0  0  0  0  0  0
    2.9352   -1.7471   -0.8686 H   0  0  0  0  0  0  0  0  0  0  0  0
    5.7168   -2.2925   -3.5029 H   0  0  0  0  0  0  0  0  0  0  0  0
    5.4234   -1.2823   -2.0890 H   0  0  0  0  0  0  0  0  0  0  0  0
    5.8028   -4.2893   -2.1991 H   0  0  0  0  0  0  0  0  0  0  0  0
    6.9317   -3.1386   -1.5529 H   0  0  0  0  0  0  0  0  0  0  0  0
    6.4505   -2.0484    0.7613 H   0  0  0  0  0  0  0  0  0  0  0  0
    4.9525   -2.4240    1.6167 H   0  0  0  0  0  0  0  0  0  0  0  0
    4.9244   -1.4204    0.1823 H   0  0  0  0  0  0  0  0  0  0  0  0
    5.1687   -7.5827    1.6379 H   0  0  0  0  0  0  0  0  0  0  0  0
    3.7980   -6.5327    3.7614 H   0  0  0  0  0  0  0  0  0  0  0  0
    4.7450   -7.9940    3.9049 H   0  0  0  0  0  0  0  0  0  0  0  0
    5.4643   -5.2336    4.8917 H   0  0  0  0  0  0  0  0  0  0  0  0
    5.8001   -6.8019    5.6308 H   0  0  0  0  0  0  0  0  0  0  0  0
  2  1  1  1
  1 23  1  0
  1 24  1  0
  1 25  1  0
  2 18  1  0
  2 21  1  0
  2  3  1  0
  3  4  1  0
  3 26  1  0
  3 27  1  0
  4  5  1  0
  4  6  1  0
  4 28  1  1
  5 29  1  0
  6 16  1  0
  6  7  1  0
  6 30  1  6
  7  8  1  0
  7 18  1  0
  7 31  1  1
  8  9  1  0
  8 32  1  0
  8 33  1  0
  9 10  2  0
  9 34  1  0
 10 16  1  0
 10 11  1  0
 11 12  1  0
 11 35  1  0
 11 36  1  0
 12 13  2  0
 12 14  1  0
 14 15  1  0
 14 37  1  0
 14 38  1  0
 15 16  1  0
 15 39  1  0
 15 40  1  0
 16 17  1  1
 17 41  1  0
 17 42  1  0
 17 43  1  0
 18 19  1  0
 18 44  1  6
 19 20  1  0
 19 45  1  0
 19 46  1  0
 20 21  1  0
 20 47  1  0
 20 48  1  0
 21 22  2  0
M  END
>  <i_m_ct_stereo_status>  (366) 
1

>  <s_m_source_file>  (366) 
/var/tmp/pbs.5076255.sched01/tmpbrgkg_oh/138myny07gr.sdf

>  <i_m_source_file_index>  (366) 
25

>  <i_lp_mmshare_version>  (366) 
48012

>  <i_f3d_flags>  (366) 
0

>  <s_epik_input>  (366) 
Tz1DMVtDSDJdW0NIMl1bQ0BIXShbQ0BdMTJbQ0gzXSlbQ0BIXTNbQ0BIXShbQ0BASF0oW0NIMl0yKVtPSF0pW0NAXTQoW0NIM10pQyg9W0NIXVtDSDJdMylbQ0gyXUMoPU8pW0NIMl1bQ0gyXTQ=

>  <s_epik_cmdline>  (366) 
J2VwaWtfcHl0aG9uJywgJy1waHQnLCAnMi4wJywgJy1waCcsICc3LjAnLCAnLXRuJywgJzgnLCAnLW1hJywgJzIwMCcsICctaW1hZScsICc8aW5maWxlLm1hZT4nLCAnLW9tYWUnLCAnPG91dGZpbGUubWFlPic=

>  <r_lp_tautomer_probability>  (366) 
1

>  <r_epik_Ionization_Penalty>  (366) 
4.3485e-07

>  <r_epik_Ionization_Penalty_Charging>  (366) 
0

>  <r_epik_Ionization_Penalty_Neutral>  (366) 
4.3485e-07

>  <r_epik_State_Penalty>  (366) 
-0

>  <r_epik_Charging_Adjusted_Penalty>  (366) 
0

>  <i_epik_Tot_Q>  (366) 
0

>  <i_epik_Tot_abs_Q>  (366) 
0

>  <s_lp_Force_Field>  (366) 
OPLS3e

>  <r_lp_Energy>  (366) 
30.3944

>  <b_lp_Chiralities_Consistent>  (366) 
1

>  <s_lp_Variant>  (366) 
106:0-1

>  <s_i_glide_gridfile>  (366) 
pfpi4k_grid

>  <i_i_glide_lignum>  (366) 
25

>  <i_i_glide_rotatable_bonds>  (366) 
1

>  <r_i_docking_score>  (366) 
-3.35145

>  <r_i_glide_ligand_efficiency>  (366) 
-0.152339

>  <r_i_glide_ligand_efficiency_sa>  (366) 
-0.426859

>  <r_i_glide_ligand_efficiency_ln>  (366) 
-0.819218

>  <r_i_glide_gscore>  (366) 
-3.35145

>  <r_i_glide_lipo>  (366) 
-0.656739

>  <r_i_glide_hbond>  (366) 
0

>  <r_i_glide_metal>  (366) 
-0

>  <r_i_glide_rewards>  (366) 
-1.37849

>  <r_i_glide_evdw>  (366) 
-26.1343

>  <r_i_glide_ecoul>  (366) 
-0.0633867

>  <r_i_glide_erotb>  (366) 
0

>  <r_i_glide_esite>  (366) 
0

>  <r_i_glide_emodel>  (366) 
-31.2324

>  <r_i_glide_energy>  (366) 
-26.1977

>  <r_i_glide_einternal>  (366) 
0.0793332

>  <r_i_glide_intrahb_reward>  (366) 
-0

>  <i_i_glide_confnum>  (366) 
1

>  <i_i_glide_posenum>  (366) 
1

>  <r_i_glide_eff_state_penalty>  (366) 
0

>  <ligand_id>  (366) 
106

>  <original_smiles>  (366) 
CC12CC(O)C3C(CC=C4CC(=O)CCC43C)C1CCC2=O

>  <smiles>  (366) 
[H]OC1([H])C([H])([H])C2(C([H])([H])[H])C(=O)C([H])([H])C([H])([H])C2([H])C2([H])C([H])([H])C([H])=C3C([H])([H])C(=O)C([H])([H])C([H])([H])C3(C([H])([H])[H])C12[H]

$$$$
107:0:0
     RDKit          3D

 54 59  0  0  1  0  0  0  0  0999 V2000
    0.6451    0.9683    1.7719 C   0  0  0  0  0  0  0  0  0  0  0  0
    0.8279    1.3098    3.2769 C   0  0  2  0  0  0  0  0  0  0  0  0
    1.2627    2.8461    3.5167 C   0  0  0  0  0  0  0  0  0  0  0  0
    0.4365    3.8848    4.5431 C   0  0  1  0  0  0  0  0  0  0  0  0
    0.7497    5.1567    3.9751 O   0  0  0  0  0  0  0  0  0  0  0  0
   -1.2269    3.9138    4.6279 C   0  0  2  0  0  0  0  0  0  0  0  0
   -2.2630    3.0217    5.5716 C   0  0  0  0  0  0  0  0  0  0  0  0
   -1.8996    1.5795    6.2110 C   0  0  1  0  0  0  0  0  0  0  0  0
   -1.6497   -0.1121    5.5202 C   0  0  0  0  0  0  0  0  0  0  0  0
   -0.2682   -0.9161    4.5764 C   0  0  0  0  0  0  0  0  0  0  0  0
    1.1399   -0.0351    3.9858 C   0  0  0  0  0  0  0  0  0  0  0  0
    2.2758    0.2612    4.6947 C   0  0  0  0  0  0  0  0  0  0  0  0
    2.0376    1.2324    5.9054 C   0  0  1  0  0  0  0  0  0  0  0  0
    2.3002    2.7677    6.0659 C   0  0  0  0  0  0  0  0  0  0  0  0
    1.0328    3.7699    5.9779 C   0  0  1  0  0  0  0  0  0  0  0  0
    1.5865    5.0088    6.3611 O   0  0  0  0  0  0  0  0  0  0  0  0
   -0.0657    3.5600    6.8966 O   0  0  0  0  0  0  0  0  0  0  0  0
   -0.8866    2.3675    7.1808 C   0  0  2  0  0  0  0  0  0  0  0  0
    0.1099    1.4846    7.5330 C   0  0  1  0  0  0  0  0  0  0  0  0
   -0.5856    0.6440    8.4902 O   0  0  0  0  0  0  0  0  0  0  0  0
    0.5600    1.1335    6.0524 C   0  0  2  0  0  0  0  0  0  0  0  0
    0.7928   -0.1623    6.7124 O   0  0  0  0  0  0  0  0  0  0  0  0
   -0.1742    1.5300    4.2439 C   0  0  1  0  0  0  0  0  0  0  0  0
   -1.4946    2.0865    3.3699 C   0  0  0  0  0  0  0  0  0  0  0  0
   -1.6437    3.5717    3.2462 C   0  0  1  0  0  0  0  0  0  0  0  0
   -2.9532    3.9761    2.8880 O   0  0  0  0  0  0  0  0  0  0  0  0
    0.2915    1.7997    1.1615 H   0  0  0  0  0  0  0  0  0  0  0  0
   -0.0415    0.1358    1.6273 H   0  0  0  0  0  0  0  0  0  0  0  0
    1.6003    0.6591    1.3483 H   0  0  0  0  0  0  0  0  0  0  0  0
    2.3431    2.9460    3.5585 H   0  0  0  0  0  0  0  0  0  0  0  0
    1.1141    3.2953    2.5362 H   0  0  0  0  0  0  0  0  0  0  0  0
    0.6051    5.1287    3.0400 H   0  0  0  0  0  0  0  0  0  0  0  0
   -1.5041    4.9463    4.8177 H   0  0  0  0  0  0  0  0  0  0  0  0
   -2.5586    3.7024    6.3735 H   0  0  0  0  0  0  0  0  0  0  0  0
   -3.2464    2.9448    5.1069 H   0  0  0  0  0  0  0  0  0  0  0  0
   -2.7658    1.3786    6.8404 H   0  0  0  0  0  0  0  0  0  0  0  0
   -1.7807   -0.7728    6.3747 H   0  0  0  0  0  0  0  0  0  0  0  0
   -2.5478   -0.3084    4.9332 H   0  0  0  0  0  0  0  0  0  0  0  0
    0.0682   -1.8150    5.1008 H   0  0  0  0  0  0  0  0  0  0  0  0
   -0.7231   -1.3309    3.6844 H   0  0  0  0  0  0  0  0  0  0  0  0
    2.7173   -0.6143    5.1443 H   0  0  0  0  0  0  0  0  0  0  0  0
    2.6822    0.8357    6.7057 H   0  0  0  0  0  0  0  0  0  0  0  0
    2.6991    2.8967    7.0745 H   0  0  0  0  0  0  0  0  0  0  0  0
    3.1269    3.1107    5.4433 H   0  0  0  0  0  0  0  0  0  0  0  0
    1.9807    4.8896    7.2085 H   0  0  0  0  0  0  0  0  0  0  0  0
   -1.4593    2.6961    8.0545 H   0  0  0  0  0  0  0  0  0  0  0  0
    0.9054    1.9526    8.1157 H   0  0  0  0  0  0  0  0  0  0  0  0
   -0.6237    1.1198    9.3085 H   0  0  0  0  0  0  0  0  0  0  0  0
    1.3211   -0.6953    6.1387 H   0  0  0  0  0  0  0  0  0  0  0  0
   -0.8382    0.8827    3.7259 H   0  0  0  0  0  0  0  0  0  0  0  0
   -1.5353    1.8134    2.3054 H   0  0  0  0  0  0  0  0  0  0  0  0
   -2.4741    1.6617    3.6478 H   0  0  0  0  0  0  0  0  0  0  0  0
   -0.9926    3.9835    2.4824 H   0  0  0  0  0  0  0  0  0  0  0  0
   -3.1577    3.6067    2.0416 H   0  0  0  0  0  0  0  0  0  0  0  0
  2  1  1  6
  1 27  1  0
  1 28  1  0
  1 29  1  0
  2 11  1  0
  2 23  1  0
  2  3  1  0
  3  4  1  0
  3 30  1  0
  3 31  1  0
  4 15  1  0
  4  5  1  6
  4  6  1  0
  5 32  1  0
  6 25  1  0
  6  7  1  0
  6 33  1  1
  7  8  1  0
  7 34  1  0
  7 35  1  0
  8 18  1  0
  8  9  1  0
  8 36  1  1
  9 10  1  0
  9 37  1  0
  9 38  1  0
 10 11  1  0
 10 39  1  0
 10 40  1  0
 11 12  2  0
 12 13  1  0
 12 41  1  0
 13 21  1  0
 13 14  1  0
 13 42  1  1
 14 15  1  0
 14 43  1  0
 14 44  1  0
 15 16  1  1
 15 17  1  0
 16 45  1  0
 17 18  1  0
 18 19  1  0
 18 46  1  1
 19 20  1  0
 19 21  1  0
 19 47  1  1
 20 48  1  0
 21 22  1  1
 21 23  1  0
 22 49  1  0
 23 24  1  0
 23 50  1  6
 24 25  1  0
 24 51  1  0
 24 52  1  0
 25 26  1  0
 25 53  1  6
 26 54  1  0
M  END
>  <i_m_ct_stereo_status>  (367) 
1

>  <s_m_source_file>  (367) 
/var/tmp/pbs.5076255.sched01/tmpbrgkg_oh/138myny07gr.sdf

>  <i_m_source_file_index>  (367) 
26

>  <i_lp_mmshare_version>  (367) 
48012

>  <i_f3d_flags>  (367) 
0

>  <s_epik_input>  (367) 
W0NIM11bQ0BAXTEyQzM9W0NIXVtDSF00W0NAXTUoW09IXSlbQ0hdMltDSDJdW0NAQEhdKFtPSF0pW0NAQEhdNltDQEBdKFtDSDJdMSkoW09IXSlbQ0BAXShbQ0gyXTQpKFtPSF0pT1tDQEhdKFtDQEhdNVtPSF0pW0NAQEhdKFtDSDJdNilbQ0gyXVtDSDJdMw==

>  <s_epik_cmdline>  (367) 
J2VwaWtfcHl0aG9uJywgJy1waHQnLCAnMi4wJywgJy1waCcsICc3LjAnLCAnLXRuJywgJzgnLCAnLW1hJywgJzIwMCcsICctaW1hZScsICc8aW5maWxlLm1hZT4nLCAnLW9tYWUnLCAnPG91dGZpbGUubWFlPic=

>  <r_lp_tautomer_probability>  (367) 
1

>  <r_epik_Ionization_Penalty>  (367) 
1.47294e-06

>  <r_epik_Ionization_Penalty_Charging>  (367) 
0

>  <r_epik_Ionization_Penalty_Neutral>  (367) 
1.47294e-06

>  <r_epik_State_Penalty>  (367) 
-0

>  <r_epik_Charging_Adjusted_Penalty>  (367) 
0

>  <i_epik_Tot_Q>  (367) 
0

>  <i_epik_Tot_abs_Q>  (367) 
0

>  <s_lp_Force_Field>  (367) 
OPLS3e

>  <r_lp_Energy>  (367) 
730.657

>  <b_lp_Chiralities_Consistent>  (367) 
1

>  <s_lp_Variant>  (367) 
107:0-1

>  <s_i_glide_gridfile>  (367) 
pfpi4k_grid

>  <i_i_glide_lignum>  (367) 
26

>  <i_i_glide_rotatable_bonds>  (367) 
5

>  <r_i_docking_score>  (367) 
-3.08217

>  <r_i_glide_ligand_efficiency>  (367) 
-0.118545

>  <r_i_glide_ligand_efficiency_sa>  (367) 
-0.351189

>  <r_i_glide_ligand_efficiency_ln>  (367) 
-0.723837

>  <r_i_glide_gscore>  (367) 
-3.08217

>  <r_i_glide_lipo>  (367) 
-0.0145048

>  <r_i_glide_hbond>  (367) 
0

>  <r_i_glide_metal>  (367) 
-0

>  <r_i_glide_rewards>  (367) 
-0.924322

>  <r_i_glide_evdw>  (367) 
-23.4238

>  <r_i_glide_ecoul>  (367) 
-6.47734

>  <r_i_glide_erotb>  (367) 
0

>  <r_i_glide_esite>  (367) 
-0.000550713

>  <r_i_glide_emodel>  (367) 
-36.0772

>  <r_i_glide_energy>  (367) 
-29.9011

>  <r_i_glide_einternal>  (367) 
1.04052

>  <r_i_glide_intrahb_reward>  (367) 
-0

>  <i_i_glide_confnum>  (367) 
2

>  <i_i_glide_posenum>  (367) 
28

>  <r_i_glide_eff_state_penalty>  (367) 
0

>  <ligand_id>  (367) 
107

>  <original_smiles>  (367) 
CC12CC3(O)C4CC5CCC1=CC1CC3(O)OC5C(O)C1(O)C2CC4O

>  <smiles>  (367) 
[H]OC1([H])C([H])([H])C2([H])C3(O[H])C([H])(O[H])C4([H])OC5(O[H])C([H])([H])C3([H])C([H])=C3C([H])([H])C([H])([H])C4([H])C([H])([H])C1([H])C5(O[H])C([H])([H])C32C([H])([H])[H]

$$$$
107:0:1
     RDKit          3D

 54 59  0  0  1  0  0  0  0  0999 V2000
    0.5817    0.9462    1.8014 C   0  0  0  0  0  0  0  0  0  0  0  0
    0.7849    1.3068    3.3014 C   0  0  2  0  0  0  0  0  0  0  0  0
    1.2467    2.8377    3.5092 C   0  0  0  0  0  0  0  0  0  0  0  0
    0.4458    3.9038    4.5288 C   0  0  1  0  0  0  0  0  0  0  0  0
    0.7555    5.1750    3.9532 O   0  0  0  0  0  0  0  0  0  0  0  0
   -1.2126    3.9553    4.6309 C   0  0  2  0  0  0  0  0  0  0  0  0
   -2.2523    3.0895    5.5972 C   0  0  0  0  0  0  0  0  0  0  0  0
   -1.8995    1.6600    6.2587 C   0  0  1  0  0  0  0  0  0  0  0  0
   -1.6798   -0.0464    5.5966 C   0  0  0  0  0  0  0  0  0  0  0  0
   -0.3223   -0.8830    4.6509 C   0  0  0  0  0  0  0  0  0  0  0  0
    1.0888   -0.0298    4.0285 C   0  0  0  0  0  0  0  0  0  0  0  0
    2.2365    0.2624    4.7205 C   0  0  0  0  0  0  0  0  0  0  0  0
    2.0243    1.2569    5.9154 C   0  0  1  0  0  0  0  0  0  0  0  0
    2.3136    2.7864    6.0464 C   0  0  0  0  0  0  0  0  0  0  0  0
    1.0594    3.8031    5.9567 C   0  0  1  0  0  0  0  0  0  0  0  0
    1.6345    5.0436    6.3062 O   0  0  0  0  0  0  0  0  0  0  0  0
   -0.0358    3.6298    6.8874 O   0  0  0  0  0  0  0  0  0  0  0  0
   -0.8644    2.4543    7.2010 C   0  0  2  0  0  0  0  0  0  0  0  0
    0.1225    1.5634    7.5589 C   0  0  1  0  0  0  0  0  0  0  0  0
   -0.5790    0.7477    8.5326 O   0  0  0  0  0  0  0  0  0  0  0  0
    0.5469    1.1815    6.0788 C   0  0  2  0  0  0  0  0  0  0  0  0
    0.7742   -0.1048    6.7603 O   0  0  0  0  0  0  0  0  0  0  0  0
   -0.2033    1.5548    4.2725 C   0  0  1  0  0  0  0  0  0  0  0  0
   -1.5225    2.1144    3.4038 C   0  0  0  0  0  0  0  0  0  0  0  0
   -1.6486    3.5984    3.2573 C   0  0  1  0  0  0  0  0  0  0  0  0
   -2.9552    4.0159    2.9019 O   0  0  0  0  0  0  0  0  0  0  0  0
    0.2319    1.7715    1.1809 H   0  0  0  0  0  0  0  0  0  0  0  0
   -0.1190    0.1237    1.6793 H   0  0  0  0  0  0  0  0  0  0  0  0
    1.5269    0.6160    1.3718 H   0  0  0  0  0  0  0  0  0  0  0  0
    2.3293    2.9217    3.5347 H   0  0  0  0  0  0  0  0  0  0  0  0
    1.0930    3.2745    2.5217 H   0  0  0  0  0  0  0  0  0  0  0  0
    0.6143    5.1332    3.0167 H   0  0  0  0  0  0  0  0  0  0  0  0
   -1.4736    4.9959    4.8090 H   0  0  0  0  0  0  0  0  0  0  0  0
   -2.5333    3.7842    6.3946 H   0  0  0  0  0  0  0  0  0  0  0  0
   -3.2421    3.0050    5.1448 H   0  0  0  0  0  0  0  0  0  0  0  0
   -2.7654    1.4813    6.8994 H   0  0  0  0  0  0  0  0  0  0  0  0
   -1.8038   -0.6891    6.4655 H   0  0  0  0  0  0  0  0  0  0  0  0
   -2.5853   -0.2449    5.0207 H   0  0  0  0  0  0  0  0  0  0  0  0
    0.0062   -1.7785    5.1844 H   0  0  0  0  0  0  0  0  0  0  0  0
   -0.7993   -1.3035    3.7639 H   0  0  0  0  0  0  0  0  0  0  0  0
    2.6727   -0.6122    5.1797 H   0  0  0  0  0  0  0  0  0  0  0  0
    2.6738    0.8649    6.7160 H   0  0  0  0  0  0  0  0  0  0  0  0
    2.7185    2.9381    7.0460 H   0  0  0  0  0  0  0  0  0  0  0  0
    3.1349    3.1087    5.4074 H   0  0  0  0  0  0  0  0  0  0  0  0
    1.0317    5.7080    6.0064 H   0  0  0  0  0  0  0  0  0  0  0  0
   -1.4230    2.8029    8.0775 H   0  0  0  0  0  0  0  0  0  0  0  0
    0.9300    2.0311    8.1239 H   0  0  0  0  0  0  0  0  0  0  0  0
   -0.6219    1.2451    9.3379 H   0  0  0  0  0  0  0  0  0  0  0  0
    1.2961   -0.6528    6.1926 H   0  0  0  0  0  0  0  0  0  0  0  0
   -0.8799    0.9086    3.7729 H   0  0  0  0  0  0  0  0  0  0  0  0
   -1.5787    1.8269    2.3472 H   0  0  0  0  0  0  0  0  0  0  0  0
   -2.5051    1.7045    3.6918 H   0  0  0  0  0  0  0  0  0  0  0  0
   -1.0014    3.9880    2.4841 H   0  0  0  0  0  0  0  0  0  0  0  0
   -3.1688    3.6323    2.0642 H   0  0  0  0  0  0  0  0  0  0  0  0
  2  1  1  6
  1 27  1  0
  1 28  1  0
  1 29  1  0
  2 11  1  0
  2 23  1  0
  2  3  1  0
  3  4  1  0
  3 30  1  0
  3 31  1  0
  4 15  1  0
  4  5  1  6
  4  6  1  0
  5 32  1  0
  6 25  1  0
  6  7  1  0
  6 33  1  1
  7  8  1  0
  7 34  1  0
  7 35  1  0
  8 18  1  0
  8  9  1  0
  8 36  1  1
  9 10  1  0
  9 37  1  0
  9 38  1  0
 10 11  1  0
 10 39  1  0
 10 40  1  0
 11 12  2  0
 12 13  1  0
 12 41  1  0
 13 21  1  0
 13 14  1  0
 13 42  1  1
 14 15  1  0
 14 43  1  0
 14 44  1  0
 15 16  1  1
 15 17  1  0
 16 45  1  0
 17 18  1  0
 18 19  1  0
 18 46  1  1
 19 20  1  0
 19 21  1  0
 19 47  1  1
 20 48  1  0
 21 22  1  1
 21 23  1  0
 22 49  1  0
 23 24  1  0
 23 50  1  6
 24 25  1  0
 24 51  1  0
 24 52  1  0
 25 26  1  0
 25 53  1  6
 26 54  1  0
M  END
>  <i_m_ct_stereo_status>  (368) 
1

>  <s_m_source_file>  (368) 
/var/tmp/pbs.5076255.sched01/tmpbrgkg_oh/138myny07gr.sdf

>  <i_m_source_file_index>  (368) 
26

>  <i_lp_mmshare_version>  (368) 
48012

>  <i_f3d_flags>  (368) 
0

>  <s_epik_input>  (368) 
W0NIM11bQ0BAXTEyQzM9W0NIXVtDSF00W0NAXTUoW09IXSlbQ0hdMltDSDJdW0NAQEhdKFtPSF0pW0NAQEhdNltDQEBdKFtDSDJdMSkoW09IXSlbQ0BAXShbQ0gyXTQpKFtPSF0pT1tDQEhdKFtDQEhdNVtPSF0pW0NAQEhdKFtDSDJdNilbQ0gyXVtDSDJdMw==

>  <s_epik_cmdline>  (368) 
J2VwaWtfcHl0aG9uJywgJy1waHQnLCAnMi4wJywgJy1waCcsICc3LjAnLCAnLXRuJywgJzgnLCAnLW1hJywgJzIwMCcsICctaW1hZScsICc8aW5maWxlLm1hZT4nLCAnLW9tYWUnLCAnPG91dGZpbGUubWFlPic=

>  <r_lp_tautomer_probability>  (368) 
1

>  <r_epik_Ionization_Penalty>  (368) 
1.47294e-06

>  <r_epik_Ionization_Penalty_Charging>  (368) 
0

>  <r_epik_Ionization_Penalty_Neutral>  (368) 
1.47294e-06

>  <r_epik_State_Penalty>  (368) 
-0

>  <r_epik_Charging_Adjusted_Penalty>  (368) 
0

>  <i_epik_Tot_Q>  (368) 
0

>  <i_epik_Tot_abs_Q>  (368) 
0

>  <s_lp_Force_Field>  (368) 
OPLS3e

>  <r_lp_Energy>  (368) 
730.657

>  <b_lp_Chiralities_Consistent>  (368) 
1

>  <s_lp_Variant>  (368) 
107:0-1

>  <s_i_glide_gridfile>  (368) 
pfpi4k_grid

>  <i_i_glide_lignum>  (368) 
26

>  <i_i_glide_rotatable_bonds>  (368) 
5

>  <r_i_docking_score>  (368) 
-3.03338

>  <r_i_glide_ligand_efficiency>  (368) 
-0.116668

>  <r_i_glide_ligand_efficiency_sa>  (368) 
-0.34563

>  <r_i_glide_ligand_efficiency_ln>  (368) 
-0.712379

>  <r_i_glide_gscore>  (368) 
-3.03338

>  <r_i_glide_lipo>  (368) 
-0.0117923

>  <r_i_glide_hbond>  (368) 
0

>  <r_i_glide_metal>  (368) 
-0

>  <r_i_glide_rewards>  (368) 
-0.924322

>  <r_i_glide_evdw>  (368) 
-23.4658

>  <r_i_glide_ecoul>  (368) 
-6.15612

>  <r_i_glide_erotb>  (368) 
0

>  <r_i_glide_esite>  (368) 
-0.000553825

>  <r_i_glide_emodel>  (368) 
-35.4865

>  <r_i_glide_energy>  (368) 
-29.6219

>  <r_i_glide_einternal>  (368) 
1.10954

>  <r_i_glide_intrahb_reward>  (368) 
-0

>  <i_i_glide_confnum>  (368) 
1

>  <i_i_glide_posenum>  (368) 
31

>  <r_i_glide_eff_state_penalty>  (368) 
0

>  <ligand_id>  (368) 
107

>  <original_smiles>  (368) 
CC12CC3(O)C4CC5CCC1=CC1CC3(O)OC5C(O)C1(O)C2CC4O

>  <smiles>  (368) 
[H]OC1([H])C([H])([H])C2([H])C3(O[H])C([H])(O[H])C4([H])OC5(O[H])C([H])([H])C3([H])C([H])=C3C([H])([H])C([H])([H])C4([H])C([H])([H])C1([H])C5(O[H])C([H])([H])C32C([H])([H])[H]

$$$$
107:0:2
     RDKit          3D

 54 59  0  0  1  0  0  0  0  0999 V2000
    0.3236   -1.3542    6.5660 C   0  0  0  0  0  0  0  0  0  0  0  0
    0.6658    0.1188    6.2083 C   0  0  2  0  0  0  0  0  0  0  0  0
    2.2459    0.4326    6.3188 C   0  0  0  0  0  0  0  0  0  0  0  0
    3.1351    1.1100    5.0672 C   0  0  1  0  0  0  0  0  0  0  0  0
    4.4419    0.6222    5.3594 O   0  0  0  0  0  0  0  0  0  0  0  0
    2.9413    0.6490    3.4800 C   0  0  2  0  0  0  0  0  0  0  0  0
    1.8899    1.2293    2.3357 C   0  0  0  0  0  0  0  0  0  0  0  0
    0.5076    1.9976    2.6729 C   0  0  1  0  0  0  0  0  0  0  0  0
   -1.1207    1.4909    3.3553 C   0  0  0  0  0  0  0  0  0  0  0  0
   -1.7067    1.0712    5.0619 C   0  0  0  0  0  0  0  0  0  0  0  0
   -0.6313    0.9329    6.4505 C   0  0  0  0  0  0  0  0  0  0  0  0
   -0.1870    1.9603    7.2424 C   0  0  0  0  0  0  0  0  0  0  0  0
    0.7204    2.9994    6.4974 C   0  0  1  0  0  0  0  0  0  0  0  0
    2.2703    3.1830    6.4802 C   0  0  0  0  0  0  0  0  0  0  0  0
    3.0821    2.6585    5.1946 C   0  0  1  0  0  0  0  0  0  0  0  0
    4.3777    3.1446    5.4341 O   0  0  0  0  0  0  0  0  0  0  0  0
    2.7125    3.1804    3.9044 O   0  0  0  0  0  0  0  0  0  0  0  0
    1.4137    3.2164    3.2001 C   0  0  2  0  0  0  0  0  0  0  0  0
    0.6597    3.9121    4.1195 C   0  0  1  0  0  0  0  0  0  0  0  0
   -0.3142    4.6130    3.2813 O   0  0  0  0  0  0  0  0  0  0  0  0
    0.4084    2.6719    5.0821 C   0  0  2  0  0  0  0  0  0  0  0  0
   -0.8473    3.4148    5.2709 O   0  0  0  0  0  0  0  0  0  0  0  0
    0.7244    0.7082    4.9318 C   0  0  1  0  0  0  0  0  0  0  0  0
    1.0999   -0.5629    3.9014 C   0  0  0  0  0  0  0  0  0  0  0  0
    2.5557   -0.7798    3.5929 C   0  0  1  0  0  0  0  0  0  0  0  0
    2.7609   -1.5511    2.4206 O   0  0  0  0  0  0  0  0  0  0  0  0
    1.1106   -2.0730    6.3267 H   0  0  0  0  0  0  0  0  0  0  0  0
   -0.6003   -1.6856    6.0885 H   0  0  0  0  0  0  0  0  0  0  0  0
    0.1619   -1.4284    7.6414 H   0  0  0  0  0  0  0  0  0  0  0  0
    2.4898    0.8211    7.3028 H   0  0  0  0  0  0  0  0  0  0  0  0
    2.6873   -0.5532    6.4307 H   0  0  0  0  0  0  0  0  0  0  0  0
    4.6747    0.9360    6.2199 H   0  0  0  0  0  0  0  0  0  0  0  0
    3.9301    0.6979    3.0185 H   0  0  0  0  0  0  0  0  0  0  0  0
    2.5037    1.8779    1.7111 H   0  0  0  0  0  0  0  0  0  0  0  0
    1.6577    0.4867    1.5738 H   0  0  0  0  0  0  0  0  0  0  0  0
    0.1724    2.2865    1.6786 H   0  0  0  0  0  0  0  0  0  0  0  0
   -1.8032    2.2758    3.0325 H   0  0  0  0  0  0  0  0  0  0  0  0
   -1.4324    0.6524    2.7325 H   0  0  0  0  0  0  0  0  0  0  0  0
   -2.5466    1.7118    5.3357 H   0  0  0  0  0  0  0  0  0  0  0  0
   -2.1731    0.0895    4.9747 H   0  0  0  0  0  0  0  0  0  0  0  0
   -0.9927    2.5595    7.6317 H   0  0  0  0  0  0  0  0  0  0  0  0
    0.4101    3.9742    6.8963 H   0  0  0  0  0  0  0  0  0  0  0  0
    2.4458    4.2617    6.4999 H   0  0  0  0  0  0  0  0  0  0  0  0
    2.7354    2.8575    7.4089 H   0  0  0  0  0  0  0  0  0  0  0  0
    4.8764    2.9034    4.6722 H   0  0  0  0  0  0  0  0  0  0  0  0
    1.6674    3.8455    2.3474 H   0  0  0  0  0  0  0  0  0  0  0  0
    1.2372    4.7099    4.5998 H   0  0  0  0  0  0  0  0  0  0  0  0
   -0.0778    4.5261    2.3535 H   0  0  0  0  0  0  0  0  0  0  0  0
   -1.2888    3.0375    6.0060 H   0  0  0  0  0  0  0  0  0  0  0  0
    0.0007    0.0233    4.5644 H   0  0  0  0  0  0  0  0  0  0  0  0
    0.8514   -1.5770    4.2454 H   0  0  0  0  0  0  0  0  0  0  0  0
    0.5313   -0.6151    2.9558 H   0  0  0  0  0  0  0  0  0  0  0  0
    3.0793   -1.3025    4.3927 H   0  0  0  0  0  0  0  0  0  0  0  0
    2.3708   -1.1072    1.6809 H   0  0  0  0  0  0  0  0  0  0  0  0
  2  1  1  6
  1 27  1  0
  1 28  1  0
  1 29  1  0
  2 11  1  0
  2 23  1  0
  2  3  1  0
  3  4  1  0
  3 30  1  0
  3 31  1  0
  4 15  1  0
  4  5  1  1
  4  6  1  0
  5 32  1  0
  6 25  1  0
  6  7  1  0
  6 33  1  6
  7  8  1  0
  7 34  1  0
  7 35  1  0
  8 18  1  0
  8  9  1  0
  8 36  1  6
  9 10  1  0
  9 37  1  0
  9 38  1  0
 10 11  1  0
 10 39  1  0
 10 40  1  0
 11 12  2  0
 12 13  1  0
 12 41  1  0
 13 21  1  0
 13 14  1  0
 13 42  1  1
 14 15  1  0
 14 43  1  0
 14 44  1  0
 15 16  1  1
 15 17  1  0
 16 45  1  0
 17 18  1  0
 18 19  1  0
 18 46  1  6
 19 20  1  0
 19 21  1  0
 19 47  1  1
 20 48  1  0
 21 22  1  1
 21 23  1  0
 22 49  1  0
 23 24  1  0
 23 50  1  6
 24 25  1  0
 24 51  1  0
 24 52  1  0
 25 26  1  0
 25 53  1  1
 26 54  1  0
M  END
>  <i_m_ct_stereo_status>  (369) 
1

>  <s_m_source_file>  (369) 
/var/tmp/pbs.5076255.sched01/tmpbrgkg_oh/138myny07gr.sdf

>  <i_m_source_file_index>  (369) 
26

>  <i_lp_mmshare_version>  (369) 
48012

>  <i_f3d_flags>  (369) 
0

>  <s_epik_input>  (369) 
W0NIM11bQ0BAXTEyQzM9W0NIXVtDSF00W0NAXTUoW09IXSlbQ0hdMltDSDJdW0NAQEhdKFtPSF0pW0NAQEhdNltDQEBdKFtDSDJdMSkoW09IXSlbQ0BAXShbQ0gyXTQpKFtPSF0pT1tDQEhdKFtDQEhdNVtPSF0pW0NAQEhdKFtDSDJdNilbQ0gyXVtDSDJdMw==

>  <s_epik_cmdline>  (369) 
J2VwaWtfcHl0aG9uJywgJy1waHQnLCAnMi4wJywgJy1waCcsICc3LjAnLCAnLXRuJywgJzgnLCAnLW1hJywgJzIwMCcsICctaW1hZScsICc8aW5maWxlLm1hZT4nLCAnLW9tYWUnLCAnPG91dGZpbGUubWFlPic=

>  <r_lp_tautomer_probability>  (369) 
1

>  <r_epik_Ionization_Penalty>  (369) 
1.47294e-06

>  <r_epik_Ionization_Penalty_Charging>  (369) 
0

>  <r_epik_Ionization_Penalty_Neutral>  (369) 
1.47294e-06

>  <r_epik_State_Penalty>  (369) 
-0

>  <r_epik_Charging_Adjusted_Penalty>  (369) 
0

>  <i_epik_Tot_Q>  (369) 
0

>  <i_epik_Tot_abs_Q>  (369) 
0

>  <s_lp_Force_Field>  (369) 
OPLS3e

>  <r_lp_Energy>  (369) 
730.657

>  <b_lp_Chiralities_Consistent>  (369) 
1

>  <s_lp_Variant>  (369) 
107:0-1

>  <s_i_glide_gridfile>  (369) 
pfpi4k_grid

>  <i_i_glide_lignum>  (369) 
26

>  <i_i_glide_rotatable_bonds>  (369) 
5

>  <r_i_docking_score>  (369) 
-2.86709

>  <r_i_glide_ligand_efficiency>  (369) 
-0.110273

>  <r_i_glide_ligand_efficiency_sa>  (369) 
-0.326682

>  <r_i_glide_ligand_efficiency_ln>  (369) 
-0.673327

>  <r_i_glide_gscore>  (369) 
-2.86709

>  <r_i_glide_lipo>  (369) 
0

>  <r_i_glide_hbond>  (369) 
0

>  <r_i_glide_metal>  (369) 
-0

>  <r_i_glide_rewards>  (369) 
-0.924322

>  <r_i_glide_evdw>  (369) 
-18.0139

>  <r_i_glide_ecoul>  (369) 
-6.93495

>  <r_i_glide_erotb>  (369) 
0

>  <r_i_glide_esite>  (369) 
-0.00183225

>  <r_i_glide_emodel>  (369) 
-30.3051

>  <r_i_glide_energy>  (369) 
-24.9488

>  <r_i_glide_einternal>  (369) 
1.6271

>  <r_i_glide_intrahb_reward>  (369) 
-0

>  <i_i_glide_confnum>  (369) 
2

>  <i_i_glide_posenum>  (369) 
11

>  <r_i_glide_eff_state_penalty>  (369) 
0

>  <ligand_id>  (369) 
107

>  <original_smiles>  (369) 
CC12CC3(O)C4CC5CCC1=CC1CC3(O)OC5C(O)C1(O)C2CC4O

>  <smiles>  (369) 
[H]OC1([H])C([H])([H])C2([H])C3(O[H])C([H])(O[H])C4([H])OC5(O[H])C([H])([H])C3([H])C([H])=C3C([H])([H])C([H])([H])C4([H])C([H])([H])C1([H])C5(O[H])C([H])([H])C32C([H])([H])[H]

$$$$
108:0:0
     RDKit          3D

 68 73  0  0  1  0  0  0  0  0999 V2000
   -0.1478   -6.2761    5.1994 C   0  0  0  0  0  0  0  0  0  0  0  0
    1.1857   -6.1196    5.9853 C   0  0  2  0  0  0  0  0  0  0  0  0
    1.6750   -7.5423    6.3867 C   0  0  0  0  0  0  0  0  0  0  0  0
    0.7042   -8.2922    7.3161 C   0  0  0  0  0  0  0  0  0  0  0  0
    0.3695   -7.4507    8.5510 C   0  0  0  0  0  0  0  0  0  0  0  0
    0.2843   -7.9499    9.6711 O   0  0  0  0  0  0  0  0  0  0  0  0
    0.0468   -5.9774    8.3203 C   0  0  0  0  0  0  0  0  0  0  0  0
    0.9813   -5.3003    7.2959 C   0  0  2  0  0  0  0  0  0  0  0  0
    0.5090   -3.8727    6.9806 C   0  0  0  0  0  0  0  0  0  0  0  0
    1.5228   -3.1455    6.0959 C   0  0  0  0  0  0  0  0  0  0  0  0
    1.8836   -3.8838    4.7776 C   0  0  1  0  0  0  0  0  0  0  0  0
    3.0398   -3.1051    4.0755 C   0  0  2  0  0  0  0  0  0  0  0  0
    2.5857   -1.8458    3.3040 C   0  0  0  0  0  0  0  0  0  0  0  0
    2.6126   -1.9845    1.7978 C   0  0  0  0  0  0  0  0  0  0  0  0
    3.1020   -3.0332    1.1099 C   0  0  0  0  0  0  0  0  0  0  0  0
    3.0105   -3.0578   -0.4164 C   0  0  0  0  0  0  0  0  0  0  0  0
    4.3417   -3.4223   -1.0759 C   0  0  0  0  0  0  0  0  0  0  0  0
    4.8721   -4.7665   -0.5131 C   0  0  0  0  0  0  0  0  0  0  0  0
    5.0364   -4.6943    1.0167 C   0  0  1  0  0  0  0  0  0  0  0  0
    6.1565   -3.8740    1.2942 O   0  0  0  0  0  0  0  0  0  0  0  0
    3.7320   -4.2648    1.7811 C   0  0  2  0  0  0  0  0  0  0  0  0
    2.7059   -5.4089    1.6586 C   0  0  0  0  0  0  0  0  0  0  0  0
    4.0685   -3.9488    3.2939 C   0  0  2  0  0  0  0  0  0  0  0  0
    4.6094   -5.1238    4.1565 C   0  0  0  0  0  0  0  0  0  0  0  0
    3.7168   -5.5403    5.3521 C   0  0  0  0  0  0  0  0  0  0  0  0
    2.2109   -5.3967    5.0307 C   0  0  1  0  0  0  0  0  0  0  0  0
    4.1447   -3.5209   -2.4431 O   0  0  0  0  0  0  0  0  0  0  0  0
    5.2988   -3.0041   -3.0677 C   0  0  0  0  0  0  0  0  0  0  0  0
    6.1811   -2.5297   -1.9169 C   0  0  0  0  0  0  0  0  0  0  0  0
    5.2621   -2.4053   -0.8560 O   0  0  0  0  0  0  0  0  0  0  0  0
   -0.0255   -6.9750    4.3702 H   0  0  0  0  0  0  0  0  0  0  0  0
   -0.5010   -5.3361    4.7800 H   0  0  0  0  0  0  0  0  0  0  0  0
   -0.9579   -6.6519    5.8196 H   0  0  0  0  0  0  0  0  0  0  0  0
    1.8829   -8.1409    5.4974 H   0  0  0  0  0  0  0  0  0  0  0  0
    2.6122   -7.4679    6.9357 H   0  0  0  0  0  0  0  0  0  0  0  0
   -0.2230   -8.5282    6.7965 H   0  0  0  0  0  0  0  0  0  0  0  0
    1.1386   -9.2436    7.6249 H   0  0  0  0  0  0  0  0  0  0  0  0
   -0.9907   -5.9155    8.0025 H   0  0  0  0  0  0  0  0  0  0  0  0
    0.1097   -5.4531    9.2736 H   0  0  0  0  0  0  0  0  0  0  0  0
    1.9526   -5.2085    7.7827 H   0  0  0  0  0  0  0  0  0  0  0  0
   -0.4710   -3.8722    6.5034 H   0  0  0  0  0  0  0  0  0  0  0  0
    0.3878   -3.3159    7.9094 H   0  0  0  0  0  0  0  0  0  0  0  0
    1.1432   -2.1465    5.8709 H   0  0  0  0  0  0  0  0  0  0  0  0
    2.4262   -3.0023    6.6902 H   0  0  0  0  0  0  0  0  0  0  0  0
    1.0154   -3.8388    4.1212 H   0  0  0  0  0  0  0  0  0  0  0  0
    3.6393   -2.7081    4.8978 H   0  0  0  0  0  0  0  0  0  0  0  0
    1.5783   -1.5468    3.5952 H   0  0  0  0  0  0  0  0  0  0  0  0
    3.2473   -1.0125    3.5334 H   0  0  0  0  0  0  0  0  0  0  0  0
    2.1809   -1.1601    1.2519 H   0  0  0  0  0  0  0  0  0  0  0  0
    2.2751   -3.8044   -0.7108 H   0  0  0  0  0  0  0  0  0  0  0  0
    2.6520   -2.1091   -0.8104 H   0  0  0  0  0  0  0  0  0  0  0  0
    4.1634   -5.5484   -0.7598 H   0  0  0  0  0  0  0  0  0  0  0  0
    5.8136   -5.0481   -0.9897 H   0  0  0  0  0  0  0  0  0  0  0  0
    5.3156   -5.6946    1.3418 H   0  0  0  0  0  0  0  0  0  0  0  0
    5.9711   -3.0039    0.9680 H   0  0  0  0  0  0  0  0  0  0  0  0
    3.0609   -6.3238    2.1274 H   0  0  0  0  0  0  0  0  0  0  0  0
    2.4879   -5.6632    0.6225 H   0  0  0  0  0  0  0  0  0  0  0  0
    1.7587   -5.1205    2.1076 H   0  0  0  0  0  0  0  0  0  0  0  0
    4.9016   -3.2510    3.2452 H   0  0  0  0  0  0  0  0  0  0  0  0
    4.7897   -5.9973    3.5322 H   0  0  0  0  0  0  0  0  0  0  0  0
    5.5909   -4.8495    4.5472 H   0  0  0  0  0  0  0  0  0  0  0  0
    3.9842   -6.5704    5.5885 H   0  0  0  0  0  0  0  0  0  0  0  0
    3.9681   -4.9394    6.2292 H   0  0  0  0  0  0  0  0  0  0  0  0
    2.0922   -5.9270    4.0898 H   0  0  0  0  0  0  0  0  0  0  0  0
    5.7833   -3.7622   -3.6792 H   0  0  0  0  0  0  0  0  0  0  0  0
    5.0040   -2.1785   -3.7137 H   0  0  0  0  0  0  0  0  0  0  0  0
    6.9410   -3.2683   -1.6601 H   0  0  0  0  0  0  0  0  0  0  0  0
    6.6728   -1.5841   -2.1160 H   0  0  0  0  0  0  0  0  0  0  0  0
  2  1  1  6
  1 31  1  0
  1 32  1  0
  1 33  1  0
  2  8  1  0
  2 26  1  0
  2  3  1  0
  3  4  1  0
  3 34  1  0
  3 35  1  0
  4  5  1  0
  4 36  1  0
  4 37  1  0
  5  6  2  0
  5  7  1  0
  7  8  1  0
  7 38  1  0
  7 39  1  0
  8  9  1  0
  8 40  1  1
  9 10  1  0
  9 41  1  0
  9 42  1  0
 10 11  1  0
 10 43  1  0
 10 44  1  0
 11 26  1  0
 11 12  1  0
 11 45  1  6
 12 23  1  0
 12 13  1  0
 12 46  1  1
 13 14  1  0
 13 47  1  0
 13 48  1  0
 14 15  2  0
 14 49  1  0
 15 21  1  0
 15 16  1  0
 16 17  1  0
 16 50  1  0
 16 51  1  0
 17 30  1  0
 17 18  1  0
 17 27  1  0
 18 19  1  0
 18 52  1  0
 18 53  1  0
 19 20  1  0
 19 21  1  0
 19 54  1  1
 20 55  1  0
 21 22  1  1
 21 23  1  0
 22 56  1  0
 22 57  1  0
 22 58  1  0
 23 24  1  0
 23 59  1  6
 24 25  1  0
 24 60  1  0
 24 61  1  0
 25 26  1  0
 25 62  1  0
 25 63  1  0
 26 64  1  6
 27 28  1  0
 28 29  1  0
 28 65  1  0
 28 66  1  0
 29 30  1  0
 29 67  1  0
 29 68  1  0
M  END
>  <i_m_ct_stereo_status>  (370) 
1

>  <s_m_source_file>  (370) 
/var/tmp/pbs.5076255.sched01/tmpbrgkg_oh/138myny07gr.sdf

>  <i_m_source_file_index>  (370) 
27

>  <i_lp_mmshare_version>  (370) 
48012

>  <i_f3d_flags>  (370) 
0

>  <s_epik_input>  (370) 
W0NIMl0xW0NIMl1DKD1PKVtDSDJdW0NASF0oW0NIMl1bQ0gyXTIpW0NAQF0xKFtDSDNdKVtDQEhdKFtDSDJdW0NIMl0zKVtDQEBIXTJbQ0BIXShbQ0gyXVtDSF09NClbQ0BASF0zW0NAXShbQ0gzXSkoW0NAQEhdKFtDSDJdNSlbT0hdKUM0W0NIMl1DNTZPW0NIMl1bQ0gyXU82

>  <s_epik_cmdline>  (370) 
J2VwaWtfcHl0aG9uJywgJy1waHQnLCAnMi4wJywgJy1waCcsICc3LjAnLCAnLXRuJywgJzgnLCAnLW1hJywgJzIwMCcsICctaW1hZScsICc8aW5maWxlLm1hZT4nLCAnLW9tYWUnLCAnPG91dGZpbGUubWFlPic=

>  <r_lp_tautomer_probability>  (370) 
1

>  <r_epik_Ionization_Penalty>  (370) 
6.36746e-08

>  <r_epik_Ionization_Penalty_Charging>  (370) 
0

>  <r_epik_Ionization_Penalty_Neutral>  (370) 
6.36746e-08

>  <r_epik_State_Penalty>  (370) 
-0

>  <r_epik_Charging_Adjusted_Penalty>  (370) 
0

>  <i_epik_Tot_Q>  (370) 
0

>  <i_epik_Tot_abs_Q>  (370) 
0

>  <s_lp_Force_Field>  (370) 
OPLS3e

>  <r_lp_Energy>  (370) 
39.5504

>  <b_lp_Chiralities_Consistent>  (370) 
1

>  <s_lp_Variant>  (370) 
108:0-1

>  <s_i_glide_gridfile>  (370) 
pfpi4k_grid

>  <i_i_glide_lignum>  (370) 
27

>  <i_i_glide_rotatable_bonds>  (370) 
1

>  <r_i_docking_score>  (370) 
-2.81818

>  <r_i_glide_ligand_efficiency>  (370) 
-0.0939394

>  <r_i_glide_ligand_efficiency_sa>  (370) 
-0.291891

>  <r_i_glide_ligand_efficiency_ln>  (370) 
-0.640321

>  <r_i_glide_gscore>  (370) 
-2.81818

>  <r_i_glide_lipo>  (370) 
-0.222238

>  <r_i_glide_hbond>  (370) 
-0.173257

>  <r_i_glide_metal>  (370) 
-0

>  <r_i_glide_rewards>  (370) 
-1.08652

>  <r_i_glide_evdw>  (370) 
-25.1765

>  <r_i_glide_ecoul>  (370) 
-0.289728

>  <r_i_glide_erotb>  (370) 
0

>  <r_i_glide_esite>  (370) 
-0.033883

>  <r_i_glide_emodel>  (370) 
-34.5635

>  <r_i_glide_energy>  (370) 
-25.4662

>  <r_i_glide_einternal>  (370) 
0.00701944

>  <r_i_glide_intrahb_reward>  (370) 
-0.5

>  <i_i_glide_confnum>  (370) 
1

>  <i_i_glide_posenum>  (370) 
8

>  <r_i_glide_eff_state_penalty>  (370) 
0

>  <ligand_id>  (370) 
108

>  <original_smiles>  (370) 
CC12CCC(=O)CC1CCC1C3CC=C4CC5(CC(O)C4(C)C3CCC12)OCCO5

>  <smiles>  (370) 
[H]OC1([H])C([H])([H])C2(OC([H])([H])C([H])([H])O2)C([H])([H])C2=C([H])C([H])([H])C3([H])C4([H])C([H])([H])C([H])([H])C5([H])C([H])([H])C(=O)C([H])([H])C([H])([H])C5(C([H])([H])[H])C4([H])C([H])([H])C([H])([H])C3([H])C21C([H])([H])[H]

$$$$
108:0:1
     RDKit          3D

 68 73  0  0  1  0  0  0  0  0999 V2000
   -0.2126   -6.2777    5.0789 C   0  0  0  0  0  0  0  0  0  0  0  0
    1.1099   -6.1460    5.8875 C   0  0  2  0  0  0  0  0  0  0  0  0
    1.5755   -7.5790    6.2770 C   0  0  0  0  0  0  0  0  0  0  0  0
    0.5877   -8.3296    7.1906 C   0  0  0  0  0  0  0  0  0  0  0  0
    0.2588   -7.5009    8.4316 C   0  0  0  0  0  0  0  0  0  0  0  0
    0.1831   -8.0071    9.5485 O   0  0  0  0  0  0  0  0  0  0  0  0
   -0.0512   -6.0196    8.2158 C   0  0  0  0  0  0  0  0  0  0  0  0
    0.9021   -5.3424    7.2047 C   0  0  2  0  0  0  0  0  0  0  0  0
    0.4507   -3.9043    6.9039 C   0  0  0  0  0  0  0  0  0  0  0  0
    1.4843   -3.1791    6.0379 C   0  0  0  0  0  0  0  0  0  0  0  0
    1.8464   -3.9085    4.7154 C   0  0  1  0  0  0  0  0  0  0  0  0
    3.0211   -3.1335    4.0315 C   0  0  2  0  0  0  0  0  0  0  0  0
    2.5897   -1.8618    3.2678 C   0  0  0  0  0  0  0  0  0  0  0  0
    2.6281   -1.9848    1.7579 C   0  0  0  0  0  0  0  0  0  0  0  0
    3.1053   -3.0339    1.0626 C   0  0  0  0  0  0  0  0  0  0  0  0
    3.0210   -3.0420   -0.4621 C   0  0  0  0  0  0  0  0  0  0  0  0
    4.3551   -3.4040   -1.1179 C   0  0  0  0  0  0  0  0  0  0  0  0
    4.8779   -4.7577   -0.5652 C   0  0  0  0  0  0  0  0  0  0  0  0
    5.0235   -4.7181    0.9662 C   0  0  1  0  0  0  0  0  0  0  0  0
    6.1682   -3.9389    1.2629 O   0  0  0  0  0  0  0  0  0  0  0  0
    3.7195   -4.2768    1.7270 C   0  0  2  0  0  0  0  0  0  0  0  0
    2.6783   -5.4075    1.5836 C   0  0  0  0  0  0  0  0  0  0  0  0
    4.0459   -3.9830    3.2487 C   0  0  2  0  0  0  0  0  0  0  0  0
    4.5638   -5.1758    4.1031 C   0  0  0  0  0  0  0  0  0  0  0  0
    3.6532   -5.5957    5.2843 C   0  0  0  0  0  0  0  0  0  0  0  0
    2.1535   -5.4278    4.9532 C   0  0  1  0  0  0  0  0  0  0  0  0
    4.1690   -3.4954   -2.4874 O   0  0  0  0  0  0  0  0  0  0  0  0
    5.3388   -2.9897   -3.0922 C   0  0  0  0  0  0  0  0  0  0  0  0
    6.2162   -2.5376   -1.9241 C   0  0  0  0  0  0  0  0  0  0  0  0
    5.2746   -2.3876   -0.8964 O   0  0  0  0  0  0  0  0  0  0  0  0
   -0.0910   -6.9678    4.2396 H   0  0  0  0  0  0  0  0  0  0  0  0
   -0.5539   -5.3290    4.6712 H   0  0  0  0  0  0  0  0  0  0  0  0
   -1.0346   -6.6586    5.6777 H   0  0  0  0  0  0  0  0  0  0  0  0
    1.7828   -8.1748    5.3868 H   0  0  0  0  0  0  0  0  0  0  0  0
    2.5081   -7.5273    6.8388 H   0  0  0  0  0  0  0  0  0  0  0  0
   -0.3379   -8.5476    6.6601 H   0  0  0  0  0  0  0  0  0  0  0  0
    1.0009   -9.2945    7.4922 H   0  0  0  0  0  0  0  0  0  0  0  0
   -1.0848   -5.9340    7.8887 H   0  0  0  0  0  0  0  0  0  0  0  0
    0.0100   -5.5077    9.1778 H   0  0  0  0  0  0  0  0  0  0  0  0
    1.8703   -5.2694    7.7017 H   0  0  0  0  0  0  0  0  0  0  0  0
   -0.5264   -3.8870    6.4197 H   0  0  0  0  0  0  0  0  0  0  0  0
    0.3282   -3.3573    7.8401 H   0  0  0  0  0  0  0  0  0  0  0  0
    1.1188   -2.1742    5.8208 H   0  0  0  0  0  0  0  0  0  0  0  0
    2.3810   -3.0547    6.6436 H   0  0  0  0  0  0  0  0  0  0  0  0
    0.9845   -3.8444    4.0502 H   0  0  0  0  0  0  0  0  0  0  0  0
    3.6150   -2.7525    4.8619 H   0  0  0  0  0  0  0  0  0  0  0  0
    1.5849   -1.5506    3.5555 H   0  0  0  0  0  0  0  0  0  0  0  0
    3.2572   -1.0372    3.5132 H   0  0  0  0  0  0  0  0  0  0  0  0
    2.2120   -1.1488    1.2155 H   0  0  0  0  0  0  0  0  0  0  0  0
    2.2833   -3.7771   -0.7735 H   0  0  0  0  0  0  0  0  0  0  0  0
    2.6816   -2.0821   -0.8473 H   0  0  0  0  0  0  0  0  0  0  0  0
    4.1766   -5.5346   -0.8393 H   0  0  0  0  0  0  0  0  0  0  0  0
    5.8177   -5.0403   -1.0399 H   0  0  0  0  0  0  0  0  0  0  0  0
    5.2784   -5.7305    1.2711 H   0  0  0  0  0  0  0  0  0  0  0  0
    6.3813   -4.0457    2.1725 H   0  0  0  0  0  0  0  0  0  0  0  0
    3.0160   -6.3337    2.0451 H   0  0  0  0  0  0  0  0  0  0  0  0
    2.4655   -5.6470    0.5425 H   0  0  0  0  0  0  0  0  0  0  0  0
    1.7318   -5.1115    2.0296 H   0  0  0  0  0  0  0  0  0  0  0  0
    4.8862   -3.2917    3.2114 H   0  0  0  0  0  0  0  0  0  0  0  0
    4.7400   -6.0443    3.4717 H   0  0  0  0  0  0  0  0  0  0  0  0
    5.5418   -4.9208    4.5120 H   0  0  0  0  0  0  0  0  0  0  0  0
    3.9032   -6.6311    5.5105 H   0  0  0  0  0  0  0  0  0  0  0  0
    3.9028   -5.0096    6.1716 H   0  0  0  0  0  0  0  0  0  0  0  0
    2.0354   -5.9424    4.0060 H   0  0  0  0  0  0  0  0  0  0  0  0
    5.8188   -3.7460   -3.7102 H   0  0  0  0  0  0  0  0  0  0  0  0
    5.0570   -2.1476   -3.7246 H   0  0  0  0  0  0  0  0  0  0  0  0
    6.9565   -3.2903   -1.6543 H   0  0  0  0  0  0  0  0  0  0  0  0
    6.7400   -1.6081   -2.1134 H   0  0  0  0  0  0  0  0  0  0  0  0
  2  1  1  6
  1 31  1  0
  1 32  1  0
  1 33  1  0
  2  8  1  0
  2 26  1  0
  2  3  1  0
  3  4  1  0
  3 34  1  0
  3 35  1  0
  4  5  1  0
  4 36  1  0
  4 37  1  0
  5  6  2  0
  5  7  1  0
  7  8  1  0
  7 38  1  0
  7 39  1  0
  8  9  1  0
  8 40  1  1
  9 10  1  0
  9 41  1  0
  9 42  1  0
 10 11  1  0
 10 43  1  0
 10 44  1  0
 11 26  1  0
 11 12  1  0
 11 45  1  6
 12 23  1  0
 12 13  1  0
 12 46  1  1
 13 14  1  0
 13 47  1  0
 13 48  1  0
 14 15  2  0
 14 49  1  0
 15 21  1  0
 15 16  1  0
 16 17  1  0
 16 50  1  0
 16 51  1  0
 17 30  1  0
 17 18  1  0
 17 27  1  0
 18 19  1  0
 18 52  1  0
 18 53  1  0
 19 20  1  0
 19 21  1  0
 19 54  1  1
 20 55  1  0
 21 22  1  1
 21 23  1  0
 22 56  1  0
 22 57  1  0
 22 58  1  0
 23 24  1  0
 23 59  1  6
 24 25  1  0
 24 60  1  0
 24 61  1  0
 25 26  1  0
 25 62  1  0
 25 63  1  0
 26 64  1  6
 27 28  1  0
 28 29  1  0
 28 65  1  0
 28 66  1  0
 29 30  1  0
 29 67  1  0
 29 68  1  0
M  END
>  <i_m_ct_stereo_status>  (371) 
1

>  <s_m_source_file>  (371) 
/var/tmp/pbs.5076255.sched01/tmpbrgkg_oh/138myny07gr.sdf

>  <i_m_source_file_index>  (371) 
27

>  <i_lp_mmshare_version>  (371) 
48012

>  <i_f3d_flags>  (371) 
0

>  <s_epik_input>  (371) 
W0NIMl0xW0NIMl1DKD1PKVtDSDJdW0NASF0oW0NIMl1bQ0gyXTIpW0NAQF0xKFtDSDNdKVtDQEhdKFtDSDJdW0NIMl0zKVtDQEBIXTJbQ0BIXShbQ0gyXVtDSF09NClbQ0BASF0zW0NAXShbQ0gzXSkoW0NAQEhdKFtDSDJdNSlbT0hdKUM0W0NIMl1DNTZPW0NIMl1bQ0gyXU82

>  <s_epik_cmdline>  (371) 
J2VwaWtfcHl0aG9uJywgJy1waHQnLCAnMi4wJywgJy1waCcsICc3LjAnLCAnLXRuJywgJzgnLCAnLW1hJywgJzIwMCcsICctaW1hZScsICc8aW5maWxlLm1hZT4nLCAnLW9tYWUnLCAnPG91dGZpbGUubWFlPic=

>  <r_lp_tautomer_probability>  (371) 
1

>  <r_epik_Ionization_Penalty>  (371) 
6.36746e-08

>  <r_epik_Ionization_Penalty_Charging>  (371) 
0

>  <r_epik_Ionization_Penalty_Neutral>  (371) 
6.36746e-08

>  <r_epik_State_Penalty>  (371) 
-0

>  <r_epik_Charging_Adjusted_Penalty>  (371) 
0

>  <i_epik_Tot_Q>  (371) 
0

>  <i_epik_Tot_abs_Q>  (371) 
0

>  <s_lp_Force_Field>  (371) 
OPLS3e

>  <r_lp_Energy>  (371) 
39.5504

>  <b_lp_Chiralities_Consistent>  (371) 
1

>  <s_lp_Variant>  (371) 
108:0-1

>  <s_i_glide_gridfile>  (371) 
pfpi4k_grid

>  <i_i_glide_lignum>  (371) 
27

>  <i_i_glide_rotatable_bonds>  (371) 
1

>  <r_i_docking_score>  (371) 
-2.34187

>  <r_i_glide_ligand_efficiency>  (371) 
-0.0780624

>  <r_i_glide_ligand_efficiency_sa>  (371) 
-0.242558

>  <r_i_glide_ligand_efficiency_ln>  (371) 
-0.532099

>  <r_i_glide_gscore>  (371) 
-2.34187

>  <r_i_glide_lipo>  (371) 
-0.215769

>  <r_i_glide_hbond>  (371) 
-0.220826

>  <r_i_glide_metal>  (371) 
-0

>  <r_i_glide_rewards>  (371) 
-0.586642

>  <r_i_glide_evdw>  (371) 
-24.7834

>  <r_i_glide_ecoul>  (371) 
-0.299161

>  <r_i_glide_erotb>  (371) 
0

>  <r_i_glide_esite>  (371) 
-0.0345896

>  <r_i_glide_emodel>  (371) 
-28.2611

>  <r_i_glide_energy>  (371) 
-25.0826

>  <r_i_glide_einternal>  (371) 
0.33287

>  <r_i_glide_intrahb_reward>  (371) 
-0

>  <i_i_glide_confnum>  (371) 
4

>  <i_i_glide_posenum>  (371) 
1

>  <r_i_glide_eff_state_penalty>  (371) 
0

>  <ligand_id>  (371) 
108

>  <original_smiles>  (371) 
CC12CCC(=O)CC1CCC1C3CC=C4CC5(CC(O)C4(C)C3CCC12)OCCO5

>  <smiles>  (371) 
[H]OC1([H])C([H])([H])C2(OC([H])([H])C([H])([H])O2)C([H])([H])C2=C([H])C([H])([H])C3([H])C4([H])C([H])([H])C([H])([H])C5([H])C([H])([H])C(=O)C([H])([H])C([H])([H])C5(C([H])([H])[H])C4([H])C([H])([H])C([H])([H])C3([H])C21C([H])([H])[H]

$$$$
109:0:0
     RDKit          3D

 34 37  0  0  1  0  0  0  0  0999 V2000
    2.7912   -7.7108    1.8629 C   0  0  0  0  0  0  0  0  0  0  0  0
    1.9236   -6.4414    2.0596 C   0  0  0  0  0  0  0  0  0  0  0  0
    0.4317   -6.8374    1.9359 C   0  0  0  0  0  0  0  0  0  0  0  0
    2.2040   -5.8226    3.4546 C   0  0  0  0  0  0  0  0  0  0  0  0
    3.3157   -4.8464    3.4031 C   0  0  0  0  0  0  0  0  0  0  0  0
    4.1661   -4.2444    4.8035 S   0  0  0  0  0  0  0  0  0  0  0  0
    5.0013   -3.0689    3.8311 C   0  0  0  0  0  0  0  0  0  0  0  0
    4.6149   -3.1173    2.5156 C   0  0  0  0  0  0  0  0  0  0  0  0
    3.6979   -4.1949    2.2669 C   0  0  0  0  0  0  0  0  0  0  0  0
    3.0117   -4.5371    0.9899 C   0  0  0  0  0  0  0  0  0  0  0  0
    3.1911   -3.7583   -0.2486 C   0  0  0  0  0  0  0  0  0  0  0  0
    2.1217   -3.6797   -1.3351 C   0  0  0  0  0  0  0  0  0  0  0  0
    2.8463   -2.9810   -2.3663 N   0  0  0  0  0  0  0  0  0  0  0  0
    2.6979   -2.4205   -3.5460 C   0  0  0  0  0  0  0  0  0  0  0  0
    3.8260   -1.8028   -3.9803 N   0  0  0  0  0  0  0  0  0  0  0  0
    4.7661   -2.0011   -2.9665 N   0  0  0  0  0  0  0  0  0  0  0  0
    4.0815   -2.7182   -2.0673 C   0  0  0  0  0  0  0  0  0  0  0  0
    4.3491   -3.2463   -0.7594 C   0  0  0  0  0  0  0  0  0  0  0  0
    5.6029   -3.3148   -0.3042 O   0  0  0  0  0  0  0  0  0  0  0  0
    2.1535   -5.4933    0.9507 N   0  0  0  0  0  0  0  0  0  0  0  0
    2.5728   -8.4653    2.6116 H   0  0  0  0  0  0  0  0  0  0  0  0
    3.8571   -7.4784    1.9574 H   0  0  0  0  0  0  0  0  0  0  0  0
    2.6482   -8.1811    0.8927 H   0  0  0  0  0  0  0  0  0  0  0  0
    0.1164   -7.5221    2.7259 H   0  0  0  0  0  0  0  0  0  0  0  0
    0.2128   -7.2963    0.9703 H   0  0  0  0  0  0  0  0  0  0  0  0
   -0.1765   -5.9360    2.0113 H   0  0  0  0  0  0  0  0  0  0  0  0
    1.2956   -5.3157    3.8026 H   0  0  0  0  0  0  0  0  0  0  0  0
    2.4251   -6.6077    4.1885 H   0  0  0  0  0  0  0  0  0  0  0  0
    5.6813   -2.3743    4.2835 H   0  0  0  0  0  0  0  0  0  0  0  0
    4.9031   -2.3930    1.7555 H   0  0  0  0  0  0  0  0  0  0  0  0
    1.2663   -3.0721   -1.0005 H   0  0  0  0  0  0  0  0  0  0  0  0
    1.7760   -4.6421   -1.6825 H   0  0  0  0  0  0  0  0  0  0  0  0
    1.7627   -2.4248   -4.0905 H   0  0  0  0  0  0  0  0  0  0  0  0
    5.5885   -3.6940    0.5629 H   0  0  0  0  0  0  0  0  0  0  0  0
  1  2  1  0
  1 21  1  0
  1 22  1  0
  1 23  1  0
  2  3  1  0
  2  4  1  0
  2 20  1  0
  3 24  1  0
  3 25  1  0
  3 26  1  0
  4  5  1  0
  4 27  1  0
  4 28  1  0
  5  9  2  0
  5  6  1  0
  6  7  1  0
  7  8  2  0
  7 29  1  0
  8  9  1  0
  8 30  1  0
  9 10  1  0
 10 11  1  0
 10 20  2  0
 11 18  2  0
 11 12  1  0
 12 13  1  0
 12 31  1  0
 12 32  1  0
 13 17  1  0
 13 14  1  0
 14 15  2  0
 14 33  1  0
 15 16  1  0
 16 17  2  0
 17 18  1  0
 18 19  1  0
 19 34  1  0
M  END
>  <i_m_ct_stereo_status>  (372) 
1

>  <s_m_source_file>  (372) 
/var/tmp/pbs.5076255.sched01/tmpbrgkg_oh/138myny07gr.sdf

>  <i_m_source_file_index>  (372) 
28

>  <i_lp_mmshare_version>  (372) 
48012

>  <i_f3d_flags>  (372) 
0

>  <s_epik_input>  (372) 
czFbY0hdW2NIXWMoYzEyKUMoPU5DKFtDSDNdKShbQ0gzXSlbQ0gyXTIpW0NASF0oW0NIMl0zKUMoPU8pYyhuMzQpbm5bY0hdNA==

>  <s_epik_cmdline>  (372) 
J2VwaWtfcHl0aG9uJywgJy1waHQnLCAnMi4wJywgJy1waCcsICc3LjAnLCAnLXRuJywgJzgnLCAnLW1hJywgJzIwMCcsICctaW1hZScsICc8aW5maWxlLm1hZT4nLCAnLW9tYWUnLCAnPG91dGZpbGUubWFlPic=

>  <r_lp_tautomer_probability>  (372) 
1

>  <r_epik_Ionization_Penalty>  (372) 
4.60318

>  <r_epik_Ionization_Penalty_Charging>  (372) 
0

>  <r_epik_Ionization_Penalty_Neutral>  (372) 
4.60318

>  <r_epik_State_Penalty>  (372) 
-0

>  <r_epik_Charging_Adjusted_Penalty>  (372) 
0

>  <i_epik_Tot_Q>  (372) 
0

>  <i_epik_Tot_abs_Q>  (372) 
0

>  <s_epik_Chemistry_Notes>  (372) 
This compound has an imine and may undergo hydrolysis.

>  <s_lp_Force_Field>  (372) 
OPLS3e

>  <r_lp_Energy>  (372) 
17.6877

>  <b_lp_Chiralities_Consistent>  (372) 
1

>  <s_lp_Variant>  (372) 
109:0-1

>  <s_i_glide_gridfile>  (372) 
pfpi4k_grid

>  <i_i_glide_lignum>  (372) 
28

>  <i_i_glide_rotatable_bonds>  (372) 
2

>  <r_i_docking_score>  (372) 
-3.57451

>  <r_i_glide_ligand_efficiency>  (372) 
-0.178725

>  <r_i_glide_ligand_efficiency_sa>  (372) 
-0.485136

>  <r_i_glide_ligand_efficiency_ln>  (372) 
-0.894582

>  <r_i_glide_gscore>  (372) 
-3.57451

>  <r_i_glide_lipo>  (372) 
-0.0983654

>  <r_i_glide_hbond>  (372) 
-0.0121778

>  <r_i_glide_metal>  (372) 
-0

>  <r_i_glide_rewards>  (372) 
-1.79301

>  <r_i_glide_evdw>  (372) 
-23.575

>  <r_i_glide_ecoul>  (372) 
-4.5072

>  <r_i_glide_erotb>  (372) 
0.221452

>  <r_i_glide_esite>  (372) 
-0.0375822

>  <r_i_glide_emodel>  (372) 
-30.9244

>  <r_i_glide_energy>  (372) 
-28.0822

>  <r_i_glide_einternal>  (372) 
6.0105

>  <r_i_glide_intrahb_reward>  (372) 
-0

>  <i_i_glide_confnum>  (372) 
4

>  <i_i_glide_posenum>  (372) 
36

>  <r_i_glide_eff_state_penalty>  (372) 
0

>  <ligand_id>  (372) 
109

>  <original_smiles>  (372) 
CC1(C)Cc2sccc2C(C2Cn3cnnc3C2=O)=N1

>  <smiles>  (372) 
[H]OC1=C(C2=NC(C([H])([H])[H])(C([H])([H])[H])C([H])([H])c3sc([H])c([H])c32)C([H])([H])n2c([H])nnc21

$$$$
109:0:1
     RDKit          3D

 34 37  0  0  1  0  0  0  0  0999 V2000
    0.4672  -10.0590    3.1610 C   0  0  0  0  0  0  0  0  0  0  0  0
   -0.2615   -8.7417    3.4946 C   0  0  0  0  0  0  0  0  0  0  0  0
   -1.6390   -8.7076    2.8072 C   0  0  0  0  0  0  0  0  0  0  0  0
   -0.4449   -8.5917    5.0313 C   0  0  0  0  0  0  0  0  0  0  0  0
    0.6802   -7.8608    5.6660 C   0  0  0  0  0  0  0  0  0  0  0  0
    1.0504   -7.8990    7.3672 S   0  0  0  0  0  0  0  0  0  0  0  0
    2.3468   -6.7481    7.1424 C   0  0  0  0  0  0  0  0  0  0  0  0
    2.4886   -6.3901    5.8306 C   0  0  0  0  0  0  0  0  0  0  0  0
    1.5320   -7.0530    4.9780 C   0  0  0  0  0  0  0  0  0  0  0  0
    1.3389   -6.9168    3.4945 C   0  0  0  0  0  0  0  0  0  0  0  0
    2.0990   -5.9487    2.6459 C   0  0  0  0  0  0  0  0  0  0  0  0
    3.1563   -4.9887    3.1601 C   0  0  0  0  0  0  0  0  0  0  0  0
    3.4768   -4.3060    1.9506 N   0  0  0  0  0  0  0  0  0  0  0  0
    4.2725   -3.3608    1.4693 C   0  0  0  0  0  0  0  0  0  0  0  0
    4.1076   -3.1745    0.1442 N   0  0  0  0  0  0  0  0  0  0  0  0
    3.1150   -4.0761   -0.2537 N   0  0  0  0  0  0  0  0  0  0  0  0
    2.8271   -4.6960    0.8884 C   0  0  0  0  0  0  0  0  0  0  0  0
    1.9359   -5.7456    1.3105 C   0  0  0  0  0  0  0  0  0  0  0  0
    1.0762   -6.3243    0.4769 O   0  0  0  0  0  0  0  0  0  0  0  0
    0.4774   -7.6412    2.8779 N   0  0  0  0  0  0  0  0  0  0  0  0
   -0.0877  -10.9321    3.5044 H   0  0  0  0  0  0  0  0  0  0  0  0
    1.4468  -10.0992    3.6359 H   0  0  0  0  0  0  0  0  0  0  0  0
    0.6261  -10.1764    2.0897 H   0  0  0  0  0  0  0  0  0  0  0  0
   -2.3048   -9.4928    3.1739 H   0  0  0  0  0  0  0  0  0  0  0  0
   -1.5466   -8.8125    1.7226 H   0  0  0  0  0  0  0  0  0  0  0  0
   -2.1276   -7.7464    2.9907 H   0  0  0  0  0  0  0  0  0  0  0  0
   -1.3588   -8.0305    5.2305 H   0  0  0  0  0  0  0  0  0  0  0  0
   -0.5534   -9.5599    5.5181 H   0  0  0  0  0  0  0  0  0  0  0  0
    2.9362   -6.3903    7.9715 H   0  0  0  0  0  0  0  0  0  0  0  0
    3.2416   -5.6845    5.5322 H   0  0  0  0  0  0  0  0  0  0  0  0
    4.0360   -5.5119    3.5175 H   0  0  0  0  0  0  0  0  0  0  0  0
    2.7410   -4.2796    3.8696 H   0  0  0  0  0  0  0  0  0  0  0  0
    4.9689   -2.8327    2.0934 H   0  0  0  0  0  0  0  0  0  0  0  0
    0.6927   -7.0424    0.9612 H   0  0  0  0  0  0  0  0  0  0  0  0
  1  2  1  0
  1 21  1  0
  1 22  1  0
  1 23  1  0
  2  3  1  0
  2  4  1  0
  2 20  1  0
  3 24  1  0
  3 25  1  0
  3 26  1  0
  4  5  1  0
  4 27  1  0
  4 28  1  0
  5  9  2  0
  5  6  1  0
  6  7  1  0
  7  8  2  0
  7 29  1  0
  8  9  1  0
  8 30  1  0
  9 10  1  0
 10 11  1  0
 10 20  2  0
 11 18  2  0
 11 12  1  0
 12 13  1  0
 12 31  1  0
 12 32  1  0
 13 17  1  0
 13 14  1  0
 14 15  2  0
 14 33  1  0
 15 16  1  0
 16 17  2  0
 17 18  1  0
 18 19  1  0
 19 34  1  0
M  END
>  <i_m_ct_stereo_status>  (373) 
1

>  <s_m_source_file>  (373) 
/var/tmp/pbs.5076255.sched01/tmpbrgkg_oh/138myny07gr.sdf

>  <i_m_source_file_index>  (373) 
28

>  <i_lp_mmshare_version>  (373) 
48012

>  <i_f3d_flags>  (373) 
0

>  <s_epik_input>  (373) 
czFbY0hdW2NIXWMoYzEyKUMoPU5DKFtDSDNdKShbQ0gzXSlbQ0gyXTIpW0NASF0oW0NIMl0zKUMoPU8pYyhuMzQpbm5bY0hdNA==

>  <s_epik_cmdline>  (373) 
J2VwaWtfcHl0aG9uJywgJy1waHQnLCAnMi4wJywgJy1waCcsICc3LjAnLCAnLXRuJywgJzgnLCAnLW1hJywgJzIwMCcsICctaW1hZScsICc8aW5maWxlLm1hZT4nLCAnLW9tYWUnLCAnPG91dGZpbGUubWFlPic=

>  <r_lp_tautomer_probability>  (373) 
1

>  <r_epik_Ionization_Penalty>  (373) 
4.60318

>  <r_epik_Ionization_Penalty_Charging>  (373) 
0

>  <r_epik_Ionization_Penalty_Neutral>  (373) 
4.60318

>  <r_epik_State_Penalty>  (373) 
-0

>  <r_epik_Charging_Adjusted_Penalty>  (373) 
0

>  <i_epik_Tot_Q>  (373) 
0

>  <i_epik_Tot_abs_Q>  (373) 
0

>  <s_epik_Chemistry_Notes>  (373) 
This compound has an imine and may undergo hydrolysis.

>  <s_lp_Force_Field>  (373) 
OPLS3e

>  <r_lp_Energy>  (373) 
17.6877

>  <b_lp_Chiralities_Consistent>  (373) 
1

>  <s_lp_Variant>  (373) 
109:0-1

>  <s_i_glide_gridfile>  (373) 
pfpi4k_grid

>  <i_i_glide_lignum>  (373) 
28

>  <i_i_glide_rotatable_bonds>  (373) 
2

>  <r_i_docking_score>  (373) 
-3.2281

>  <r_i_glide_ligand_efficiency>  (373) 
-0.161405

>  <r_i_glide_ligand_efficiency_sa>  (373) 
-0.43812

>  <r_i_glide_ligand_efficiency_ln>  (373) 
-0.807886

>  <r_i_glide_gscore>  (373) 
-3.2281

>  <r_i_glide_lipo>  (373) 
0

>  <r_i_glide_hbond>  (373) 
-0.193326

>  <r_i_glide_metal>  (373) 
-0

>  <r_i_glide_rewards>  (373) 
-1.97778

>  <r_i_glide_evdw>  (373) 
-22.2888

>  <r_i_glide_ecoul>  (373) 
-0.707358

>  <r_i_glide_erotb>  (373) 
0.221452

>  <r_i_glide_esite>  (373) 
-0.0578999

>  <r_i_glide_emodel>  (373) 
-33.2147

>  <r_i_glide_energy>  (373) 
-22.9962

>  <r_i_glide_einternal>  (373) 
0.364625

>  <r_i_glide_intrahb_reward>  (373) 
-0.5

>  <i_i_glide_confnum>  (373) 
4

>  <i_i_glide_posenum>  (373) 
23

>  <r_i_glide_eff_state_penalty>  (373) 
0

>  <ligand_id>  (373) 
109

>  <original_smiles>  (373) 
CC1(C)Cc2sccc2C(C2Cn3cnnc3C2=O)=N1

>  <smiles>  (373) 
[H]OC1=C(C2=NC(C([H])([H])[H])(C([H])([H])[H])C([H])([H])c3sc([H])c([H])c32)C([H])([H])n2c([H])nnc21

$$$$
109:0:2
     RDKit          3D

 34 37  0  0  1  0  0  0  0  0999 V2000
    0.3030  -10.0471    3.0754 C   0  0  0  0  0  0  0  0  0  0  0  0
    0.2957   -8.5458    3.4184 C   0  0  0  0  0  0  0  0  0  0  0  0
   -0.5691   -7.7688    2.4073 C   0  0  0  0  0  0  0  0  0  0  0  0
   -0.2605   -8.3099    4.8578 C   0  0  0  0  0  0  0  0  0  0  0  0
    0.8080   -8.3103    5.8828 C   0  0  0  0  0  0  0  0  0  0  0  0
    0.5520   -8.5652    7.5908 S   0  0  0  0  0  0  0  0  0  0  0  0
    2.2360   -8.2740    7.9202 C   0  0  0  0  0  0  0  0  0  0  0  0
    2.9471   -8.0365    6.7768 C   0  0  0  0  0  0  0  0  0  0  0  0
    2.1235   -8.0766    5.5961 C   0  0  0  0  0  0  0  0  0  0  0  0
    2.5099   -7.8724    4.1554 C   0  0  0  0  0  0  0  0  0  0  0  0
    3.8688   -7.4330    3.7225 C   0  0  0  0  0  0  0  0  0  0  0  0
    4.9941   -7.0441    4.6640 C   0  0  0  0  0  0  0  0  0  0  0  0
    6.0044   -6.7123    3.7178 N   0  0  0  0  0  0  0  0  0  0  0  0
    7.2706   -6.3133    3.6412 C   0  0  0  0  0  0  0  0  0  0  0  0
    7.7166   -6.2478    2.3738 N   0  0  0  0  0  0  0  0  0  0  0  0
    6.6416   -6.6432    1.5677 N   0  0  0  0  0  0  0  0  0  0  0  0
    5.6919   -6.8908    2.4574 C   0  0  0  0  0  0  0  0  0  0  0  0
    4.3266   -7.3619    2.4518 C   0  0  0  0  0  0  0  0  0  0  0  0
    3.7119   -7.6572    1.2962 O   0  0  0  0  0  0  0  0  0  0  0  0
    1.6565   -8.0375    3.2183 N   0  0  0  0  0  0  0  0  0  0  0  0
   -0.6990  -10.4664    3.0996 H   0  0  0  0  0  0  0  0  0  0  0  0
    0.9106  -10.6105    3.7844 H   0  0  0  0  0  0  0  0  0  0  0  0
    0.7150  -10.2329    2.0820 H   0  0  0  0  0  0  0  0  0  0  0  0
   -1.6200   -8.0654    2.4355 H   0  0  0  0  0  0  0  0  0  0  0  0
   -0.2010   -7.8993    1.3869 H   0  0  0  0  0  0  0  0  0  0  0  0
   -0.5088   -6.6998    2.6242 H   0  0  0  0  0  0  0  0  0  0  0  0
   -0.7642   -7.3428    4.9012 H   0  0  0  0  0  0  0  0  0  0  0  0
   -1.0111   -9.0558    5.1148 H   0  0  0  0  0  0  0  0  0  0  0  0
    2.6299   -8.3018    8.9230 H   0  0  0  0  0  0  0  0  0  0  0  0
    4.0118   -7.8414    6.8089 H   0  0  0  0  0  0  0  0  0  0  0  0
    5.3573   -7.8815    5.2538 H   0  0  0  0  0  0  0  0  0  0  0  0
    4.7333   -6.1759    5.2646 H   0  0  0  0  0  0  0  0  0  0  0  0
    7.8493   -6.1033    4.5264 H   0  0  0  0  0  0  0  0  0  0  0  0
    2.8409   -7.9477    1.5510 H   0  0  0  0  0  0  0  0  0  0  0  0
  1  2  1  0
  1 21  1  0
  1 22  1  0
  1 23  1  0
  2  3  1  0
  2  4  1  0
  2 20  1  0
  3 24  1  0
  3 25  1  0
  3 26  1  0
  4  5  1  0
  4 27  1  0
  4 28  1  0
  5  9  2  0
  5  6  1  0
  6  7  1  0
  7  8  2  0
  7 29  1  0
  8  9  1  0
  8 30  1  0
  9 10  1  0
 10 11  1  0
 10 20  2  0
 11 18  2  0
 11 12  1  0
 12 13  1  0
 12 31  1  0
 12 32  1  0
 13 17  1  0
 13 14  1  0
 14 15  2  0
 14 33  1  0
 15 16  1  0
 16 17  2  0
 17 18  1  0
 18 19  1  0
 19 34  1  0
M  END
>  <i_m_ct_stereo_status>  (374) 
1

>  <s_m_source_file>  (374) 
/var/tmp/pbs.5076255.sched01/tmpbrgkg_oh/138myny07gr.sdf

>  <i_m_source_file_index>  (374) 
28

>  <i_lp_mmshare_version>  (374) 
48012

>  <i_f3d_flags>  (374) 
0

>  <s_epik_input>  (374) 
czFbY0hdW2NIXWMoYzEyKUMoPU5DKFtDSDNdKShbQ0gzXSlbQ0gyXTIpW0NASF0oW0NIMl0zKUMoPU8pYyhuMzQpbm5bY0hdNA==

>  <s_epik_cmdline>  (374) 
J2VwaWtfcHl0aG9uJywgJy1waHQnLCAnMi4wJywgJy1waCcsICc3LjAnLCAnLXRuJywgJzgnLCAnLW1hJywgJzIwMCcsICctaW1hZScsICc8aW5maWxlLm1hZT4nLCAnLW9tYWUnLCAnPG91dGZpbGUubWFlPic=

>  <r_lp_tautomer_probability>  (374) 
1

>  <r_epik_Ionization_Penalty>  (374) 
4.60318

>  <r_epik_Ionization_Penalty_Charging>  (374) 
0

>  <r_epik_Ionization_Penalty_Neutral>  (374) 
4.60318

>  <r_epik_State_Penalty>  (374) 
-0

>  <r_epik_Charging_Adjusted_Penalty>  (374) 
0

>  <i_epik_Tot_Q>  (374) 
0

>  <i_epik_Tot_abs_Q>  (374) 
0

>  <s_epik_Chemistry_Notes>  (374) 
This compound has an imine and may undergo hydrolysis.

>  <s_lp_Force_Field>  (374) 
OPLS3e

>  <r_lp_Energy>  (374) 
17.6877

>  <b_lp_Chiralities_Consistent>  (374) 
1

>  <s_lp_Variant>  (374) 
109:0-1

>  <s_i_glide_gridfile>  (374) 
pfpi4k_grid

>  <i_i_glide_lignum>  (374) 
28

>  <i_i_glide_rotatable_bonds>  (374) 
2

>  <r_i_docking_score>  (374) 
-2.78038

>  <r_i_glide_ligand_efficiency>  (374) 
-0.139019

>  <r_i_glide_ligand_efficiency_sa>  (374) 
-0.377356

>  <r_i_glide_ligand_efficiency_ln>  (374) 
-0.695837

>  <r_i_glide_gscore>  (374) 
-2.78038

>  <r_i_glide_lipo>  (374) 
0

>  <r_i_glide_hbond>  (374) 
0

>  <r_i_glide_metal>  (374) 
-0

>  <r_i_glide_rewards>  (374) 
-1.98106

>  <r_i_glide_evdw>  (374) 
-20.1266

>  <r_i_glide_ecoul>  (374) 
-0.0268378

>  <r_i_glide_erotb>  (374) 
0.221452

>  <r_i_glide_esite>  (374) 
-0.010412

>  <r_i_glide_emodel>  (374) 
-29.7314

>  <r_i_glide_energy>  (374) 
-20.1534

>  <r_i_glide_einternal>  (374) 
0.0662826

>  <r_i_glide_intrahb_reward>  (374) 
-0.5

>  <i_i_glide_confnum>  (374) 
1

>  <i_i_glide_posenum>  (374) 
6

>  <r_i_glide_eff_state_penalty>  (374) 
0

>  <ligand_id>  (374) 
109

>  <original_smiles>  (374) 
CC1(C)Cc2sccc2C(C2Cn3cnnc3C2=O)=N1

>  <smiles>  (374) 
[H]OC1=C(C2=NC(C([H])([H])[H])(C([H])([H])[H])C([H])([H])c3sc([H])c([H])c32)C([H])([H])n2c([H])nnc21

$$$$
110:0:0
     RDKit          3D

 25 27  0  0  1  0  0  0  0  0999 V2000
    3.0143   -1.4391   -3.9205 C   0  0  0  0  0  0  0  0  0  0  0  0
    2.6561   -2.6418   -3.4411 C   0  0  0  0  0  0  0  0  0  0  0  0
    3.2855   -3.2347   -2.1975 C   0  0  0  0  0  0  0  0  0  0  0  0
    4.4161   -2.4576   -1.6970 N   0  0  0  0  0  0  0  0  0  0  0  0
    5.4126   -3.0795   -0.9170 C   0  0  0  0  0  0  0  0  0  0  0  0
    5.1744   -4.3352   -0.2962 C   0  0  0  0  0  0  0  0  0  0  0  0
    6.1859   -4.9662    0.4594 C   0  0  0  0  0  0  0  0  0  0  0  0
    7.4261   -4.2925    0.5453 C   0  0  0  0  0  0  0  0  0  0  0  0
    8.5983   -4.5475    1.1149 N   0  0  0  0  0  0  0  0  0  0  0  0
    9.3828   -3.4487    0.8265 N   0  0  0  0  0  0  0  0  0  0  0  0
    8.7711   -2.5613    0.0992 N   0  0  0  0  0  0  0  0  0  0  0  0
    7.5282   -3.0581   -0.1024 N   0  0  0  0  0  0  0  0  0  0  0  0
    6.5962   -2.4268   -0.8143 N   0  0  0  0  0  0  0  0  0  0  0  0
    4.3346   -1.0032   -1.7996 C   0  0  0  0  0  0  0  0  0  0  0  0
    4.0403   -0.5669   -3.2423 C   0  0  0  0  0  0  0  0  0  0  0  0
    2.5618   -1.0455   -4.8172 H   0  0  0  0  0  0  0  0  0  0  0  0
    1.9045   -3.2308   -3.9497 H   0  0  0  0  0  0  0  0  0  0  0  0
    2.5168   -3.3467   -1.4317 H   0  0  0  0  0  0  0  0  0  0  0  0
    3.6512   -4.2208   -2.4688 H   0  0  0  0  0  0  0  0  0  0  0  0
    4.2220   -4.8328   -0.4042 H   0  0  0  0  0  0  0  0  0  0  0  0
    6.0440   -5.9300    0.9273 H   0  0  0  0  0  0  0  0  0  0  0  0
    3.5135   -0.6774   -1.1592 H   0  0  0  0  0  0  0  0  0  0  0  0
    5.2226   -0.4894   -1.4339 H   0  0  0  0  0  0  0  0  0  0  0  0
    4.9436   -0.6615   -3.8381 H   0  0  0  0  0  0  0  0  0  0  0  0
    3.7142    0.4747   -3.2669 H   0  0  0  0  0  0  0  0  0  0  0  0
  1 15  1  0
  1  2  2  0
  1 16  1  0
  2  3  1  0
  2 17  1  0
  3  4  1  0
  3 18  1  0
  3 19  1  0
  4  5  1  0
  4 14  1  0
  5 13  2  0
  5  6  1  0
  6  7  2  0
  6 20  1  0
  7  8  1  0
  7 21  1  0
  8 12  1  0
  8  9  2  0
  9 10  1  0
 10 11  2  0
 11 12  1  0
 12 13  1  0
 14 15  1  0
 14 22  1  0
 14 23  1  0
 15 24  1  0
 15 25  1  0
M  END
>  <i_m_ct_stereo_status>  (375) 
1

>  <s_m_source_file>  (375) 
/var/tmp/pbs.5076255.sched01/tmpbrgkg_oh/138myny07gr.sdf

>  <i_m_source_file_index>  (375) 
29

>  <i_lp_mmshare_version>  (375) 
48012

>  <i_f3d_flags>  (375) 
0

>  <s_epik_input>  (375) 
W0NIMl0xW0NIMl1bQ0hdPVtDSF1bQ0gyXU4xYyhbY0hdW2NIXTIpbm4oYzIzKW5ubjM=

>  <s_epik_cmdline>  (375) 
J2VwaWtfcHl0aG9uJywgJy1waHQnLCAnMi4wJywgJy1waCcsICc3LjAnLCAnLXRuJywgJzgnLCAnLW1hJywgJzIwMCcsICctaW1hZScsICc8aW5maWxlLm1hZT4nLCAnLW9tYWUnLCAnPG91dGZpbGUubWFlPic=

>  <r_lp_tautomer_probability>  (375) 
1

>  <r_epik_Ionization_Penalty>  (375) 
1.99395e-08

>  <r_epik_Ionization_Penalty_Charging>  (375) 
0

>  <r_epik_Ionization_Penalty_Neutral>  (375) 
1.99395e-08

>  <r_epik_State_Penalty>  (375) 
-0

>  <r_epik_Charging_Adjusted_Penalty>  (375) 
0

>  <i_epik_Tot_Q>  (375) 
0

>  <i_epik_Tot_abs_Q>  (375) 
0

>  <s_lp_Force_Field>  (375) 
OPLS3e

>  <r_lp_Energy>  (375) 
19.3289

>  <b_lp_Chiralities_Consistent>  (375) 
1

>  <s_lp_Variant>  (375) 
110:0-1

>  <s_i_glide_gridfile>  (375) 
pfpi4k_grid

>  <i_i_glide_lignum>  (375) 
29

>  <i_i_glide_rotatable_bonds>  (375) 
1

>  <r_i_docking_score>  (375) 
-4.48434

>  <r_i_glide_ligand_efficiency>  (375) 
-0.298956

>  <r_i_glide_ligand_efficiency_sa>  (375) 
-0.737289

>  <r_i_glide_ligand_efficiency_ln>  (375) 
-1.20935

>  <r_i_glide_gscore>  (375) 
-4.48434

>  <r_i_glide_lipo>  (375) 
-0.73439

>  <r_i_glide_hbond>  (375) 
-0.0427258

>  <r_i_glide_metal>  (375) 
-0

>  <r_i_glide_rewards>  (375) 
-2.42148

>  <r_i_glide_evdw>  (375) 
-23.1315

>  <r_i_glide_ecoul>  (375) 
-3.06229

>  <r_i_glide_erotb>  (375) 
0.400898

>  <r_i_glide_esite>  (375) 
-0.070726

>  <r_i_glide_emodel>  (375) 
-33.2178

>  <r_i_glide_energy>  (375) 
-26.1938

>  <r_i_glide_einternal>  (375) 
0.162431

>  <r_i_glide_intrahb_reward>  (375) 
-0

>  <i_i_glide_confnum>  (375) 
2

>  <i_i_glide_posenum>  (375) 
12

>  <r_i_glide_eff_state_penalty>  (375) 
0

>  <ligand_id>  (375) 
110

>  <original_smiles>  (375) 
C1=CCN(c2ccc3nnnn3n2)CC1

>  <smiles>  (375) 
[H]C1=C([H])C([H])([H])C([H])([H])N(c2nn3nnnc3c([H])c2[H])C1([H])[H]

$$$$
110:0:1
     RDKit          3D

 25 27  0  0  1  0  0  0  0  0999 V2000
    2.9242   -1.9254   -3.5184 C   0  0  0  0  0  0  0  0  0  0  0  0
    2.6157   -2.8722   -2.6183 C   0  0  0  0  0  0  0  0  0  0  0  0
    3.4958   -3.2002   -1.4284 C   0  0  0  0  0  0  0  0  0  0  0  0
    4.7816   -2.5063   -1.4781 N   0  0  0  0  0  0  0  0  0  0  0  0
    5.9064   -3.0825   -0.8518 C   0  0  0  0  0  0  0  0  0  0  0  0
    7.2083   -2.8206   -1.3495 C   0  0  0  0  0  0  0  0  0  0  0  0
    8.3386   -3.4021   -0.7390 C   0  0  0  0  0  0  0  0  0  0  0  0
    8.1022   -4.2593    0.3581 C   0  0  0  0  0  0  0  0  0  0  0  0
    8.8652   -5.0000    1.1512 N   0  0  0  0  0  0  0  0  0  0  0  0
    7.9849   -5.6270    2.0120 N   0  0  0  0  0  0  0  0  0  0  0  0
    6.7450   -5.3147    1.7898 N   0  0  0  0  0  0  0  0  0  0  0  0
    6.7712   -4.4503    0.7436 N   0  0  0  0  0  0  0  0  0  0  0  0
    5.6775   -3.9082    0.1991 N   0  0  0  0  0  0  0  0  0  0  0  0
    4.8132   -1.1467   -2.0155 C   0  0  0  0  0  0  0  0  0  0  0  0
    4.1728   -1.0722   -3.4161 C   0  0  0  0  0  0  0  0  0  0  0  0
    2.2587   -1.7354   -4.3443 H   0  0  0  0  0  0  0  0  0  0  0  0
    1.6999   -3.4382   -2.7261 H   0  0  0  0  0  0  0  0  0  0  0  0
    2.9649   -2.9601   -0.5057 H   0  0  0  0  0  0  0  0  0  0  0  0
    3.6755   -4.2713   -1.4456 H   0  0  0  0  0  0  0  0  0  0  0  0
    7.3424   -2.2195   -2.2330 H   0  0  0  0  0  0  0  0  0  0  0  0
    9.3399   -3.2438   -1.1113 H   0  0  0  0  0  0  0  0  0  0  0  0
    4.2427   -0.5123   -1.3374 H   0  0  0  0  0  0  0  0  0  0  0  0
    5.8120   -0.7213   -2.0359 H   0  0  0  0  0  0  0  0  0  0  0  0
    4.8713   -1.4276   -4.1734 H   0  0  0  0  0  0  0  0  0  0  0  0
    3.9294   -0.0373   -3.6634 H   0  0  0  0  0  0  0  0  0  0  0  0
  1 15  1  0
  1  2  2  0
  1 16  1  0
  2  3  1  0
  2 17  1  0
  3  4  1  0
  3 18  1  0
  3 19  1  0
  4  5  1  0
  4 14  1  0
  5 13  2  0
  5  6  1  0
  6  7  2  0
  6 20  1  0
  7  8  1  0
  7 21  1  0
  8 12  1  0
  8  9  2  0
  9 10  1  0
 10 11  2  0
 11 12  1  0
 12 13  1  0
 14 15  1  0
 14 22  1  0
 14 23  1  0
 15 24  1  0
 15 25  1  0
M  END
>  <i_m_ct_stereo_status>  (376) 
1

>  <s_m_source_file>  (376) 
/var/tmp/pbs.5076255.sched01/tmpbrgkg_oh/138myny07gr.sdf

>  <i_m_source_file_index>  (376) 
29

>  <i_lp_mmshare_version>  (376) 
48012

>  <i_f3d_flags>  (376) 
0

>  <s_epik_input>  (376) 
W0NIMl0xW0NIMl1bQ0hdPVtDSF1bQ0gyXU4xYyhbY0hdW2NIXTIpbm4oYzIzKW5ubjM=

>  <s_epik_cmdline>  (376) 
J2VwaWtfcHl0aG9uJywgJy1waHQnLCAnMi4wJywgJy1waCcsICc3LjAnLCAnLXRuJywgJzgnLCAnLW1hJywgJzIwMCcsICctaW1hZScsICc8aW5maWxlLm1hZT4nLCAnLW9tYWUnLCAnPG91dGZpbGUubWFlPic=

>  <r_lp_tautomer_probability>  (376) 
1

>  <r_epik_Ionization_Penalty>  (376) 
1.99395e-08

>  <r_epik_Ionization_Penalty_Charging>  (376) 
0

>  <r_epik_Ionization_Penalty_Neutral>  (376) 
1.99395e-08

>  <r_epik_State_Penalty>  (376) 
-0

>  <r_epik_Charging_Adjusted_Penalty>  (376) 
0

>  <i_epik_Tot_Q>  (376) 
0

>  <i_epik_Tot_abs_Q>  (376) 
0

>  <s_lp_Force_Field>  (376) 
OPLS3e

>  <r_lp_Energy>  (376) 
19.3289

>  <b_lp_Chiralities_Consistent>  (376) 
1

>  <s_lp_Variant>  (376) 
110:0-1

>  <s_i_glide_gridfile>  (376) 
pfpi4k_grid

>  <i_i_glide_lignum>  (376) 
29

>  <i_i_glide_rotatable_bonds>  (376) 
1

>  <r_i_docking_score>  (376) 
-3.88621

>  <r_i_glide_ligand_efficiency>  (376) 
-0.259081

>  <r_i_glide_ligand_efficiency_sa>  (376) 
-0.638948

>  <r_i_glide_ligand_efficiency_ln>  (376) 
-1.04805

>  <r_i_glide_gscore>  (376) 
-3.88621

>  <r_i_glide_lipo>  (376) 
-0.496867

>  <r_i_glide_hbond>  (376) 
0

>  <r_i_glide_metal>  (376) 
-0

>  <r_i_glide_rewards>  (376) 
-2.45115

>  <r_i_glide_evdw>  (376) 
-24.3971

>  <r_i_glide_ecoul>  (376) 
-0.460358

>  <r_i_glide_erotb>  (376) 
0.400898

>  <r_i_glide_esite>  (376) 
-0.0501836

>  <r_i_glide_emodel>  (376) 
-30.587

>  <r_i_glide_energy>  (376) 
-24.8575

>  <r_i_glide_einternal>  (376) 
0.83237

>  <r_i_glide_intrahb_reward>  (376) 
-0

>  <i_i_glide_confnum>  (376) 
2

>  <i_i_glide_posenum>  (376) 
1

>  <r_i_glide_eff_state_penalty>  (376) 
0

>  <ligand_id>  (376) 
110

>  <original_smiles>  (376) 
C1=CCN(c2ccc3nnnn3n2)CC1

>  <smiles>  (376) 
[H]C1=C([H])C([H])([H])C([H])([H])N(c2nn3nnnc3c([H])c2[H])C1([H])[H]

$$$$
110:0:2
     RDKit          3D

 25 27  0  0  1  0  0  0  0  0999 V2000
    4.1418   -1.4920   -3.3786 C   0  0  0  0  0  0  0  0  0  0  0  0
    3.0102   -2.2132   -3.4433 C   0  0  0  0  0  0  0  0  0  0  0  0
    2.4928   -3.0545   -2.2923 C   0  0  0  0  0  0  0  0  0  0  0  0
    3.4405   -3.1128   -1.1789 N   0  0  0  0  0  0  0  0  0  0  0  0
    3.4258   -4.2229   -0.3109 C   0  0  0  0  0  0  0  0  0  0  0  0
    4.6464   -4.7239    0.2118 C   0  0  0  0  0  0  0  0  0  0  0  0
    4.6486   -5.8702    1.0398 C   0  0  0  0  0  0  0  0  0  0  0  0
    3.3901   -6.4632    1.3118 C   0  0  0  0  0  0  0  0  0  0  0  0
    2.9673   -7.5066    2.0103 N   0  0  0  0  0  0  0  0  0  0  0  0
    1.5973   -7.5277    1.8502 N   0  0  0  0  0  0  0  0  0  0  0  0
    1.1562   -6.5628    1.1047 N   0  0  0  0  0  0  0  0  0  0  0  0
    2.2636   -5.8601    0.7411 N   0  0  0  0  0  0  0  0  0  0  0  0
    2.2214   -4.7834   -0.0408 N   0  0  0  0  0  0  0  0  0  0  0  0
    4.2508   -1.9354   -0.8757 C   0  0  0  0  0  0  0  0  0  0  0  0
    4.9994   -1.4285   -2.1246 C   0  0  0  0  0  0  0  0  0  0  0  0
    4.4775   -0.9256   -4.2372 H   0  0  0  0  0  0  0  0  0  0  0  0
    2.4140   -2.2171   -4.3418 H   0  0  0  0  0  0  0  0  0  0  0  0
    1.5374   -2.6611   -1.9543 H   0  0  0  0  0  0  0  0  0  0  0  0
    2.2908   -4.0563   -2.6718 H   0  0  0  0  0  0  0  0  0  0  0  0
    5.5806   -4.2449   -0.0491 H   0  0  0  0  0  0  0  0  0  0  0  0
    5.5578   -6.2926    1.4476 H   0  0  0  0  0  0  0  0  0  0  0  0
    3.5722   -1.1508   -0.5390 H   0  0  0  0  0  0  0  0  0  0  0  0
    4.9447   -2.1039   -0.0527 H   0  0  0  0  0  0  0  0  0  0  0  0
    5.8863   -2.0374   -2.3005 H   0  0  0  0  0  0  0  0  0  0  0  0
    5.3330   -0.4012   -1.9714 H   0  0  0  0  0  0  0  0  0  0  0  0
  1 15  1  0
  1  2  2  0
  1 16  1  0
  2  3  1  0
  2 17  1  0
  3  4  1  0
  3 18  1  0
  3 19  1  0
  4  5  1  0
  4 14  1  0
  5 13  2  0
  5  6  1  0
  6  7  2  0
  6 20  1  0
  7  8  1  0
  7 21  1  0
  8 12  1  0
  8  9  2  0
  9 10  1  0
 10 11  2  0
 11 12  1  0
 12 13  1  0
 14 15  1  0
 14 22  1  0
 14 23  1  0
 15 24  1  0
 15 25  1  0
M  END
>  <i_m_ct_stereo_status>  (377) 
1

>  <s_m_source_file>  (377) 
/var/tmp/pbs.5076255.sched01/tmpbrgkg_oh/138myny07gr.sdf

>  <i_m_source_file_index>  (377) 
29

>  <i_lp_mmshare_version>  (377) 
48012

>  <i_f3d_flags>  (377) 
0

>  <s_epik_input>  (377) 
W0NIMl0xW0NIMl1bQ0hdPVtDSF1bQ0gyXU4xYyhbY0hdW2NIXTIpbm4oYzIzKW5ubjM=

>  <s_epik_cmdline>  (377) 
J2VwaWtfcHl0aG9uJywgJy1waHQnLCAnMi4wJywgJy1waCcsICc3LjAnLCAnLXRuJywgJzgnLCAnLW1hJywgJzIwMCcsICctaW1hZScsICc8aW5maWxlLm1hZT4nLCAnLW9tYWUnLCAnPG91dGZpbGUubWFlPic=

>  <r_lp_tautomer_probability>  (377) 
1

>  <r_epik_Ionization_Penalty>  (377) 
1.99395e-08

>  <r_epik_Ionization_Penalty_Charging>  (377) 
0

>  <r_epik_Ionization_Penalty_Neutral>  (377) 
1.99395e-08

>  <r_epik_State_Penalty>  (377) 
-0

>  <r_epik_Charging_Adjusted_Penalty>  (377) 
0

>  <i_epik_Tot_Q>  (377) 
0

>  <i_epik_Tot_abs_Q>  (377) 
0

>  <s_lp_Force_Field>  (377) 
OPLS3e

>  <r_lp_Energy>  (377) 
19.3289

>  <b_lp_Chiralities_Consistent>  (377) 
1

>  <s_lp_Variant>  (377) 
110:0-1

>  <s_i_glide_gridfile>  (377) 
pfpi4k_grid

>  <i_i_glide_lignum>  (377) 
29

>  <i_i_glide_rotatable_bonds>  (377) 
1

>  <r_i_docking_score>  (377) 
-3.62204

>  <r_i_glide_ligand_efficiency>  (377) 
-0.24147

>  <r_i_glide_ligand_efficiency_sa>  (377) 
-0.595515

>  <r_i_glide_ligand_efficiency_ln>  (377) 
-0.976806

>  <r_i_glide_gscore>  (377) 
-3.62204

>  <r_i_glide_lipo>  (377) 
-0.468554

>  <r_i_glide_hbond>  (377) 
-0.00417879

>  <r_i_glide_metal>  (377) 
-0

>  <r_i_glide_rewards>  (377) 
-2.11348

>  <r_i_glide_evdw>  (377) 
-22.2463

>  <r_i_glide_ecoul>  (377) 
-1.20762

>  <r_i_glide_erotb>  (377) 
0.400898

>  <r_i_glide_esite>  (377) 
-0.143275

>  <r_i_glide_emodel>  (377) 
-28.3945

>  <r_i_glide_energy>  (377) 
-23.4539

>  <r_i_glide_einternal>  (377) 
1.47197

>  <r_i_glide_intrahb_reward>  (377) 
-0

>  <i_i_glide_confnum>  (377) 
2

>  <i_i_glide_posenum>  (377) 
23

>  <r_i_glide_eff_state_penalty>  (377) 
0

>  <ligand_id>  (377) 
110

>  <original_smiles>  (377) 
C1=CCN(c2ccc3nnnn3n2)CC1

>  <smiles>  (377) 
[H]C1=C([H])C([H])([H])C([H])([H])N(c2nn3nnnc3c([H])c2[H])C1([H])[H]

$$$$
111:0:0
     RDKit          3D

 59 63  0  0  1  0  0  0  0  0999 V2000
    3.5017   -1.1209   -1.3280 C   0  0  0  0  0  0  0  0  0  0  0  0
    4.8984   -1.5328   -1.7252 C   0  0  2  0  0  0  0  0  0  0  0  0
    4.8593   -2.4932   -2.8997 C   0  0  0  0  0  0  0  0  0  0  0  0
    4.6792   -3.8584   -2.2603 C   0  0  0  0  0  0  0  0  0  0  0  0
    5.3879   -3.7801   -0.8969 C   0  0  1  0  0  0  0  0  0  0  0  0
    5.5414   -2.2954   -0.5676 C   0  0  1  0  0  0  0  0  0  0  0  0
    6.9954   -1.8914   -0.4496 C   0  0  0  0  0  0  0  0  0  0  0  0
    7.7395   -2.4392    0.7550 C   0  0  0  0  0  0  0  0  0  0  0  0
    8.2268   -3.9165    0.7417 C   0  0  1  0  0  0  0  0  0  0  0  0
    8.9235   -4.2224   -0.5734 C   0  0  0  0  0  0  0  0  0  0  0  0
    9.4076   -4.0274    1.5270 O   0  0  0  0  0  0  0  0  0  0  0  0
    7.2989   -4.9874    1.4302 C   0  0  2  0  0  0  0  0  0  0  0  0
    7.5017   -6.3800    0.8517 C   0  0  0  0  0  0  0  0  0  0  0  0
    6.7315   -7.5228    1.5594 C   0  0  0  0  0  0  0  0  0  0  0  0
    5.2915   -7.1861    2.0201 C   0  0  1  0  0  0  0  0  0  0  0  0
    4.9958   -8.1177    3.0328 O   0  0  0  0  0  0  0  0  0  0  0  0
    5.2719   -5.7620    2.6019 C   0  0  2  0  0  0  0  0  0  0  0  0
    4.0453   -5.2527    3.0792 O   0  0  0  0  0  0  0  0  0  0  0  0
    4.1624   -3.8961    2.8404 C   0  0  2  0  0  0  0  0  0  0  0  0
    3.9553   -3.0993    4.1379 C   0  0  0  0  0  0  0  0  0  0  0  0
    3.1251   -3.5601    1.7543 C   0  0  0  0  0  0  0  0  0  0  0  0
    3.3634   -4.5112    0.5710 C   0  0  0  0  0  0  0  0  0  0  0  0
    4.8691   -4.7031    0.2347 C   0  0  2  0  0  0  0  0  0  0  0  0
    5.7596   -4.7206    1.5552 C   0  0  2  0  0  0  0  0  0  0  0  0
    5.4161   -3.5942    2.3317 O   0  0  0  0  0  0  0  0  0  0  0  0
    2.8776   -1.9804   -1.0720 H   0  0  0  0  0  0  0  0  0  0  0  0
    3.0026   -0.6074   -2.1550 H   0  0  0  0  0  0  0  0  0  0  0  0
    3.5228   -0.4725   -0.4430 H   0  0  0  0  0  0  0  0  0  0  0  0
    5.4353   -0.6269   -1.9876 H   0  0  0  0  0  0  0  0  0  0  0  0
    4.0637   -2.2643   -3.6104 H   0  0  0  0  0  0  0  0  0  0  0  0
    5.8043   -2.4759   -3.4323 H   0  0  0  0  0  0  0  0  0  0  0  0
    3.6157   -4.0370   -2.1493 H   0  0  0  0  0  0  0  0  0  0  0  0
    5.0855   -4.6534   -2.8925 H   0  0  0  0  0  0  0  0  0  0  0  0
    6.3675   -4.1616   -1.1176 H   0  0  0  0  0  0  0  0  0  0  0  0
    5.0499   -2.0447    0.3699 H   0  0  0  0  0  0  0  0  0  0  0  0
    7.5353   -2.0642   -1.3837 H   0  0  0  0  0  0  0  0  0  0  0  0
    6.9681   -0.8130   -0.2996 H   0  0  0  0  0  0  0  0  0  0  0  0
    8.6374   -1.8220    0.8287 H   0  0  0  0  0  0  0  0  0  0  0  0
    7.1240   -2.1829    1.6088 H   0  0  0  0  0  0  0  0  0  0  0  0
    8.3711   -4.1883   -1.4844 H   0  0  0  0  0  0  0  0  0  0  0  0
    9.3936   -5.2092   -0.5683 H   0  0  0  0  0  0  0  0  0  0  0  0
    9.7358   -3.4820   -0.6446 H   0  0  0  0  0  0  0  0  0  0  0  0
    9.2503   -3.7799    2.4206 H   0  0  0  0  0  0  0  0  0  0  0  0
    7.6358   -5.0643    2.4667 H   0  0  0  0  0  0  0  0  0  0  0  0
    7.1772   -6.2595   -0.1739 H   0  0  0  0  0  0  0  0  0  0  0  0
    8.5542   -6.6517    0.8306 H   0  0  0  0  0  0  0  0  0  0  0  0
    6.7104   -8.4113    0.9192 H   0  0  0  0  0  0  0  0  0  0  0  0
    7.3186   -7.8068    2.4345 H   0  0  0  0  0  0  0  0  0  0  0  0
    4.5731   -7.2852    1.2122 H   0  0  0  0  0  0  0  0  0  0  0  0
    4.8310   -8.9565    2.6419 H   0  0  0  0  0  0  0  0  0  0  0  0
    5.9344   -5.7386    3.4749 H   0  0  0  0  0  0  0  0  0  0  0  0
    4.7216   -3.3597    4.8640 H   0  0  0  0  0  0  0  0  0  0  0  0
    2.9691   -3.3197    4.5556 H   0  0  0  0  0  0  0  0  0  0  0  0
    4.0191   -2.0277    3.9264 H   0  0  0  0  0  0  0  0  0  0  0  0
    2.1231   -3.7166    2.1690 H   0  0  0  0  0  0  0  0  0  0  0  0
    3.2052   -2.5013    1.4734 H   0  0  0  0  0  0  0  0  0  0  0  0
    2.9436   -5.4781    0.8117 H   0  0  0  0  0  0  0  0  0  0  0  0
    2.7812   -4.1476   -0.2629 H   0  0  0  0  0  0  0  0  0  0  0  0
    4.9345   -5.6863   -0.2397 H   0  0  0  0  0  0  0  0  0  0  0  0
  1  2  1  0
  1 26  1  0
  1 27  1  0
  1 28  1  0
  2  6  1  0
  2  3  1  0
  2 29  1  6
  3  4  1  0
  3 30  1  0
  3 31  1  0
  4  5  1  0
  4 32  1  0
  4 33  1  0
  5 23  1  0
  5  6  1  0
  5 34  1  6
  6  7  1  0
  6 35  1  1
  7  8  1  0
  7 36  1  0
  7 37  1  0
  8  9  1  0
  8 38  1  0
  8 39  1  0
  9 10  1  0
  9 11  1  1
  9 12  1  0
 10 40  1  0
 10 41  1  0
 10 42  1  0
 11 43  1  0
 12 24  1  0
 12 13  1  0
 12 44  1  1
 13 14  1  0
 13 45  1  0
 13 46  1  0
 14 15  1  0
 14 47  1  0
 14 48  1  0
 15 16  1  0
 15 17  1  0
 15 49  1  6
 16 50  1  0
 17 24  1  0
 17 18  1  0
 17 51  1  1
 18 19  1  0
 19 25  1  0
 19 20  1  1
 19 21  1  0
 20 52  1  0
 20 53  1  0
 20 54  1  0
 21 22  1  0
 21 55  1  0
 21 56  1  0
 22 23  1  0
 22 57  1  0
 22 58  1  0
 23 24  1  0
 23 59  1  6
 24 25  1  1
M  END
>  <i_m_ct_stereo_status>  (378) 
1

>  <s_m_source_file>  (378) 
/var/tmp/pbs.5076255.sched01/tmpbrgkg_oh/138myny07gr.sdf

>  <i_m_source_file_index>  (378) 
30

>  <i_lp_mmshare_version>  (378) 
48012

>  <i_f3d_flags>  (378) 
0

>  <s_epik_input>  (378) 
W0NAQF0xMjNbQ0BASF00W0NAXShbQ0gzXSkoW09IXSlbQ0gyXVtDSDJdW0NAQEhdNVtDQEhdKFtDSDJdW0NIMl1bQ0BIXTVbQ0gzXSlbQ0BASF0yW0NIMl1bQ0gyXVtDQEBdKE8zKShbQ0gzXSlPW0NASF0xW0NASF0oW09IXSlbQ0gyXVtDSDJdNA==

>  <s_epik_cmdline>  (378) 
J2VwaWtfcHl0aG9uJywgJy1waHQnLCAnMi4wJywgJy1waCcsICc3LjAnLCAnLXRuJywgJzgnLCAnLW1hJywgJzIwMCcsICctaW1hZScsICc8aW5maWxlLm1hZT4nLCAnLW9tYWUnLCAnPG91dGZpbGUubWFlPic=

>  <r_lp_tautomer_probability>  (378) 
1

>  <r_epik_Ionization_Penalty>  (378) 
4.39389e-07

>  <r_epik_Ionization_Penalty_Charging>  (378) 
0

>  <r_epik_Ionization_Penalty_Neutral>  (378) 
4.39389e-07

>  <r_epik_State_Penalty>  (378) 
-0

>  <r_epik_Charging_Adjusted_Penalty>  (378) 
0

>  <i_epik_Tot_Q>  (378) 
0

>  <i_epik_Tot_abs_Q>  (378) 
0

>  <s_lp_Force_Field>  (378) 
OPLS3e

>  <r_lp_Energy>  (378) 
48.1197

>  <b_lp_Chiralities_Consistent>  (378) 
1

>  <s_lp_Variant>  (378) 
111:0-1

>  <s_i_glide_gridfile>  (378) 
pfpi4k_grid

>  <i_i_glide_lignum>  (378) 
30

>  <i_i_glide_rotatable_bonds>  (378) 
2

>  <r_i_docking_score>  (378) 
-3.02434

>  <r_i_glide_ligand_efficiency>  (378) 
-0.120974

>  <r_i_glide_ligand_efficiency_sa>  (378) 
-0.353729

>  <r_i_glide_ligand_efficiency_ln>  (378) 
-0.71686

>  <r_i_glide_gscore>  (378) 
-3.02434

>  <r_i_glide_lipo>  (378) 
-0.788812

>  <r_i_glide_hbond>  (378) 
-0.19203

>  <r_i_glide_metal>  (378) 
-0

>  <r_i_glide_rewards>  (378) 
-1.02246

>  <r_i_glide_evdw>  (378) 
-11.1993

>  <r_i_glide_ecoul>  (378) 
-3.07386

>  <r_i_glide_erotb>  (378) 
0

>  <r_i_glide_esite>  (378) 
0

>  <r_i_glide_emodel>  (378) 
-17.4422

>  <r_i_glide_energy>  (378) 
-14.2732

>  <r_i_glide_einternal>  (378) 
0.404906

>  <r_i_glide_intrahb_reward>  (378) 
-0

>  <i_i_glide_confnum>  (378) 
1

>  <i_i_glide_posenum>  (378) 
10

>  <r_i_glide_eff_state_penalty>  (378) 
0

>  <ligand_id>  (378) 
111

>  <original_smiles>  (378) 
CC1CCC2C1CCC(C)(O)C1CCC(O)C3OC4(C)CCC2C31O4

>  <smiles>  (378) 
[H]OC1([H])C([H])([H])C([H])([H])C2([H])C(O[H])(C([H])([H])[H])C([H])([H])C([H])([H])C3([H])C([H])(C([H])([H])[H])C([H])([H])C([H])([H])C3([H])C3([H])C([H])([H])C([H])([H])C4(C([H])([H])[H])OC1([H])C32O4

$$$$
111:0:1
     RDKit          3D

 59 63  0  0  1  0  0  0  0  0999 V2000
    4.9648   -1.0060   -1.7281 C   0  0  0  0  0  0  0  0  0  0  0  0
    5.1391   -2.5235   -1.6195 C   0  0  2  0  0  0  0  0  0  0  0  0
    3.9396   -3.2627   -2.2105 C   0  0  0  0  0  0  0  0  0  0  0  0
    2.9479   -3.3900   -1.0572 C   0  0  0  0  0  0  0  0  0  0  0  0
    3.8136   -3.5012    0.2122 C   0  0  1  0  0  0  0  0  0  0  0  0
    5.2212   -2.9897   -0.1481 C   0  0  1  0  0  0  0  0  0  0  0  0
    6.2837   -4.0881    0.0309 C   0  0  0  0  0  0  0  0  0  0  0  0
    6.6046   -4.5108    1.4755 C   0  0  0  0  0  0  0  0  0  0  0  0
    5.6173   -5.4558    2.2192 C   0  0  1  0  0  0  0  0  0  0  0  0
    5.2293   -6.6948    1.3648 C   0  0  0  0  0  0  0  0  0  0  0  0
    6.4594   -6.0640    3.1870 O   0  0  0  0  0  0  0  0  0  0  0  0
    4.4625   -4.7781    3.0734 C   0  0  2  0  0  0  0  0  0  0  0  0
    3.1702   -5.6324    3.2193 C   0  0  0  0  0  0  0  0  0  0  0  0
    2.1666   -5.1014    4.2792 C   0  0  0  0  0  0  0  0  0  0  0  0
    1.9524   -3.5671    4.2953 C   0  0  1  0  0  0  0  0  0  0  0  0
    1.3526   -3.2574    5.5370 O   0  0  0  0  0  0  0  0  0  0  0  0
    3.3171   -2.8696    4.1575 C   0  0  2  0  0  0  0  0  0  0  0  0
    3.3348   -1.4582    4.1476 O   0  0  0  0  0  0  0  0  0  0  0  0
    4.4116   -1.1487    3.3234 C   0  0  2  0  0  0  0  0  0  0  0  0
    5.3975   -0.2316    4.0553 C   0  0  0  0  0  0  0  0  0  0  0  0
    3.8372   -0.5136    2.0559 C   0  0  0  0  0  0  0  0  0  0  0  0
    2.7886   -1.4721    1.4826 C   0  0  0  0  0  0  0  0  0  0  0  0
    3.2019   -2.9716    1.5321 C   0  0  2  0  0  0  0  0  0  0  0  0
    4.0348   -3.2849    2.8443 C   0  0  2  0  0  0  0  0  0  0  0  0
    5.0685   -2.3300    2.9638 O   0  0  0  0  0  0  0  0  0  0  0  0
    4.0550   -0.6727   -1.2300 H   0  0  0  0  0  0  0  0  0  0  0  0
    4.9049   -0.6883   -2.7688 H   0  0  0  0  0  0  0  0  0  0  0  0
    5.8029   -0.4863   -1.2655 H   0  0  0  0  0  0  0  0  0  0  0  0
    6.0396   -2.7923   -2.1752 H   0  0  0  0  0  0  0  0  0  0  0  0
    3.5072   -2.7568   -3.0754 H   0  0  0  0  0  0  0  0  0  0  0  0
    4.2558   -4.2549   -2.5368 H   0  0  0  0  0  0  0  0  0  0  0  0
    2.2974   -2.5237   -1.0493 H   0  0  0  0  0  0  0  0  0  0  0  0
    2.2961   -4.2546   -1.1865 H   0  0  0  0  0  0  0  0  0  0  0  0
    3.8809   -4.5676    0.3463 H   0  0  0  0  0  0  0  0  0  0  0  0
    5.5118   -2.1489    0.4774 H   0  0  0  0  0  0  0  0  0  0  0  0
    6.0217   -4.9604   -0.5674 H   0  0  0  0  0  0  0  0  0  0  0  0
    7.2152   -3.7138   -0.3959 H   0  0  0  0  0  0  0  0  0  0  0  0
    7.5626   -5.0272    1.4049 H   0  0  0  0  0  0  0  0  0  0  0  0
    6.8326   -3.6312    2.0724 H   0  0  0  0  0  0  0  0  0  0  0  0
    4.5164   -6.5000    0.5695 H   0  0  0  0  0  0  0  0  0  0  0  0
    4.8082   -7.5021    1.9623 H   0  0  0  0  0  0  0  0  0  0  0  0
    6.1176   -7.1094    0.8881 H   0  0  0  0  0  0  0  0  0  0  0  0
    5.9776   -6.7598    3.6056 H   0  0  0  0  0  0  0  0  0  0  0  0
    4.8774   -4.7584    4.0832 H   0  0  0  0  0  0  0  0  0  0  0  0
    2.6729   -5.7163    2.2535 H   0  0  0  0  0  0  0  0  0  0  0  0
    3.4348   -6.6507    3.5114 H   0  0  0  0  0  0  0  0  0  0  0  0
    1.2041   -5.5995    4.1480 H   0  0  0  0  0  0  0  0  0  0  0  0
    2.5345   -5.4143    5.2582 H   0  0  0  0  0  0  0  0  0  0  0  0
    1.2682   -3.2554    3.5074 H   0  0  0  0  0  0  0  0  0  0  0  0
    1.9787   -3.4294    6.2253 H   0  0  0  0  0  0  0  0  0  0  0  0
    3.9339   -3.1276    5.0218 H   0  0  0  0  0  0  0  0  0  0  0  0
    5.7863   -0.7277    4.9452 H   0  0  0  0  0  0  0  0  0  0  0  0
    4.8996    0.6943    4.3489 H   0  0  0  0  0  0  0  0  0  0  0  0
    6.2312    0.0110    3.3944 H   0  0  0  0  0  0  0  0  0  0  0  0
    3.3757    0.4423    2.3118 H   0  0  0  0  0  0  0  0  0  0  0  0
    4.6369   -0.3135    1.3442 H   0  0  0  0  0  0  0  0  0  0  0  0
    1.8657   -1.3510    2.0560 H   0  0  0  0  0  0  0  0  0  0  0  0
    2.5606   -1.1344    0.4780 H   0  0  0  0  0  0  0  0  0  0  0  0
    2.2647   -3.5250    1.5914 H   0  0  0  0  0  0  0  0  0  0  0  0
  1  2  1  0
  1 26  1  0
  1 27  1  0
  1 28  1  0
  2  6  1  0
  2  3  1  0
  2 29  1  6
  3  4  1  0
  3 30  1  0
  3 31  1  0
  4  5  1  0
  4 32  1  0
  4 33  1  0
  5 23  1  0
  5  6  1  0
  5 34  1  1
  6  7  1  0
  6 35  1  1
  7  8  1  0
  7 36  1  0
  7 37  1  0
  8  9  1  0
  8 38  1  0
  8 39  1  0
  9 10  1  0
  9 11  1  1
  9 12  1  0
 10 40  1  0
 10 41  1  0
 10 42  1  0
 11 43  1  0
 12 24  1  0
 12 13  1  0
 12 44  1  1
 13 14  1  0
 13 45  1  0
 13 46  1  0
 14 15  1  0
 14 47  1  0
 14 48  1  0
 15 16  1  0
 15 17  1  0
 15 49  1  6
 16 50  1  0
 17 24  1  0
 17 18  1  0
 17 51  1  1
 18 19  1  0
 19 25  1  0
 19 20  1  1
 19 21  1  0
 20 52  1  0
 20 53  1  0
 20 54  1  0
 21 22  1  0
 21 55  1  0
 21 56  1  0
 22 23  1  0
 22 57  1  0
 22 58  1  0
 23 24  1  0
 23 59  1  1
 24 25  1  6
M  END
>  <i_m_ct_stereo_status>  (379) 
1

>  <s_m_source_file>  (379) 
/var/tmp/pbs.5076255.sched01/tmpbrgkg_oh/138myny07gr.sdf

>  <i_m_source_file_index>  (379) 
30

>  <i_lp_mmshare_version>  (379) 
48012

>  <i_f3d_flags>  (379) 
0

>  <s_epik_input>  (379) 
W0NAQF0xMjNbQ0BASF00W0NAXShbQ0gzXSkoW09IXSlbQ0gyXVtDSDJdW0NAQEhdNVtDQEhdKFtDSDJdW0NIMl1bQ0BIXTVbQ0gzXSlbQ0BASF0yW0NIMl1bQ0gyXVtDQEBdKE8zKShbQ0gzXSlPW0NASF0xW0NASF0oW09IXSlbQ0gyXVtDSDJdNA==

>  <s_epik_cmdline>  (379) 
J2VwaWtfcHl0aG9uJywgJy1waHQnLCAnMi4wJywgJy1waCcsICc3LjAnLCAnLXRuJywgJzgnLCAnLW1hJywgJzIwMCcsICctaW1hZScsICc8aW5maWxlLm1hZT4nLCAnLW9tYWUnLCAnPG91dGZpbGUubWFlPic=

>  <r_lp_tautomer_probability>  (379) 
1

>  <r_epik_Ionization_Penalty>  (379) 
4.39389e-07

>  <r_epik_Ionization_Penalty_Charging>  (379) 
0

>  <r_epik_Ionization_Penalty_Neutral>  (379) 
4.39389e-07

>  <r_epik_State_Penalty>  (379) 
-0

>  <r_epik_Charging_Adjusted_Penalty>  (379) 
0

>  <i_epik_Tot_Q>  (379) 
0

>  <i_epik_Tot_abs_Q>  (379) 
0

>  <s_lp_Force_Field>  (379) 
OPLS3e

>  <r_lp_Energy>  (379) 
48.1197

>  <b_lp_Chiralities_Consistent>  (379) 
1

>  <s_lp_Variant>  (379) 
111:0-1

>  <s_i_glide_gridfile>  (379) 
pfpi4k_grid

>  <i_i_glide_lignum>  (379) 
30

>  <i_i_glide_rotatable_bonds>  (379) 
2

>  <r_i_docking_score>  (379) 
-2.87282

>  <r_i_glide_ligand_efficiency>  (379) 
-0.114913

>  <r_i_glide_ligand_efficiency_sa>  (379) 
-0.336007

>  <r_i_glide_ligand_efficiency_ln>  (379) 
-0.680944

>  <r_i_glide_gscore>  (379) 
-2.87282

>  <r_i_glide_lipo>  (379) 
-0.514134

>  <r_i_glide_hbond>  (379) 
0

>  <r_i_glide_metal>  (379) 
-0

>  <r_i_glide_rewards>  (379) 
-1.06879

>  <r_i_glide_evdw>  (379) 
-22.9028

>  <r_i_glide_ecoul>  (379) 
-0.965039

>  <r_i_glide_erotb>  (379) 
0

>  <r_i_glide_esite>  (379) 
0

>  <r_i_glide_emodel>  (379) 
-27.9834

>  <r_i_glide_energy>  (379) 
-23.8678

>  <r_i_glide_einternal>  (379) 
0.0143449

>  <r_i_glide_intrahb_reward>  (379) 
-0

>  <i_i_glide_confnum>  (379) 
1

>  <i_i_glide_posenum>  (379) 
31

>  <r_i_glide_eff_state_penalty>  (379) 
0

>  <ligand_id>  (379) 
111

>  <original_smiles>  (379) 
CC1CCC2C1CCC(C)(O)C1CCC(O)C3OC4(C)CCC2C31O4

>  <smiles>  (379) 
[H]OC1([H])C([H])([H])C([H])([H])C2([H])C(O[H])(C([H])([H])[H])C([H])([H])C([H])([H])C3([H])C([H])(C([H])([H])[H])C([H])([H])C([H])([H])C3([H])C3([H])C([H])([H])C([H])([H])C4(C([H])([H])[H])OC1([H])C32O4

$$$$
111:0:2
     RDKit          3D

 59 63  0  0  1  0  0  0  0  0999 V2000
    5.3905   -1.0717   -1.3012 C   0  0  0  0  0  0  0  0  0  0  0  0
    5.4381   -2.6068   -1.3052 C   0  0  2  0  0  0  0  0  0  0  0  0
    4.2927   -3.2043   -2.1227 C   0  0  0  0  0  0  0  0  0  0  0  0
    3.1343   -3.3157   -1.1374 C   0  0  0  0  0  0  0  0  0  0  0  0
    3.7904   -3.5991    0.2270 C   0  0  1  0  0  0  0  0  0  0  0  0
    5.2703   -3.1890    0.1149 C   0  0  1  0  0  0  0  0  0  0  0  0
    6.2132   -4.3828    0.3469 C   0  0  0  0  0  0  0  0  0  0  0  0
    6.2817   -4.9293    1.7876 C   0  0  0  0  0  0  0  0  0  0  0  0
    5.1233   -5.8412    2.2953 C   0  0  1  0  0  0  0  0  0  0  0  0
    4.7759   -6.9771    1.2917 C   0  0  0  0  0  0  0  0  0  0  0  0
    5.7529   -6.5879    3.3255 O   0  0  0  0  0  0  0  0  0  0  0  0
    3.9073   -5.1291    3.0312 C   0  0  2  0  0  0  0  0  0  0  0  0
    2.5473   -5.8766    2.9206 C   0  0  0  0  0  0  0  0  0  0  0  0
    1.4392   -5.3398    3.8681 C   0  0  0  0  0  0  0  0  0  0  0  0
    1.3398   -3.7996    3.9847 C   0  0  1  0  0  0  0  0  0  0  0  0
    0.5850   -3.5319    5.1473 O   0  0  0  0  0  0  0  0  0  0  0  0
    2.7561   -3.2147    4.0992 C   0  0  2  0  0  0  0  0  0  0  0  0
    2.8716   -1.8132    4.2049 O   0  0  0  0  0  0  0  0  0  0  0  0
    4.0814   -1.5349    3.5781 C   0  0  2  0  0  0  0  0  0  0  0  0
    5.0054   -0.7578    4.5201 C   0  0  0  0  0  0  0  0  0  0  0  0
    3.7531   -0.7626    2.2960 C   0  0  0  0  0  0  0  0  0  0  0  0
    2.7307   -1.5855    1.5028 C   0  0  0  0  0  0  0  0  0  0  0  0
    3.0277   -3.1142    1.4850 C   0  0  2  0  0  0  0  0  0  0  0  0
    3.6307   -3.5912    2.8719 C   0  0  2  0  0  0  0  0  0  0  0  0
    4.6995   -2.7358    3.2199 O   0  0  0  0  0  0  0  0  0  0  0  0
    4.4481   -0.6936   -0.9062 H   0  0  0  0  0  0  0  0  0  0  0  0
    5.5014   -0.6791   -2.3118 H   0  0  0  0  0  0  0  0  0  0  0  0
    6.1894   -0.6651   -0.6806 H   0  0  0  0  0  0  0  0  0  0  0  0
    6.3885   -2.9098   -1.7469 H   0  0  0  0  0  0  0  0  0  0  0  0
    4.0355   -2.6027   -2.9974 H   0  0  0  0  0  0  0  0  0  0  0  0
    4.5752   -4.1983   -2.4792 H   0  0  0  0  0  0  0  0  0  0  0  0
    2.5823   -2.3821   -1.1560 H   0  0  0  0  0  0  0  0  0  0  0  0
    2.4387   -4.1035   -1.4255 H   0  0  0  0  0  0  0  0  0  0  0  0
    3.7555   -4.6738    0.2792 H   0  0  0  0  0  0  0  0  0  0  0  0
    5.5243   -2.4239    0.8460 H   0  0  0  0  0  0  0  0  0  0  0  0
    5.9876   -5.1907   -0.3472 H   0  0  0  0  0  0  0  0  0  0  0  0
    7.2235   -4.0551    0.0937 H   0  0  0  0  0  0  0  0  0  0  0  0
    7.2016   -5.5156    1.8074 H   0  0  0  0  0  0  0  0  0  0  0  0
    6.4769   -4.1182    2.4815 H   0  0  0  0  0  0  0  0  0  0  0  0
    4.1937   -6.6668    0.4283 H   0  0  0  0  0  0  0  0  0  0  0  0
    4.2171   -7.7839    1.7632 H   0  0  0  0  0  0  0  0  0  0  0  0
    5.6834   -7.4321    0.8933 H   0  0  0  0  0  0  0  0  0  0  0  0
    6.4566   -7.0868    2.9449 H   0  0  0  0  0  0  0  0  0  0  0  0
    4.1633   -5.2218    4.0870 H   0  0  0  0  0  0  0  0  0  0  0  0
    2.1954   -5.8481    1.8894 H   0  0  0  0  0  0  0  0  0  0  0  0
    2.6898   -6.9322    3.1601 H   0  0  0  0  0  0  0  0  0  0  0  0
    0.4723   -5.7415    3.5605 H   0  0  0  0  0  0  0  0  0  0  0  0
    1.6323   -5.7541    4.8593 H   0  0  0  0  0  0  0  0  0  0  0  0
    0.8065   -3.3703    3.1389 H   0  0  0  0  0  0  0  0  0  0  0  0
    1.0897   -3.8000    5.9039 H   0  0  0  0  0  0  0  0  0  0  0  0
    3.2190   -3.5835    5.0194 H   0  0  0  0  0  0  0  0  0  0  0  0
    5.2208   -1.3530    5.4067 H   0  0  0  0  0  0  0  0  0  0  0  0
    4.5329    0.1788    4.8193 H   0  0  0  0  0  0  0  0  0  0  0  0
    5.9406   -0.5348    4.0056 H   0  0  0  0  0  0  0  0  0  0  0  0
    3.3317    0.2090    2.5630 H   0  0  0  0  0  0  0  0  0  0  0  0
    4.6660   -0.5825    1.7259 H   0  0  0  0  0  0  0  0  0  0  0  0
    1.7490   -1.4330    1.9503 H   0  0  0  0  0  0  0  0  0  0  0  0
    2.6379   -1.1552    0.5131 H   0  0  0  0  0  0  0  0  0  0  0  0
    2.0573   -3.5935    1.3647 H   0  0  0  0  0  0  0  0  0  0  0  0
  1  2  1  0
  1 26  1  0
  1 27  1  0
  1 28  1  0
  2  6  1  0
  2  3  1  0
  2 29  1  6
  3  4  1  0
  3 30  1  0
  3 31  1  0
  4  5  1  0
  4 32  1  0
  4 33  1  0
  5 23  1  0
  5  6  1  0
  5 34  1  1
  6  7  1  0
  6 35  1  1
  7  8  1  0
  7 36  1  0
  7 37  1  0
  8  9  1  0
  8 38  1  0
  8 39  1  0
  9 10  1  0
  9 11  1  1
  9 12  1  0
 10 40  1  0
 10 41  1  0
 10 42  1  0
 11 43  1  0
 12 24  1  0
 12 13  1  0
 12 44  1  1
 13 14  1  0
 13 45  1  0
 13 46  1  0
 14 15  1  0
 14 47  1  0
 14 48  1  0
 15 16  1  0
 15 17  1  0
 15 49  1  6
 16 50  1  0
 17 24  1  0
 17 18  1  0
 17 51  1  1
 18 19  1  0
 19 25  1  0
 19 20  1  1
 19 21  1  0
 20 52  1  0
 20 53  1  0
 20 54  1  0
 21 22  1  0
 21 55  1  0
 21 56  1  0
 22 23  1  0
 22 57  1  0
 22 58  1  0
 23 24  1  0
 23 59  1  6
 24 25  1  1
M  END
>  <i_m_ct_stereo_status>  (380) 
1

>  <s_m_source_file>  (380) 
/var/tmp/pbs.5076255.sched01/tmpbrgkg_oh/138myny07gr.sdf

>  <i_m_source_file_index>  (380) 
30

>  <i_lp_mmshare_version>  (380) 
48012

>  <i_f3d_flags>  (380) 
0

>  <s_epik_input>  (380) 
W0NAQF0xMjNbQ0BASF00W0NAXShbQ0gzXSkoW09IXSlbQ0gyXVtDSDJdW0NAQEhdNVtDQEhdKFtDSDJdW0NIMl1bQ0BIXTVbQ0gzXSlbQ0BASF0yW0NIMl1bQ0gyXVtDQEBdKE8zKShbQ0gzXSlPW0NASF0xW0NASF0oW09IXSlbQ0gyXVtDSDJdNA==

>  <s_epik_cmdline>  (380) 
J2VwaWtfcHl0aG9uJywgJy1waHQnLCAnMi4wJywgJy1waCcsICc3LjAnLCAnLXRuJywgJzgnLCAnLW1hJywgJzIwMCcsICctaW1hZScsICc8aW5maWxlLm1hZT4nLCAnLW9tYWUnLCAnPG91dGZpbGUubWFlPic=

>  <r_lp_tautomer_probability>  (380) 
1

>  <r_epik_Ionization_Penalty>  (380) 
4.39389e-07

>  <r_epik_Ionization_Penalty_Charging>  (380) 
0

>  <r_epik_Ionization_Penalty_Neutral>  (380) 
4.39389e-07

>  <r_epik_State_Penalty>  (380) 
-0

>  <r_epik_Charging_Adjusted_Penalty>  (380) 
0

>  <i_epik_Tot_Q>  (380) 
0

>  <i_epik_Tot_abs_Q>  (380) 
0

>  <s_lp_Force_Field>  (380) 
OPLS3e

>  <r_lp_Energy>  (380) 
48.1197

>  <b_lp_Chiralities_Consistent>  (380) 
1

>  <s_lp_Variant>  (380) 
111:0-1

>  <s_i_glide_gridfile>  (380) 
pfpi4k_grid

>  <i_i_glide_lignum>  (380) 
30

>  <i_i_glide_rotatable_bonds>  (380) 
2

>  <r_i_docking_score>  (380) 
-2.74907

>  <r_i_glide_ligand_efficiency>  (380) 
-0.109963

>  <r_i_glide_ligand_efficiency_sa>  (380) 
-0.321533

>  <r_i_glide_ligand_efficiency_ln>  (380) 
-0.651613

>  <r_i_glide_gscore>  (380) 
-2.74907

>  <r_i_glide_lipo>  (380) 
-0.478666

>  <r_i_glide_hbond>  (380) 
0

>  <r_i_glide_metal>  (380) 
-0

>  <r_i_glide_rewards>  (380) 
-1.02008

>  <r_i_glide_evdw>  (380) 
-23.2356

>  <r_i_glide_ecoul>  (380) 
-0.59033

>  <r_i_glide_erotb>  (380) 
0

>  <r_i_glide_esite>  (380) 
0

>  <r_i_glide_emodel>  (380) 
-27.7472

>  <r_i_glide_energy>  (380) 
-23.8259

>  <r_i_glide_einternal>  (380) 
0.0144343

>  <r_i_glide_intrahb_reward>  (380) 
-0

>  <i_i_glide_confnum>  (380) 
2

>  <i_i_glide_posenum>  (380) 
29

>  <r_i_glide_eff_state_penalty>  (380) 
0

>  <ligand_id>  (380) 
111

>  <original_smiles>  (380) 
CC1CCC2C1CCC(C)(O)C1CCC(O)C3OC4(C)CCC2C31O4

>  <smiles>  (380) 
[H]OC1([H])C([H])([H])C([H])([H])C2([H])C(O[H])(C([H])([H])[H])C([H])([H])C([H])([H])C3([H])C([H])(C([H])([H])[H])C([H])([H])C([H])([H])C3([H])C3([H])C([H])([H])C([H])([H])C4(C([H])([H])[H])OC1([H])C32O4

$$$$
113:0:0
     RDKit          3D

 17 19  0  0  1  0  0  0  0  0999 V2000
   -4.4475  -10.0468   -5.5526 C   0  0  0  0  0  0  0  0  0  0  0  0
   -4.6391   -8.7295   -5.1640 C   0  0  0  0  0  0  0  0  0  0  0  0
   -5.7045   -8.1482   -5.7961 C   0  0  0  0  0  0  0  0  0  0  0  0
   -6.3524   -8.9917   -6.6809 C   0  0  0  0  0  0  0  0  0  0  0  0
   -7.4529   -8.4824   -7.3728 C   0  0  0  0  0  0  0  0  0  0  0  0
   -7.8807   -7.1543   -7.1600 C   0  0  0  0  0  0  0  0  0  0  0  0
   -7.2211   -6.3137   -6.2451 C   0  0  0  0  0  0  0  0  0  0  0  0
   -7.6291   -4.6707   -5.8515 S   0  0  0  0  0  0  0  0  0  0  0  0
   -6.2089   -4.7675   -4.7757 C   0  0  0  0  0  0  0  0  0  0  0  0
   -5.5118   -5.9233   -4.7169 N   0  0  0  0  0  0  0  0  0  0  0  0
   -6.1120   -6.8079   -5.5604 C   0  0  0  0  0  0  0  0  0  0  0  0
   -5.6316  -10.5905   -6.7593 S   0  0  0  0  0  0  0  0  0  0  0  0
   -3.6945  -10.7236   -5.1989 H   0  0  0  0  0  0  0  0  0  0  0  0
   -4.0713   -8.1563   -4.4477 H   0  0  0  0  0  0  0  0  0  0  0  0
   -7.9874   -9.1058   -8.0685 H   0  0  0  0  0  0  0  0  0  0  0  0
   -8.7265   -6.7797   -7.6933 H   0  0  0  0  0  0  0  0  0  0  0  0
   -5.8902   -3.9364   -4.1676 H   0  0  0  0  0  0  0  0  0  0  0  0
  1 12  1  0
  1  2  2  0
  1 13  1  0
  2  3  1  0
  2 14  1  0
  3 11  1  0
  3  4  2  0
  4  5  1  0
  4 12  1  0
  5  6  2  0
  5 15  1  0
  6  7  1  0
  6 16  1  0
  7 11  2  0
  7  8  1  0
  8  9  1  0
  9 10  2  0
  9 17  1  0
 10 11  1  0
M  END
>  <i_m_ct_stereo_status>  (381) 
1

>  <s_m_source_file>  (381) 
/var/tmp/pbs.5076255.sched01/tmpbrgkg_oh/138myny07gr.sdf

>  <i_m_source_file_index>  (381) 
32

>  <i_lp_mmshare_version>  (381) 
48012

>  <i_f3d_flags>  (381) 
0

>  <s_epik_input>  (381) 
W2NIXTFbY0hdc2MoYzEyKVtjSF1bY0hdYzNjMm5bY0hdczM=

>  <s_epik_cmdline>  (381) 
J2VwaWtfcHl0aG9uJywgJy1waHQnLCAnMi4wJywgJy1waCcsICc3LjAnLCAnLXRuJywgJzgnLCAnLW1hJywgJzIwMCcsICctaW1hZScsICc8aW5maWxlLm1hZT4nLCAnLW9tYWUnLCAnPG91dGZpbGUubWFlPic=

>  <r_lp_tautomer_probability>  (381) 
1

>  <r_epik_Ionization_Penalty>  (381) 
2.05433e-05

>  <r_epik_Ionization_Penalty_Charging>  (381) 
0

>  <r_epik_Ionization_Penalty_Neutral>  (381) 
2.05433e-05

>  <r_epik_State_Penalty>  (381) 
-0

>  <r_epik_Charging_Adjusted_Penalty>  (381) 
0

>  <i_epik_Tot_Q>  (381) 
0

>  <i_epik_Tot_abs_Q>  (381) 
0

>  <s_lp_Force_Field>  (381) 
OPLS3e

>  <r_lp_Energy>  (381) 
9.16379

>  <b_lp_Chiralities_Consistent>  (381) 
1

>  <s_lp_Variant>  (381) 
113:0-1

>  <s_i_glide_gridfile>  (381) 
pfpi4k_grid

>  <i_i_glide_lignum>  (381) 
32

>  <i_i_glide_rotatable_bonds>  (381) 
0

>  <r_i_docking_score>  (381) 
-7.54618

>  <r_i_glide_ligand_efficiency>  (381) 
-0.628849

>  <r_i_glide_ligand_efficiency_sa>  (381) 
-1.4397

>  <r_i_glide_ligand_efficiency_ln>  (381) 
-2.16539

>  <r_i_glide_gscore>  (381) 
-7.54618

>  <r_i_glide_lipo>  (381) 
-2.42617

>  <r_i_glide_hbond>  (381) 
-0.0503371

>  <r_i_glide_metal>  (381) 
-0

>  <r_i_glide_rewards>  (381) 
-3.34661

>  <r_i_glide_evdw>  (381) 
-26.468

>  <r_i_glide_ecoul>  (381) 
-2.6644

>  <r_i_glide_erotb>  (381) 
0

>  <r_i_glide_esite>  (381) 
0

>  <r_i_glide_emodel>  (381) 
-42.4133

>  <r_i_glide_energy>  (381) 
-29.1324

>  <r_i_glide_einternal>  (381) 
0

>  <r_i_glide_intrahb_reward>  (381) 
-0

>  <i_i_glide_confnum>  (381) 
1

>  <i_i_glide_posenum>  (381) 
6

>  <r_i_glide_eff_state_penalty>  (381) 
0

>  <ligand_id>  (381) 
113

>  <original_smiles>  (381) 
c1cc2c(ccc3scnc32)s1

>  <smiles>  (381) 
[H]c1nc2c(s1)c([H])c([H])c1sc([H])c([H])c12

$$$$
113:0:1
     RDKit          3D

 17 19  0  0  1  0  0  0  0  0999 V2000
   -6.8143   -4.6597   -4.5806 C   0  0  0  0  0  0  0  0  0  0  0  0
   -7.8390   -4.6967   -5.5116 C   0  0  0  0  0  0  0  0  0  0  0  0
   -7.7726   -5.8047   -6.3143 C   0  0  0  0  0  0  0  0  0  0  0  0
   -6.7185   -6.6488   -6.0184 C   0  0  0  0  0  0  0  0  0  0  0  0
   -6.5702   -7.8115   -6.7781 C   0  0  0  0  0  0  0  0  0  0  0  0
   -7.4792   -8.0990   -7.8165 C   0  0  0  0  0  0  0  0  0  0  0  0
   -8.5477   -7.2336   -8.1090 C   0  0  0  0  0  0  0  0  0  0  0  0
   -9.7641   -7.4520   -9.3308 S   0  0  0  0  0  0  0  0  0  0  0  0
  -10.4159   -5.9149   -8.7039 C   0  0  0  0  0  0  0  0  0  0  0  0
   -9.7586   -5.2874   -7.6999 N   0  0  0  0  0  0  0  0  0  0  0  0
   -8.6976   -6.0676   -7.3585 C   0  0  0  0  0  0  0  0  0  0  0  0
   -5.7226   -6.0599   -4.7102 S   0  0  0  0  0  0  0  0  0  0  0  0
   -6.6312   -3.9104   -3.8338 H   0  0  0  0  0  0  0  0  0  0  0  0
   -8.6355   -3.9835   -5.6583 H   0  0  0  0  0  0  0  0  0  0  0  0
   -5.7559   -8.4826   -6.5767 H   0  0  0  0  0  0  0  0  0  0  0  0
   -7.3591   -8.9919   -8.3941 H   0  0  0  0  0  0  0  0  0  0  0  0
  -11.3150   -5.4725   -9.1009 H   0  0  0  0  0  0  0  0  0  0  0  0
  1 12  1  0
  1  2  2  0
  1 13  1  0
  2  3  1  0
  2 14  1  0
  3 11  1  0
  3  4  2  0
  4  5  1  0
  4 12  1  0
  5  6  2  0
  5 15  1  0
  6  7  1  0
  6 16  1  0
  7 11  2  0
  7  8  1  0
  8  9  1  0
  9 10  2  0
  9 17  1  0
 10 11  1  0
M  END
>  <i_m_ct_stereo_status>  (382) 
1

>  <s_m_source_file>  (382) 
/var/tmp/pbs.5076255.sched01/tmpbrgkg_oh/138myny07gr.sdf

>  <i_m_source_file_index>  (382) 
32

>  <i_lp_mmshare_version>  (382) 
48012

>  <i_f3d_flags>  (382) 
0

>  <s_epik_input>  (382) 
W2NIXTFbY0hdc2MoYzEyKVtjSF1bY0hdYzNjMm5bY0hdczM=

>  <s_epik_cmdline>  (382) 
J2VwaWtfcHl0aG9uJywgJy1waHQnLCAnMi4wJywgJy1waCcsICc3LjAnLCAnLXRuJywgJzgnLCAnLW1hJywgJzIwMCcsICctaW1hZScsICc8aW5maWxlLm1hZT4nLCAnLW9tYWUnLCAnPG91dGZpbGUubWFlPic=

>  <r_lp_tautomer_probability>  (382) 
1

>  <r_epik_Ionization_Penalty>  (382) 
2.05433e-05

>  <r_epik_Ionization_Penalty_Charging>  (382) 
0

>  <r_epik_Ionization_Penalty_Neutral>  (382) 
2.05433e-05

>  <r_epik_State_Penalty>  (382) 
-0

>  <r_epik_Charging_Adjusted_Penalty>  (382) 
0

>  <i_epik_Tot_Q>  (382) 
0

>  <i_epik_Tot_abs_Q>  (382) 
0

>  <s_lp_Force_Field>  (382) 
OPLS3e

>  <r_lp_Energy>  (382) 
9.16379

>  <b_lp_Chiralities_Consistent>  (382) 
1

>  <s_lp_Variant>  (382) 
113:0-1

>  <s_i_glide_gridfile>  (382) 
pfpi4k_grid

>  <i_i_glide_lignum>  (382) 
32

>  <i_i_glide_rotatable_bonds>  (382) 
0

>  <r_i_docking_score>  (382) 
-6.22844

>  <r_i_glide_ligand_efficiency>  (382) 
-0.519037

>  <r_i_glide_ligand_efficiency_sa>  (382) 
-1.1883

>  <r_i_glide_ligand_efficiency_ln>  (382) 
-1.78726

>  <r_i_glide_gscore>  (382) 
-6.22844

>  <r_i_glide_lipo>  (382) 
-2.12839

>  <r_i_glide_hbond>  (382) 
0

>  <r_i_glide_metal>  (382) 
-0

>  <r_i_glide_rewards>  (382) 
-2.77162

>  <r_i_glide_evdw>  (382) 
-23.6784

>  <r_i_glide_ecoul>  (382) 
-0.96347

>  <r_i_glide_erotb>  (382) 
0

>  <r_i_glide_esite>  (382) 
0

>  <r_i_glide_emodel>  (382) 
-35.5934

>  <r_i_glide_energy>  (382) 
-24.6418

>  <r_i_glide_einternal>  (382) 
0

>  <r_i_glide_intrahb_reward>  (382) 
-0

>  <i_i_glide_confnum>  (382) 
1

>  <i_i_glide_posenum>  (382) 
30

>  <r_i_glide_eff_state_penalty>  (382) 
0

>  <ligand_id>  (382) 
113

>  <original_smiles>  (382) 
c1cc2c(ccc3scnc32)s1

>  <smiles>  (382) 
[H]c1nc2c(s1)c([H])c([H])c1sc([H])c([H])c12

$$$$
113:0:2
     RDKit          3D

 17 19  0  0  1  0  0  0  0  0999 V2000
   -4.9855   -7.7520   -5.0064 C   0  0  0  0  0  0  0  0  0  0  0  0
   -5.8352   -6.6630   -4.9008 C   0  0  0  0  0  0  0  0  0  0  0  0
   -6.7694   -6.6298   -5.9029 C   0  0  0  0  0  0  0  0  0  0  0  0
   -6.6656   -7.6859   -6.7920 C   0  0  0  0  0  0  0  0  0  0  0  0
   -7.5698   -7.7330   -7.8562 C   0  0  0  0  0  0  0  0  0  0  0  0
   -8.5539   -6.7323   -8.0053 C   0  0  0  0  0  0  0  0  0  0  0  0
   -8.6512   -5.6663   -7.0912 C   0  0  0  0  0  0  0  0  0  0  0  0
   -9.8086   -4.3723   -7.1154 S   0  0  0  0  0  0  0  0  0  0  0  0
   -8.9650   -3.8317   -5.6437 C   0  0  0  0  0  0  0  0  0  0  0  0
   -7.9184   -4.5568   -5.1858 N   0  0  0  0  0  0  0  0  0  0  0  0
   -7.7523   -5.6146   -6.0274 C   0  0  0  0  0  0  0  0  0  0  0  0
   -5.3748   -8.7959   -6.3930 S   0  0  0  0  0  0  0  0  0  0  0  0
   -4.1772   -8.0318   -4.3541 H   0  0  0  0  0  0  0  0  0  0  0  0
   -5.8399   -5.8900   -4.1468 H   0  0  0  0  0  0  0  0  0  0  0  0
   -7.5184   -8.5380   -8.5679 H   0  0  0  0  0  0  0  0  0  0  0  0
   -9.2462   -6.7912   -8.8188 H   0  0  0  0  0  0  0  0  0  0  0  0
   -9.2545   -2.9373   -5.1188 H   0  0  0  0  0  0  0  0  0  0  0  0
  1 12  1  0
  1  2  2  0
  1 13  1  0
  2  3  1  0
  2 14  1  0
  3 11  1  0
  3  4  2  0
  4  5  1  0
  4 12  1  0
  5  6  2  0
  5 15  1  0
  6  7  1  0
  6 16  1  0
  7 11  2  0
  7  8  1  0
  8  9  1  0
  9 10  2  0
  9 17  1  0
 10 11  1  0
M  END
>  <i_m_ct_stereo_status>  (383) 
1

>  <s_m_source_file>  (383) 
/var/tmp/pbs.5076255.sched01/tmpbrgkg_oh/138myny07gr.sdf

>  <i_m_source_file_index>  (383) 
32

>  <i_lp_mmshare_version>  (383) 
48012

>  <i_f3d_flags>  (383) 
0

>  <s_epik_input>  (383) 
W2NIXTFbY0hdc2MoYzEyKVtjSF1bY0hdYzNjMm5bY0hdczM=

>  <s_epik_cmdline>  (383) 
J2VwaWtfcHl0aG9uJywgJy1waHQnLCAnMi4wJywgJy1waCcsICc3LjAnLCAnLXRuJywgJzgnLCAnLW1hJywgJzIwMCcsICctaW1hZScsICc8aW5maWxlLm1hZT4nLCAnLW9tYWUnLCAnPG91dGZpbGUubWFlPic=

>  <r_lp_tautomer_probability>  (383) 
1

>  <r_epik_Ionization_Penalty>  (383) 
2.05433e-05

>  <r_epik_Ionization_Penalty_Charging>  (383) 
0

>  <r_epik_Ionization_Penalty_Neutral>  (383) 
2.05433e-05

>  <r_epik_State_Penalty>  (383) 
-0

>  <r_epik_Charging_Adjusted_Penalty>  (383) 
0

>  <i_epik_Tot_Q>  (383) 
0

>  <i_epik_Tot_abs_Q>  (383) 
0

>  <s_lp_Force_Field>  (383) 
OPLS3e

>  <r_lp_Energy>  (383) 
9.16379

>  <b_lp_Chiralities_Consistent>  (383) 
1

>  <s_lp_Variant>  (383) 
113:0-1

>  <s_i_glide_gridfile>  (383) 
pfpi4k_grid

>  <i_i_glide_lignum>  (383) 
32

>  <i_i_glide_rotatable_bonds>  (383) 
0

>  <r_i_docking_score>  (383) 
-6.07806

>  <r_i_glide_ligand_efficiency>  (383) 
-0.506505

>  <r_i_glide_ligand_efficiency_sa>  (383) 
-1.15961

>  <r_i_glide_ligand_efficiency_ln>  (383) 
-1.74411

>  <r_i_glide_gscore>  (383) 
-6.07806

>  <r_i_glide_lipo>  (383) 
-2.5952

>  <r_i_glide_hbond>  (383) 
0

>  <r_i_glide_metal>  (383) 
-0

>  <r_i_glide_rewards>  (383) 
-2.10495

>  <r_i_glide_evdw>  (383) 
-27.1313

>  <r_i_glide_ecoul>  (383) 
-0.142293

>  <r_i_glide_erotb>  (383) 
0

>  <r_i_glide_esite>  (383) 
0

>  <r_i_glide_emodel>  (383) 
-37.9628

>  <r_i_glide_energy>  (383) 
-27.2736

>  <r_i_glide_einternal>  (383) 
0

>  <r_i_glide_intrahb_reward>  (383) 
-0

>  <i_i_glide_confnum>  (383) 
2

>  <i_i_glide_posenum>  (383) 
19

>  <r_i_glide_eff_state_penalty>  (383) 
0

>  <ligand_id>  (383) 
113

>  <original_smiles>  (383) 
c1cc2c(ccc3scnc32)s1

>  <smiles>  (383) 
[H]c1nc2c(s1)c([H])c([H])c1sc([H])c([H])c12

$$$$
114:0:0
     RDKit          3D

 69 74  0  0  1  0  0  0  0  0999 V2000
    4.5997   -0.4422    0.7932 C   0  0  0  0  0  0  0  0  0  0  0  0
    4.8507   -1.9344    0.6269 C   0  0  0  0  0  0  0  0  0  0  0  0
    5.2759   -2.8429    1.4912 C   0  0  0  0  0  0  0  0  0  0  0  0
    5.3465   -2.8619    2.9421 C   0  0  0  0  0  0  0  0  0  0  0  0
    5.4015   -1.8916    3.6899 O   0  0  0  0  0  0  0  0  0  0  0  0
    5.1643   -4.2744    3.3106 C   0  0  0  0  0  0  0  0  0  0  0  0
    4.7266   -4.6838    4.5155 C   0  0  0  0  0  0  0  0  0  0  0  0
    4.1817   -6.0852    4.7567 C   0  0  0  0  0  0  0  0  0  0  0  0
    3.9615   -6.9497    3.4696 C   0  0  2  0  0  0  0  0  0  0  0  0
    3.9436   -6.1189    2.1422 C   0  0  1  0  0  0  0  0  0  0  0  0
    2.5936   -5.3765    1.9277 C   0  0  0  0  0  0  0  0  0  0  0  0
    1.4600   -5.8307    2.8668 C   0  0  0  0  0  0  0  0  0  0  0  0
    1.3786   -7.3650    3.0622 C   0  0  1  0  0  0  0  0  0  0  0  0
    0.9888   -8.0009    1.7042 C   0  0  0  0  0  0  0  0  0  0  0  0
    2.7607   -7.9402    3.5034 C   0  0  2  0  0  0  0  0  0  0  0  0
    2.5418   -8.7180    4.8129 C   0  0  0  0  0  0  0  0  0  0  0  0
    1.0479   -9.0434    4.8319 C   0  0  0  0  0  0  0  0  0  0  0  0
    0.3776   -7.8207    4.1931 C   0  0  1  0  0  0  0  0  0  0  0  0
    0.0762   -6.7623    5.2727 C   0  0  0  0  0  0  0  0  0  0  0  0
   -0.8849   -8.2106    3.6838 O   0  0  0  0  0  0  0  0  0  0  0  0
    5.1862   -5.1760    2.0808 C   0  0  2  0  0  0  0  0  0  0  0  0
    6.5040   -5.9998    2.0781 C   0  0  0  0  0  0  0  0  0  0  0  0
    5.2978   -4.1873    0.8882 C   0  0  1  0  0  0  0  0  0  0  0  0
    4.3298   -4.0655   -0.1469 O   0  0  0  0  0  0  0  0  0  0  0  0
    4.4207   -2.7219   -0.5995 C   0  0  1  0  0  0  0  0  0  0  0  0
    3.0313   -2.3034   -1.1031 C   0  0  0  0  0  0  0  0  0  0  0  0
    2.6652   -3.0497   -2.3825 C   0  0  0  0  0  0  0  0  0  0  0  0
    3.7941   -2.9063   -3.4191 C   0  0  1  0  0  0  0  0  0  0  0  0
    3.8858   -1.4661   -3.9609 C   0  0  0  0  0  0  0  0  0  0  0  0
    5.1205   -3.3476   -2.7780 C   0  0  0  0  0  0  0  0  0  0  0  0
    5.3773   -2.5687   -1.6130 O   0  0  0  0  0  0  0  0  0  0  0  0
    5.1904    0.0781    0.0428 H   0  0  0  0  0  0  0  0  0  0  0  0
    4.9110   -0.0740    1.7685 H   0  0  0  0  0  0  0  0  0  0  0  0
    3.5566   -0.1737    0.6362 H   0  0  0  0  0  0  0  0  0  0  0  0
    4.6666   -4.0028    5.3533 H   0  0  0  0  0  0  0  0  0  0  0  0
    4.8363   -6.6201    5.4493 H   0  0  0  0  0  0  0  0  0  0  0  0
    3.2369   -5.9394    5.2754 H   0  0  0  0  0  0  0  0  0  0  0  0
    4.8299   -7.6055    3.4154 H   0  0  0  0  0  0  0  0  0  0  0  0
    4.0408   -6.8267    1.3150 H   0  0  0  0  0  0  0  0  0  0  0  0
    2.7217   -4.3006    2.0392 H   0  0  0  0  0  0  0  0  0  0  0  0
    2.2874   -5.5200    0.8909 H   0  0  0  0  0  0  0  0  0  0  0  0
    1.6257   -5.3409    3.8254 H   0  0  0  0  0  0  0  0  0  0  0  0
    0.5050   -5.4598    2.5014 H   0  0  0  0  0  0  0  0  0  0  0  0
    0.8566   -9.0815    1.7978 H   0  0  0  0  0  0  0  0  0  0  0  0
    1.7546   -7.8420    0.9450 H   0  0  0  0  0  0  0  0  0  0  0  0
    0.0542   -7.5933    1.3154 H   0  0  0  0  0  0  0  0  0  0  0  0
    3.0113   -8.7109    2.7688 H   0  0  0  0  0  0  0  0  0  0  0  0
    3.1545   -9.6206    4.8576 H   0  0  0  0  0  0  0  0  0  0  0  0
    2.7811   -8.1160    5.6906 H   0  0  0  0  0  0  0  0  0  0  0  0
    0.8700   -9.9356    4.2291 H   0  0  0  0  0  0  0  0  0  0  0  0
    0.6843   -9.2592    5.8394 H   0  0  0  0  0  0  0  0  0  0  0  0
    0.9807   -6.4038    5.7607 H   0  0  0  0  0  0  0  0  0  0  0  0
   -0.5660   -7.1660    6.0525 H   0  0  0  0  0  0  0  0  0  0  0  0
   -0.4412   -5.8989    4.8576 H   0  0  0  0  0  0  0  0  0  0  0  0
   -1.2261   -8.9182    4.2197 H   0  0  0  0  0  0  0  0  0  0  0  0
    6.5163   -6.7079    1.2489 H   0  0  0  0  0  0  0  0  0  0  0  0
    6.6656   -6.5534    3.0020 H   0  0  0  0  0  0  0  0  0  0  0  0
    7.3775   -5.3536    1.9684 H   0  0  0  0  0  0  0  0  0  0  0  0
    6.2727   -4.2654    0.4031 H   0  0  0  0  0  0  0  0  0  0  0  0
    2.3036   -2.5268   -0.3178 H   0  0  0  0  0  0  0  0  0  0  0  0
    3.0196   -1.2291   -1.2953 H   0  0  0  0  0  0  0  0  0  0  0  0
    2.4778   -4.0982   -2.1344 H   0  0  0  0  0  0  0  0  0  0  0  0
    1.7291   -2.6740   -2.7976 H   0  0  0  0  0  0  0  0  0  0  0  0
    3.5832   -3.5794   -4.2510 H   0  0  0  0  0  0  0  0  0  0  0  0
    4.1428   -0.7473   -3.1827 H   0  0  0  0  0  0  0  0  0  0  0  0
    2.9445   -1.1438   -4.3992 H   0  0  0  0  0  0  0  0  0  0  0  0
    4.6489   -1.3677   -4.7275 H   0  0  0  0  0  0  0  0  0  0  0  0
    5.0949   -4.4121   -2.5233 H   0  0  0  0  0  0  0  0  0  0  0  0
    5.9570   -3.2139   -3.4667 H   0  0  0  0  0  0  0  0  0  0  0  0
  1  2  1  0
  1 32  1  0
  1 33  1  0
  1 34  1  0
  2 25  1  0
  2  3  2  0
  3 23  1  0
  3  4  1  0
  4  5  2  0
  4  6  1  0
  6 21  1  0
  6  7  2  0
  7  8  1  0
  7 35  1  0
  8  9  1  0
  8 36  1  0
  8 37  1  0
  9 15  1  0
  9 10  1  0
  9 38  1  6
 10 11  1  0
 10 21  1  0
 10 39  1  6
 11 12  1  0
 11 40  1  0
 11 41  1  0
 12 13  1  0
 12 42  1  0
 12 43  1  0
 13 18  1  0
 13 14  1  6
 13 15  1  0
 14 44  1  0
 14 45  1  0
 14 46  1  0
 15 16  1  0
 15 47  1  6
 16 17  1  0
 16 48  1  0
 16 49  1  0
 17 18  1  0
 17 50  1  0
 17 51  1  0
 18 19  1  0
 18 20  1  6
 19 52  1  0
 19 53  1  0
 19 54  1  0
 20 55  1  0
 21 22  1  1
 21 23  1  0
 22 56  1  0
 22 57  1  0
 22 58  1  0
 23 24  1  0
 23 59  1  6
 25 24  1  1
 25 31  1  0
 25 26  1  0
 26 27  1  0
 26 60  1  0
 26 61  1  0
 27 28  1  0
 27 62  1  0
 27 63  1  0
 28 29  1  0
 28 30  1  0
 28 64  1  6
 29 65  1  0
 29 66  1  0
 29 67  1  0
 30 31  1  0
 30 68  1  0
 30 69  1  0
M  END
>  <i_m_ct_stereo_status>  (384) 
1

>  <s_m_source_file>  (384) 
/var/tmp/pbs.5076255.sched01/tmpbrgkg_oh/138myny07gr.sdf

>  <i_m_source_file_index>  (384) 
33

>  <i_lp_mmshare_version>  (384) 
48012

>  <i_f3d_flags>  (384) 
0

>  <s_epik_input>  (384) 
TzFbQ0gyXVtDQEhdKFtDSDNdKVtDSDJdW0NIMl1bQ0BdMTJDKFtDSDNdKT1DM1tDQEhdKE8yKVtDQEBdNChbQ0gzXSlDKEMzPU8pPVtDSF1bQ0gyXVtDQEBIXTVbQ0BIXTRbQ0gyXVtDSDJdW0NAQF02KFtDSDNdKVtDQEBIXTVbQ0gyXVtDSDJdW0NAXTYoW0NIM10pW09IXQ==

>  <s_epik_cmdline>  (384) 
J2VwaWtfcHl0aG9uJywgJy1waHQnLCAnMi4wJywgJy1waCcsICc3LjAnLCAnLXRuJywgJzgnLCAnLW1hJywgJzIwMCcsICctaW1hZScsICc8aW5maWxlLm1hZT4nLCAnLW9tYWUnLCAnPG91dGZpbGUubWFlPic=

>  <r_lp_tautomer_probability>  (384) 
1

>  <r_epik_Ionization_Penalty>  (384) 
2.28698e-06

>  <r_epik_Ionization_Penalty_Charging>  (384) 
0

>  <r_epik_Ionization_Penalty_Neutral>  (384) 
2.28698e-06

>  <r_epik_State_Penalty>  (384) 
-0

>  <r_epik_Charging_Adjusted_Penalty>  (384) 
0

>  <i_epik_Tot_Q>  (384) 
0

>  <i_epik_Tot_abs_Q>  (384) 
0

>  <s_lp_Force_Field>  (384) 
OPLS3e

>  <r_lp_Energy>  (384) 
48.5635

>  <b_lp_Chiralities_Consistent>  (384) 
1

>  <s_lp_Variant>  (384) 
114:0-1

>  <s_i_glide_gridfile>  (384) 
pfpi4k_grid

>  <i_i_glide_lignum>  (384) 
33

>  <i_i_glide_rotatable_bonds>  (384) 
1

>  <r_i_docking_score>  (384) 
-3.2206

>  <r_i_glide_ligand_efficiency>  (384) 
-0.10389

>  <r_i_glide_ligand_efficiency_sa>  (384) 
-0.326359

>  <r_i_glide_ligand_efficiency_ln>  (384) 
-0.726343

>  <r_i_glide_gscore>  (384) 
-3.2206

>  <r_i_glide_lipo>  (384) 
-0.814913

>  <r_i_glide_hbond>  (384) 
0

>  <r_i_glide_metal>  (384) 
-0

>  <r_i_glide_rewards>  (384) 
-0.559696

>  <r_i_glide_evdw>  (384) 
-30.993

>  <r_i_glide_ecoul>  (384) 
-1.93578

>  <r_i_glide_erotb>  (384) 
0

>  <r_i_glide_esite>  (384) 
-0.00596821

>  <r_i_glide_emodel>  (384) 
-38.4903

>  <r_i_glide_energy>  (384) 
-32.9288

>  <r_i_glide_einternal>  (384) 
0.841301

>  <r_i_glide_intrahb_reward>  (384) 
-0

>  <i_i_glide_confnum>  (384) 
1

>  <i_i_glide_posenum>  (384) 
23

>  <r_i_glide_eff_state_penalty>  (384) 
0

>  <ligand_id>  (384) 
114

>  <original_smiles>  (384) 
CC1=C2C(=O)C3=CCC4C(CCC5(C)C4CCC5(C)O)C3(C)C2OC12CCC(C)CO2

>  <smiles>  (384) 
[H]OC1(C([H])([H])[H])C([H])([H])C([H])([H])C2([H])C3([H])C([H])([H])C([H])=C4C(=O)C5=C(C([H])([H])[H])C6(OC([H])([H])C([H])(C([H])([H])[H])C([H])([H])C6([H])[H])OC5([H])C4(C([H])([H])[H])C3([H])C([H])([H])C([H])([H])C21C([H])([H])[H]

$$$$
114:0:1
     RDKit          3D

 69 74  0  0  1  0  0  0  0  0999 V2000
    4.6625   -0.4490    0.7121 C   0  0  0  0  0  0  0  0  0  0  0  0
    4.8584   -1.9490    0.5612 C   0  0  0  0  0  0  0  0  0  0  0  0
    5.2481   -2.8618    1.4380 C   0  0  0  0  0  0  0  0  0  0  0  0
    5.3107   -2.8639    2.8879 C   0  0  0  0  0  0  0  0  0  0  0  0
    5.3881   -1.8868    3.6252 O   0  0  0  0  0  0  0  0  0  0  0  0
    5.0808   -4.2663    3.2739 C   0  0  0  0  0  0  0  0  0  0  0  0
    4.6286   -4.6431    4.4837 C   0  0  0  0  0  0  0  0  0  0  0  0
    4.0309   -6.0220    4.7417 C   0  0  0  0  0  0  0  0  0  0  0  0
    3.7779   -6.8919    3.4644 C   0  0  2  0  0  0  0  0  0  0  0  0
    3.7922   -6.0766    2.1271 C   0  0  1  0  0  0  0  0  0  0  0  0
    2.4742   -5.2846    1.9044 C   0  0  0  0  0  0  0  0  0  0  0  0
    1.3289   -5.6875    2.8498 C   0  0  0  0  0  0  0  0  0  0  0  0
    1.1825   -7.2115    3.0573 C   0  0  1  0  0  0  0  0  0  0  0  0
    0.7588   -7.8529    1.7086 C   0  0  0  0  0  0  0  0  0  0  0  0
    2.5385   -7.8375    3.5085 C   0  0  2  0  0  0  0  0  0  0  0  0
    2.2857   -8.5864    4.8293 C   0  0  0  0  0  0  0  0  0  0  0  0
    0.7768   -8.8469    4.8519 C   0  0  0  0  0  0  0  0  0  0  0  0
    0.1665   -7.5998    4.1940 C   0  0  1  0  0  0  0  0  0  0  0  0
   -0.0693   -6.5080    5.2557 C   0  0  0  0  0  0  0  0  0  0  0  0
   -1.1248   -7.9076    3.6986 O   0  0  0  0  0  0  0  0  0  0  0  0
    5.0695   -5.1802    2.0545 C   0  0  2  0  0  0  0  0  0  0  0  0
    6.3529   -6.0559    2.0610 C   0  0  0  0  0  0  0  0  0  0  0  0
    5.2208   -4.2137    0.8506 C   0  0  1  0  0  0  0  0  0  0  0  0
    4.2587   -4.0702   -0.1873 O   0  0  0  0  0  0  0  0  0  0  0  0
    4.4034   -2.7324   -0.6586 C   0  0  1  0  0  0  0  0  0  0  0  0
    3.0274   -2.2706   -1.1692 C   0  0  0  0  0  0  0  0  0  0  0  0
    2.6335   -3.0331   -2.4320 C   0  0  0  0  0  0  0  0  0  0  0  0
    3.7618   -2.9293   -3.4713 C   0  0  1  0  0  0  0  0  0  0  0  0
    3.9013   -1.4933   -4.0170 C   0  0  0  0  0  0  0  0  0  0  0  0
    5.0760   -3.4157   -2.8307 C   0  0  0  0  0  0  0  0  0  0  0  0
    5.3649   -2.6345   -1.6733 O   0  0  0  0  0  0  0  0  0  0  0  0
    5.2715    0.0344   -0.0496 H   0  0  0  0  0  0  0  0  0  0  0  0
    4.9905   -0.0795    1.6784 H   0  0  0  0  0  0  0  0  0  0  0  0
    3.6295   -0.1422    0.5512 H   0  0  0  0  0  0  0  0  0  0  0  0
    4.5949   -3.9511    5.3124 H   0  0  0  0  0  0  0  0  0  0  0  0
    4.6652   -6.5715    5.4410 H   0  0  0  0  0  0  0  0  0  0  0  0
    3.0938   -5.8312    5.2589 H   0  0  0  0  0  0  0  0  0  0  0  0
    4.6203   -7.5810    3.4189 H   0  0  0  0  0  0  0  0  0  0  0  0
    3.8598   -6.7964    1.3086 H   0  0  0  0  0  0  0  0  0  0  0  0
    2.6416   -4.2128    2.0048 H   0  0  0  0  0  0  0  0  0  0  0  0
    2.1611   -5.4275    0.8692 H   0  0  0  0  0  0  0  0  0  0  0  0
    1.5155   -5.1909    3.8016 H   0  0  0  0  0  0  0  0  0  0  0  0
    0.3877   -5.2865    2.4850 H   0  0  0  0  0  0  0  0  0  0  0  0
    0.5858   -8.9245    1.8132 H   0  0  0  0  0  0  0  0  0  0  0  0
    1.5274   -7.7276    0.9453 H   0  0  0  0  0  0  0  0  0  0  0  0
   -0.1586   -7.4083    1.3161 H   0  0  0  0  0  0  0  0  0  0  0  0
    2.7605   -8.6252    2.7837 H   0  0  0  0  0  0  0  0  0  0  0  0
    2.8642   -9.5113    4.8872 H   0  0  0  0  0  0  0  0  0  0  0  0
    2.5522   -7.9839    5.6987 H   0  0  0  0  0  0  0  0  0  0  0  0
    0.5656   -9.7444    4.2665 H   0  0  0  0  0  0  0  0  0  0  0  0
    0.4056   -9.0334    5.8615 H   0  0  0  0  0  0  0  0  0  0  0  0
    0.8533   -6.1902    5.7368 H   0  0  0  0  0  0  0  0  0  0  0  0
   -0.7074   -6.8755    6.0499 H   0  0  0  0  0  0  0  0  0  0  0  0
   -0.5603   -5.6339    4.8291 H   0  0  0  0  0  0  0  0  0  0  0  0
   -1.1394   -8.8226    3.4526 H   0  0  0  0  0  0  0  0  0  0  0  0
    6.3369   -6.7744    1.2401 H   0  0  0  0  0  0  0  0  0  0  0  0
    6.4937   -6.6056    2.9924 H   0  0  0  0  0  0  0  0  0  0  0  0
    7.2513   -5.4460    1.9434 H   0  0  0  0  0  0  0  0  0  0  0  0
    6.1910   -4.3366    0.3652 H   0  0  0  0  0  0  0  0  0  0  0  0
    2.3015   -2.4569   -0.3739 H   0  0  0  0  0  0  0  0  0  0  0  0
    3.0342   -1.2041   -1.3792 H   0  0  0  0  0  0  0  0  0  0  0  0
    2.4108   -4.0667   -2.1767 H   0  0  0  0  0  0  0  0  0  0  0  0
    1.7089   -2.6302   -2.8519 H   0  0  0  0  0  0  0  0  0  0  0  0
    3.5281   -3.6007   -4.3012 H   0  0  0  0  0  0  0  0  0  0  0  0
    4.1776   -0.7781   -3.2435 H   0  0  0  0  0  0  0  0  0  0  0  0
    2.9745   -1.1423   -4.4657 H   0  0  0  0  0  0  0  0  0  0  0  0
    4.6754   -1.4247   -4.7694 H   0  0  0  0  0  0  0  0  0  0  0  0
    5.0060   -4.4736   -2.5601 H   0  0  0  0  0  0  0  0  0  0  0  0
    5.9135   -3.3218   -3.5225 H   0  0  0  0  0  0  0  0  0  0  0  0
  1  2  1  0
  1 32  1  0
  1 33  1  0
  1 34  1  0
  2 25  1  0
  2  3  2  0
  3 23  1  0
  3  4  1  0
  4  5  2  0
  4  6  1  0
  6 21  1  0
  6  7  2  0
  7  8  1  0
  7 35  1  0
  8  9  1  0
  8 36  1  0
  8 37  1  0
  9 15  1  0
  9 10  1  0
  9 38  1  6
 10 11  1  0
 10 21  1  0
 10 39  1  6
 11 12  1  0
 11 40  1  0
 11 41  1  0
 12 13  1  0
 12 42  1  0
 12 43  1  0
 13 18  1  0
 13 14  1  6
 13 15  1  0
 14 44  1  0
 14 45  1  0
 14 46  1  0
 15 16  1  0
 15 47  1  6
 16 17  1  0
 16 48  1  0
 16 49  1  0
 17 18  1  0
 17 50  1  0
 17 51  1  0
 18 19  1  0
 18 20  1  6
 19 52  1  0
 19 53  1  0
 19 54  1  0
 20 55  1  0
 21 22  1  1
 21 23  1  0
 22 56  1  0
 22 57  1  0
 22 58  1  0
 23 24  1  0
 23 59  1  6
 25 24  1  1
 25 31  1  0
 25 26  1  0
 26 27  1  0
 26 60  1  0
 26 61  1  0
 27 28  1  0
 27 62  1  0
 27 63  1  0
 28 29  1  0
 28 30  1  0
 28 64  1  6
 29 65  1  0
 29 66  1  0
 29 67  1  0
 30 31  1  0
 30 68  1  0
 30 69  1  0
M  END
>  <i_m_ct_stereo_status>  (385) 
1

>  <s_m_source_file>  (385) 
/var/tmp/pbs.5076255.sched01/tmpbrgkg_oh/138myny07gr.sdf

>  <i_m_source_file_index>  (385) 
33

>  <i_lp_mmshare_version>  (385) 
48012

>  <i_f3d_flags>  (385) 
0

>  <s_epik_input>  (385) 
TzFbQ0gyXVtDQEhdKFtDSDNdKVtDSDJdW0NIMl1bQ0BdMTJDKFtDSDNdKT1DM1tDQEhdKE8yKVtDQEBdNChbQ0gzXSlDKEMzPU8pPVtDSF1bQ0gyXVtDQEBIXTVbQ0BIXTRbQ0gyXVtDSDJdW0NAQF02KFtDSDNdKVtDQEBIXTVbQ0gyXVtDSDJdW0NAXTYoW0NIM10pW09IXQ==

>  <s_epik_cmdline>  (385) 
J2VwaWtfcHl0aG9uJywgJy1waHQnLCAnMi4wJywgJy1waCcsICc3LjAnLCAnLXRuJywgJzgnLCAnLW1hJywgJzIwMCcsICctaW1hZScsICc8aW5maWxlLm1hZT4nLCAnLW9tYWUnLCAnPG91dGZpbGUubWFlPic=

>  <r_lp_tautomer_probability>  (385) 
1

>  <r_epik_Ionization_Penalty>  (385) 
2.28698e-06

>  <r_epik_Ionization_Penalty_Charging>  (385) 
0

>  <r_epik_Ionization_Penalty_Neutral>  (385) 
2.28698e-06

>  <r_epik_State_Penalty>  (385) 
-0

>  <r_epik_Charging_Adjusted_Penalty>  (385) 
0

>  <i_epik_Tot_Q>  (385) 
0

>  <i_epik_Tot_abs_Q>  (385) 
0

>  <s_lp_Force_Field>  (385) 
OPLS3e

>  <r_lp_Energy>  (385) 
48.5635

>  <b_lp_Chiralities_Consistent>  (385) 
1

>  <s_lp_Variant>  (385) 
114:0-1

>  <s_i_glide_gridfile>  (385) 
pfpi4k_grid

>  <i_i_glide_lignum>  (385) 
33

>  <i_i_glide_rotatable_bonds>  (385) 
1

>  <r_i_docking_score>  (385) 
-3.16602

>  <r_i_glide_ligand_efficiency>  (385) 
-0.10213

>  <r_i_glide_ligand_efficiency_sa>  (385) 
-0.320828

>  <r_i_glide_ligand_efficiency_ln>  (385) 
-0.714034

>  <r_i_glide_gscore>  (385) 
-3.16602

>  <r_i_glide_lipo>  (385) 
-0.767177

>  <r_i_glide_hbond>  (385) 
0

>  <r_i_glide_metal>  (385) 
-0

>  <r_i_glide_rewards>  (385) 
-0.56245

>  <r_i_glide_evdw>  (385) 
-31.0685

>  <r_i_glide_ecoul>  (385) 
-1.84445

>  <r_i_glide_erotb>  (385) 
0

>  <r_i_glide_esite>  (385) 
-0.00629492

>  <r_i_glide_emodel>  (385) 
-38.562

>  <r_i_glide_energy>  (385) 
-32.913

>  <r_i_glide_einternal>  (385) 
0.459511

>  <r_i_glide_intrahb_reward>  (385) 
-0

>  <i_i_glide_confnum>  (385) 
1

>  <i_i_glide_posenum>  (385) 
2

>  <r_i_glide_eff_state_penalty>  (385) 
0

>  <ligand_id>  (385) 
114

>  <original_smiles>  (385) 
CC1=C2C(=O)C3=CCC4C(CCC5(C)C4CCC5(C)O)C3(C)C2OC12CCC(C)CO2

>  <smiles>  (385) 
[H]OC1(C([H])([H])[H])C([H])([H])C([H])([H])C2([H])C3([H])C([H])([H])C([H])=C4C(=O)C5=C(C([H])([H])[H])C6(OC([H])([H])C([H])(C([H])([H])[H])C([H])([H])C6([H])[H])OC5([H])C4(C([H])([H])[H])C3([H])C([H])([H])C([H])([H])C21C([H])([H])[H]

$$$$
114:0:2
     RDKit          3D

 69 74  0  0  1  0  0  0  0  0999 V2000
   -1.7630   -1.2213    5.2480 C   0  0  0  0  0  0  0  0  0  0  0  0
   -0.2731   -0.9211    5.2860 C   0  0  0  0  0  0  0  0  0  0  0  0
    0.7835   -1.7176    5.3941 C   0  0  0  0  0  0  0  0  0  0  0  0
    0.9903   -3.1458    5.1906 C   0  0  0  0  0  0  0  0  0  0  0  0
    0.1457   -4.0309    5.2552 O   0  0  0  0  0  0  0  0  0  0  0  0
    2.3851   -3.2606    4.7260 C   0  0  0  0  0  0  0  0  0  0  0  0
    2.8435   -4.2870    3.9881 C   0  0  0  0  0  0  0  0  0  0  0  0
    4.1509   -4.2155    3.2076 C   0  0  0  0  0  0  0  0  0  0  0  0
    4.8139   -2.7990    3.1431 C   0  0  2  0  0  0  0  0  0  0  0  0
    3.8484   -1.6282    3.5170 C   0  0  1  0  0  0  0  0  0  0  0  0
    2.8740   -1.2709    2.3562 C   0  0  0  0  0  0  0  0  0  0  0  0
    3.2379   -1.9035    1.0010 C   0  0  0  0  0  0  0  0  0  0  0  0
    4.7495   -1.8569    0.6707 C   0  0  1  0  0  0  0  0  0  0  0  0
    5.1656   -0.3765    0.4871 C   0  0  0  0  0  0  0  0  0  0  0  0
    5.5897   -2.4646    1.8346 C   0  0  2  0  0  0  0  0  0  0  0  0
    6.4574   -3.5853    1.2363 C   0  0  0  0  0  0  0  0  0  0  0  0
    6.5324   -3.2689   -0.2529 C   0  0  0  0  0  0  0  0  0  0  0  0
    5.1532   -2.6983   -0.5952 C   0  0  1  0  0  0  0  0  0  0  0  0
    4.1954   -3.8461   -0.9699 C   0  0  0  0  0  0  0  0  0  0  0  0
    5.2635   -1.9064   -1.7635 O   0  0  0  0  0  0  0  0  0  0  0  0
    3.1256   -1.9366    4.8659 C   0  0  2  0  0  0  0  0  0  0  0  0
    4.1535   -2.0569    6.0242 C   0  0  0  0  0  0  0  0  0  0  0  0
    2.0356   -0.9395    5.3478 C   0  0  1  0  0  0  0  0  0  0  0  0
    1.6373    0.2253    4.6342 O   0  0  0  0  0  0  0  0  0  0  0  0
    0.2851    0.4609    4.9987 C   0  0  1  0  0  0  0  0  0  0  0  0
   -0.4216    1.1590    3.8128 C   0  0  0  0  0  0  0  0  0  0  0  0
    0.1390    2.5752    3.6439 C   0  0  0  0  0  0  0  0  0  0  0  0
    0.0569    3.3417    4.9744 C   0  0  1  0  0  0  0  0  0  0  0  0
   -1.3935    3.6466    5.3890 C   0  0  0  0  0  0  0  0  0  0  0  0
    0.7765    2.5298    6.0612 C   0  0  0  0  0  0  0  0  0  0  0  0
    0.1814    1.2387    6.1585 O   0  0  0  0  0  0  0  0  0  0  0  0
   -2.2558   -0.6592    6.0397 H   0  0  0  0  0  0  0  0  0  0  0  0
   -1.9576   -2.2784    5.4057 H   0  0  0  0  0  0  0  0  0  0  0  0
   -2.2118   -0.9237    4.3026 H   0  0  0  0  0  0  0  0  0  0  0  0
    2.2627   -5.1872    3.8537 H   0  0  0  0  0  0  0  0  0  0  0  0
    4.8601   -4.9360    3.6208 H   0  0  0  0  0  0  0  0  0  0  0  0
    3.9091   -4.5642    2.2055 H   0  0  0  0  0  0  0  0  0  0  0  0
    5.5932   -2.8169    3.9015 H   0  0  0  0  0  0  0  0  0  0  0  0
    4.4640   -0.7404    3.6813 H   0  0  0  0  0  0  0  0  0  0  0  0
    1.8525   -1.5578    2.6047 H   0  0  0  0  0  0  0  0  0  0  0  0
    2.8454   -0.1857    2.2502 H   0  0  0  0  0  0  0  0  0  0  0  0
    2.8914   -2.9348    1.0310 H   0  0  0  0  0  0  0  0  0  0  0  0
    2.6695   -1.4210    0.2066 H   0  0  0  0  0  0  0  0  0  0  0  0
    6.2108   -0.2766    0.1857 H   0  0  0  0  0  0  0  0  0  0  0  0
    5.0426    0.1850    1.4102 H   0  0  0  0  0  0  0  0  0  0  0  0
    4.5563    0.1156   -0.2711 H   0  0  0  0  0  0  0  0  0  0  0  0
    6.3054   -1.6911    2.1205 H   0  0  0  0  0  0  0  0  0  0  0  0
    7.4538   -3.6209    1.6759 H   0  0  0  0  0  0  0  0  0  0  0  0
    6.0051   -4.5692    1.3685 H   0  0  0  0  0  0  0  0  0  0  0  0
    7.3098   -2.5254   -0.4303 H   0  0  0  0  0  0  0  0  0  0  0  0
    6.7800   -4.1536   -0.8363 H   0  0  0  0  0  0  0  0  0  0  0  0
    4.0523   -4.5504   -0.1538 H   0  0  0  0  0  0  0  0  0  0  0  0
    4.5854   -4.4181   -1.8113 H   0  0  0  0  0  0  0  0  0  0  0  0
    3.2123   -3.4791   -1.2647 H   0  0  0  0  0  0  0  0  0  0  0  0
    4.3908   -1.6400   -2.0091 H   0  0  0  0  0  0  0  0  0  0  0  0
    4.7572   -1.1524    6.1078 H   0  0  0  0  0  0  0  0  0  0  0  0
    4.8251   -2.9084    5.9124 H   0  0  0  0  0  0  0  0  0  0  0  0
    3.6552   -2.2063    6.9847 H   0  0  0  0  0  0  0  0  0  0  0  0
    2.2176   -0.6371    6.3806 H   0  0  0  0  0  0  0  0  0  0  0  0
   -0.2688    0.5712    2.9055 H   0  0  0  0  0  0  0  0  0  0  0  0
   -1.4952    1.2132    3.9860 H   0  0  0  0  0  0  0  0  0  0  0  0
    1.1735    2.5369    3.2996 H   0  0  0  0  0  0  0  0  0  0  0  0
   -0.4147    3.1106    2.8728 H   0  0  0  0  0  0  0  0  0  0  0  0
    0.5855    4.2890    4.8552 H   0  0  0  0  0  0  0  0  0  0  0  0
   -1.9689    2.7402    5.5713 H   0  0  0  0  0  0  0  0  0  0  0  0
   -1.9180    4.2070    4.6203 H   0  0  0  0  0  0  0  0  0  0  0  0
   -1.4312    4.2202    6.3127 H   0  0  0  0  0  0  0  0  0  0  0  0
    1.8445    2.4416    5.8437 H   0  0  0  0  0  0  0  0  0  0  0  0
    0.6978    3.0227    7.0324 H   0  0  0  0  0  0  0  0  0  0  0  0
  1  2  1  0
  1 32  1  0
  1 33  1  0
  1 34  1  0
  2 25  1  0
  2  3  2  0
  3 23  1  0
  3  4  1  0
  4  5  2  0
  4  6  1  0
  6 21  1  0
  6  7  2  0
  7  8  1  0
  7 35  1  0
  8  9  1  0
  8 36  1  0
  8 37  1  0
  9 15  1  0
  9 10  1  0
  9 38  1  1
 10 11  1  0
 10 21  1  0
 10 39  1  1
 11 12  1  0
 11 40  1  0
 11 41  1  0
 12 13  1  0
 12 42  1  0
 12 43  1  0
 13 18  1  0
 13 14  1  6
 13 15  1  0
 14 44  1  0
 14 45  1  0
 14 46  1  0
 15 16  1  0
 15 47  1  1
 16 17  1  0
 16 48  1  0
 16 49  1  0
 17 18  1  0
 17 50  1  0
 17 51  1  0
 18 19  1  0
 18 20  1  6
 19 52  1  0
 19 53  1  0
 19 54  1  0
 20 55  1  0
 21 22  1  1
 21 23  1  0
 22 56  1  0
 22 57  1  0
 22 58  1  0
 23 24  1  0
 23 59  1  1
 25 24  1  6
 25 31  1  0
 25 26  1  0
 26 27  1  0
 26 60  1  0
 26 61  1  0
 27 28  1  0
 27 62  1  0
 27 63  1  0
 28 29  1  0
 28 30  1  0
 28 64  1  6
 29 65  1  0
 29 66  1  0
 29 67  1  0
 30 31  1  0
 30 68  1  0
 30 69  1  0
M  END
>  <i_m_ct_stereo_status>  (386) 
1

>  <s_m_source_file>  (386) 
/var/tmp/pbs.5076255.sched01/tmpbrgkg_oh/138myny07gr.sdf

>  <i_m_source_file_index>  (386) 
33

>  <i_lp_mmshare_version>  (386) 
48012

>  <i_f3d_flags>  (386) 
0

>  <s_epik_input>  (386) 
TzFbQ0gyXVtDQEhdKFtDSDNdKVtDSDJdW0NIMl1bQ0BdMTJDKFtDSDNdKT1DM1tDQEhdKE8yKVtDQEBdNChbQ0gzXSlDKEMzPU8pPVtDSF1bQ0gyXVtDQEBIXTVbQ0BIXTRbQ0gyXVtDSDJdW0NAQF02KFtDSDNdKVtDQEBIXTVbQ0gyXVtDSDJdW0NAXTYoW0NIM10pW09IXQ==

>  <s_epik_cmdline>  (386) 
J2VwaWtfcHl0aG9uJywgJy1waHQnLCAnMi4wJywgJy1waCcsICc3LjAnLCAnLXRuJywgJzgnLCAnLW1hJywgJzIwMCcsICctaW1hZScsICc8aW5maWxlLm1hZT4nLCAnLW9tYWUnLCAnPG91dGZpbGUubWFlPic=

>  <r_lp_tautomer_probability>  (386) 
1

>  <r_epik_Ionization_Penalty>  (386) 
2.28698e-06

>  <r_epik_Ionization_Penalty_Charging>  (386) 
0

>  <r_epik_Ionization_Penalty_Neutral>  (386) 
2.28698e-06

>  <r_epik_State_Penalty>  (386) 
-0

>  <r_epik_Charging_Adjusted_Penalty>  (386) 
0

>  <i_epik_Tot_Q>  (386) 
0

>  <i_epik_Tot_abs_Q>  (386) 
0

>  <s_lp_Force_Field>  (386) 
OPLS3e

>  <r_lp_Energy>  (386) 
48.5635

>  <b_lp_Chiralities_Consistent>  (386) 
1

>  <s_lp_Variant>  (386) 
114:0-1

>  <s_i_glide_gridfile>  (386) 
pfpi4k_grid

>  <i_i_glide_lignum>  (386) 
33

>  <i_i_glide_rotatable_bonds>  (386) 
1

>  <r_i_docking_score>  (386) 
-2.573

>  <r_i_glide_ligand_efficiency>  (386) 
-0.0830001

>  <r_i_glide_ligand_efficiency_sa>  (386) 
-0.260735

>  <r_i_glide_ligand_efficiency_ln>  (386) 
-0.580291

>  <r_i_glide_gscore>  (386) 
-2.573

>  <r_i_glide_lipo>  (386) 
-0.475029

>  <r_i_glide_hbond>  (386) 
0

>  <r_i_glide_metal>  (386) 
-0

>  <r_i_glide_rewards>  (386) 
-0.502781

>  <r_i_glide_evdw>  (386) 
-27.4964

>  <r_i_glide_ecoul>  (386) 
-1.41758

>  <r_i_glide_erotb>  (386) 
0

>  <r_i_glide_esite>  (386) 
-0.00773489

>  <r_i_glide_emodel>  (386) 
-33.5261

>  <r_i_glide_energy>  (386) 
-28.914

>  <r_i_glide_einternal>  (386) 
0.00343132

>  <r_i_glide_intrahb_reward>  (386) 
-0

>  <i_i_glide_confnum>  (386) 
3

>  <i_i_glide_posenum>  (386) 
24

>  <r_i_glide_eff_state_penalty>  (386) 
0

>  <ligand_id>  (386) 
114

>  <original_smiles>  (386) 
CC1=C2C(=O)C3=CCC4C(CCC5(C)C4CCC5(C)O)C3(C)C2OC12CCC(C)CO2

>  <smiles>  (386) 
[H]OC1(C([H])([H])[H])C([H])([H])C([H])([H])C2([H])C3([H])C([H])([H])C([H])=C4C(=O)C5=C(C([H])([H])[H])C6(OC([H])([H])C([H])(C([H])([H])[H])C([H])([H])C6([H])[H])OC5([H])C4(C([H])([H])[H])C3([H])C([H])([H])C([H])([H])C21C([H])([H])[H]

$$$$
115:0:0
     RDKit          3D

 20 22  0  0  1  0  0  0  0  0999 V2000
    1.5029   -5.8394    0.8299 O   0  0  0  0  0  0  0  0  0  0  0  0
    2.5118   -5.2334    0.4591 C   0  0  0  0  0  0  0  0  0  0  0  0
    2.5367   -4.2176   -0.4354 N   0  0  0  0  0  0  0  0  0  0  0  0
    3.8129   -3.8597   -0.6238 C   0  0  0  0  0  0  0  0  0  0  0  0
    4.5358   -2.9758   -1.3510 C   0  0  0  0  0  0  0  0  0  0  0  0
    4.1254   -1.9999   -2.3487 C   0  0  0  0  0  0  0  0  0  0  0  0
    3.2381   -2.1635   -3.3863 C   0  0  0  0  0  0  0  0  0  0  0  0
    3.0447   -0.7014   -4.3179 S   0  0  0  0  0  0  0  0  0  0  0  0
    4.1973    0.0714   -3.2666 C   0  0  0  0  0  0  0  0  0  0  0  0
    4.6886   -0.7207   -2.3150 N   0  0  0  0  0  0  0  0  0  0  0  0
    5.8677   -3.2679   -0.9076 C   0  0  0  0  0  0  0  0  0  0  0  0
    5.9290   -4.2554    0.0079 N   0  0  0  0  0  0  0  0  0  0  0  0
    4.6300   -4.5898    0.1365 N   0  0  0  0  0  0  0  0  0  0  0  0
    3.9542   -5.5633    0.9391 C   0  0  0  0  0  0  0  0  0  0  0  0
    4.1115   -5.3176    2.2422 F   0  0  0  0  0  0  0  0  0  0  0  0
    4.3124   -6.8074    0.6106 F   0  0  0  0  0  0  0  0  0  0  0  0
    1.7680   -3.8175   -0.9509 H   0  0  0  0  0  0  0  0  0  0  0  0
    2.6946   -3.0636   -3.6485 H   0  0  0  0  0  0  0  0  0  0  0  0
    4.5095    1.1014   -3.3564 H   0  0  0  0  0  0  0  0  0  0  0  0
    6.7836   -2.8024   -1.2307 H   0  0  0  0  0  0  0  0  0  0  0  0
  1  2  2  0
  2 14  1  0
  2  3  1  0
  3  4  1  0
  3 17  1  0
  4 13  1  0
  4  5  2  0
  5  6  1  0
  5 11  1  0
  6 10  1  0
  6  7  2  0
  7  8  1  0
  7 18  1  0
  8  9  1  0
  9 10  2  0
  9 19  1  0
 11 12  2  0
 11 20  1  0
 12 13  1  0
 13 14  1  0
 14 15  1  0
 14 16  1  0
M  END
>  <i_m_ct_stereo_status>  (387) 
1

>  <s_m_source_file>  (387) 
/var/tmp/pbs.5076255.sched01/tmpbrgkg_oh/138myny07gr.sdf

>  <i_m_source_file_index>  (387) 
34

>  <i_lp_mmshare_version>  (387) 
48012

>  <i_f3d_flags>  (387) 
0

>  <s_epik_input>  (387) 
Tz1DKFtOSF0xKUMoRikoRiluKGMxMiluW2NIXWMyLWMzW2NIXXNbY0hdbjM=

>  <s_epik_cmdline>  (387) 
J2VwaWtfcHl0aG9uJywgJy1waHQnLCAnMi4wJywgJy1waCcsICc3LjAnLCAnLXRuJywgJzgnLCAnLW1hJywgJzIwMCcsICctaW1hZScsICc8aW5maWxlLm1hZT4nLCAnLW9tYWUnLCAnPG91dGZpbGUubWFlPic=

>  <r_lp_tautomer_probability>  (387) 
1

>  <r_epik_Ionization_Penalty>  (387) 
1.47032e-05

>  <r_epik_Ionization_Penalty_Charging>  (387) 
0

>  <r_epik_Ionization_Penalty_Neutral>  (387) 
1.47032e-05

>  <r_epik_State_Penalty>  (387) 
-0

>  <r_epik_Charging_Adjusted_Penalty>  (387) 
0

>  <i_epik_Tot_Q>  (387) 
0

>  <i_epik_Tot_abs_Q>  (387) 
0

>  <s_lp_Force_Field>  (387) 
OPLS3e

>  <r_lp_Energy>  (387) 
4.87391

>  <b_lp_Chiralities_Consistent>  (387) 
1

>  <s_lp_Variant>  (387) 
115:0-1

>  <s_i_glide_gridfile>  (387) 
pfpi4k_grid

>  <i_i_glide_lignum>  (387) 
34

>  <i_i_glide_rotatable_bonds>  (387) 
1

>  <r_i_docking_score>  (387) 
-4.20655

>  <r_i_glide_ligand_efficiency>  (387) 
-0.262909

>  <r_i_glide_ligand_efficiency_sa>  (387) 
-0.66249

>  <r_i_glide_ligand_efficiency_ln>  (387) 
-1.11503

>  <r_i_glide_gscore>  (387) 
-4.20655

>  <r_i_glide_lipo>  (387) 
-0.536423

>  <r_i_glide_hbond>  (387) 
-0.149233

>  <r_i_glide_metal>  (387) 
-0

>  <r_i_glide_rewards>  (387) 
-1.9859

>  <r_i_glide_evdw>  (387) 
-20.8624

>  <r_i_glide_ecoul>  (387) 
-4.55281

>  <r_i_glide_erotb>  (387) 
0.295592

>  <r_i_glide_esite>  (387) 
-0.104542

>  <r_i_glide_emodel>  (387) 
-31.2157

>  <r_i_glide_energy>  (387) 
-25.4152

>  <r_i_glide_einternal>  (387) 
1.99052

>  <r_i_glide_intrahb_reward>  (387) 
-0

>  <i_i_glide_confnum>  (387) 
2

>  <i_i_glide_posenum>  (387) 
8

>  <r_i_glide_eff_state_penalty>  (387) 
0

>  <ligand_id>  (387) 
115

>  <original_smiles>  (387) 
O=C1Nc2c(-c3cscn3)cnn2C1(F)F

>  <smiles>  (387) 
[H]c1nc(-c2c([H])nn3c2N([H])C(=O)C3(F)F)c([H])s1

$$$$
115:0:1
     RDKit          3D

 20 22  0  0  1  0  0  0  0  0999 V2000
    1.7580   -1.6400    3.1703 O   0  0  0  0  0  0  0  0  0  0  0  0
    2.6878   -1.8202    2.3870 C   0  0  0  0  0  0  0  0  0  0  0  0
    2.6234   -1.7034    1.0415 N   0  0  0  0  0  0  0  0  0  0  0  0
    3.8352   -1.9857    0.5478 C   0  0  0  0  0  0  0  0  0  0  0  0
    4.4724   -2.0505   -0.6472 C   0  0  0  0  0  0  0  0  0  0  0  0
    4.0029   -1.7992   -1.9966 C   0  0  0  0  0  0  0  0  0  0  0  0
    4.1605   -0.6535   -2.7364 C   0  0  0  0  0  0  0  0  0  0  0  0
    3.4438   -0.7781   -4.3188 S   0  0  0  0  0  0  0  0  0  0  0  0
    2.9846   -2.4232   -3.9175 C   0  0  0  0  0  0  0  0  0  0  0  0
    3.3597   -2.8147   -2.7000 N   0  0  0  0  0  0  0  0  0  0  0  0
    5.7942   -2.4426   -0.2529 C   0  0  0  0  0  0  0  0  0  0  0  0
    5.9375   -2.5778    1.0795 N   0  0  0  0  0  0  0  0  0  0  0  0
    4.6954   -2.2867    1.5210 N   0  0  0  0  0  0  0  0  0  0  0  0
    4.1226   -2.2297    2.8309 C   0  0  0  0  0  0  0  0  0  0  0  0
    4.7013   -1.2861    3.5796 F   0  0  0  0  0  0  0  0  0  0  0  0
    4.1343   -3.4248    3.4279 F   0  0  0  0  0  0  0  0  0  0  0  0
    1.8212   -1.4334    0.4697 H   0  0  0  0  0  0  0  0  0  0  0  0
    4.6339    0.2687   -2.4315 H   0  0  0  0  0  0  0  0  0  0  0  0
    2.4618   -3.0979   -4.5760 H   0  0  0  0  0  0  0  0  0  0  0  0
    6.6444   -2.6269   -0.8874 H   0  0  0  0  0  0  0  0  0  0  0  0
  1  2  2  0
  2 14  1  0
  2  3  1  0
  3  4  1  0
  3 17  1  0
  4 13  1  0
  4  5  2  0
  5  6  1  0
  5 11  1  0
  6 10  1  0
  6  7  2  0
  7  8  1  0
  7 18  1  0
  8  9  1  0
  9 10  2  0
  9 19  1  0
 11 12  2  0
 11 20  1  0
 12 13  1  0
 13 14  1  0
 14 15  1  0
 14 16  1  0
M  END
>  <i_m_ct_stereo_status>  (388) 
1

>  <s_m_source_file>  (388) 
/var/tmp/pbs.5076255.sched01/tmpbrgkg_oh/138myny07gr.sdf

>  <i_m_source_file_index>  (388) 
34

>  <i_lp_mmshare_version>  (388) 
48012

>  <i_f3d_flags>  (388) 
0

>  <s_epik_input>  (388) 
Tz1DKFtOSF0xKUMoRikoRiluKGMxMiluW2NIXWMyLWMzW2NIXXNbY0hdbjM=

>  <s_epik_cmdline>  (388) 
J2VwaWtfcHl0aG9uJywgJy1waHQnLCAnMi4wJywgJy1waCcsICc3LjAnLCAnLXRuJywgJzgnLCAnLW1hJywgJzIwMCcsICctaW1hZScsICc8aW5maWxlLm1hZT4nLCAnLW9tYWUnLCAnPG91dGZpbGUubWFlPic=

>  <r_lp_tautomer_probability>  (388) 
1

>  <r_epik_Ionization_Penalty>  (388) 
1.47032e-05

>  <r_epik_Ionization_Penalty_Charging>  (388) 
0

>  <r_epik_Ionization_Penalty_Neutral>  (388) 
1.47032e-05

>  <r_epik_State_Penalty>  (388) 
-0

>  <r_epik_Charging_Adjusted_Penalty>  (388) 
0

>  <i_epik_Tot_Q>  (388) 
0

>  <i_epik_Tot_abs_Q>  (388) 
0

>  <s_lp_Force_Field>  (388) 
OPLS3e

>  <r_lp_Energy>  (388) 
4.87391

>  <b_lp_Chiralities_Consistent>  (388) 
1

>  <s_lp_Variant>  (388) 
115:0-1

>  <s_i_glide_gridfile>  (388) 
pfpi4k_grid

>  <i_i_glide_lignum>  (388) 
34

>  <i_i_glide_rotatable_bonds>  (388) 
1

>  <r_i_docking_score>  (388) 
-3.65024

>  <r_i_glide_ligand_efficiency>  (388) 
-0.22814

>  <r_i_glide_ligand_efficiency_sa>  (388) 
-0.574876

>  <r_i_glide_ligand_efficiency_ln>  (388) 
-0.967568

>  <r_i_glide_gscore>  (388) 
-3.65024

>  <r_i_glide_lipo>  (388) 
-0.400096

>  <r_i_glide_hbond>  (388) 
-0.16

>  <r_i_glide_metal>  (388) 
-0

>  <r_i_glide_rewards>  (388) 
-1.86782

>  <r_i_glide_evdw>  (388) 
-22.3709

>  <r_i_glide_ecoul>  (388) 
-2.22218

>  <r_i_glide_erotb>  (388) 
0.295592

>  <r_i_glide_esite>  (388) 
-0.0660479

>  <r_i_glide_emodel>  (388) 
-28.5849

>  <r_i_glide_energy>  (388) 
-24.5931

>  <r_i_glide_einternal>  (388) 
4.04732

>  <r_i_glide_intrahb_reward>  (388) 
-0

>  <i_i_glide_confnum>  (388) 
3

>  <i_i_glide_posenum>  (388) 
25

>  <r_i_glide_eff_state_penalty>  (388) 
0

>  <ligand_id>  (388) 
115

>  <original_smiles>  (388) 
O=C1Nc2c(-c3cscn3)cnn2C1(F)F

>  <smiles>  (388) 
[H]c1nc(-c2c([H])nn3c2N([H])C(=O)C3(F)F)c([H])s1

$$$$
115:0:2
     RDKit          3D

 20 22  0  0  1  0  0  0  0  0999 V2000
    1.5440   -6.6938    1.1610 O   0  0  0  0  0  0  0  0  0  0  0  0
    2.3554   -5.7717    1.1131 C   0  0  0  0  0  0  0  0  0  0  0  0
    2.5141   -4.9296    0.0723 N   0  0  0  0  0  0  0  0  0  0  0  0
    3.4581   -4.0375    0.3927 C   0  0  0  0  0  0  0  0  0  0  0  0
    4.0853   -2.9672   -0.1478 C   0  0  0  0  0  0  0  0  0  0  0  0
    3.9498   -2.3472   -1.4588 C   0  0  0  0  0  0  0  0  0  0  0  0
    3.3711   -2.8776   -2.5834 C   0  0  0  0  0  0  0  0  0  0  0  0
    3.4048   -1.7789   -3.9255 S   0  0  0  0  0  0  0  0  0  0  0  0
    4.2141   -0.6185   -2.9054 C   0  0  0  0  0  0  0  0  0  0  0  0
    4.4686   -1.0621   -1.6757 N   0  0  0  0  0  0  0  0  0  0  0  0
    4.9703   -2.5928    0.9170 C   0  0  0  0  0  0  0  0  0  0  0  0
    4.8807   -3.3901    2.0005 N   0  0  0  0  0  0  0  0  0  0  0  0
    3.9294   -4.2658    1.6184 N   0  0  0  0  0  0  0  0  0  0  0  0
    3.3219   -5.3871    2.2704 C   0  0  0  0  0  0  0  0  0  0  0  0
    2.6503   -5.0146    3.3619 F   0  0  0  0  0  0  0  0  0  0  0  0
    4.2109   -6.3514    2.5245 F   0  0  0  0  0  0  0  0  0  0  0  0
    2.0598   -4.9738   -0.8291 H   0  0  0  0  0  0  0  0  0  0  0  0
    2.9222   -3.8547   -2.7021 H   0  0  0  0  0  0  0  0  0  0  0  0
    4.5113    0.3750   -3.2083 H   0  0  0  0  0  0  0  0  0  0  0  0
    5.6760   -1.7798    0.9278 H   0  0  0  0  0  0  0  0  0  0  0  0
  1  2  2  0
  2 14  1  0
  2  3  1  0
  3  4  1  0
  3 17  1  0
  4 13  1  0
  4  5  2  0
  5  6  1  0
  5 11  1  0
  6 10  1  0
  6  7  2  0
  7  8  1  0
  7 18  1  0
  8  9  1  0
  9 10  2  0
  9 19  1  0
 11 12  2  0
 11 20  1  0
 12 13  1  0
 13 14  1  0
 14 15  1  0
 14 16  1  0
M  END
>  <i_m_ct_stereo_status>  (389) 
1

>  <s_m_source_file>  (389) 
/var/tmp/pbs.5076255.sched01/tmpbrgkg_oh/138myny07gr.sdf

>  <i_m_source_file_index>  (389) 
34

>  <i_lp_mmshare_version>  (389) 
48012

>  <i_f3d_flags>  (389) 
0

>  <s_epik_input>  (389) 
Tz1DKFtOSF0xKUMoRikoRiluKGMxMiluW2NIXWMyLWMzW2NIXXNbY0hdbjM=

>  <s_epik_cmdline>  (389) 
J2VwaWtfcHl0aG9uJywgJy1waHQnLCAnMi4wJywgJy1waCcsICc3LjAnLCAnLXRuJywgJzgnLCAnLW1hJywgJzIwMCcsICctaW1hZScsICc8aW5maWxlLm1hZT4nLCAnLW9tYWUnLCAnPG91dGZpbGUubWFlPic=

>  <r_lp_tautomer_probability>  (389) 
1

>  <r_epik_Ionization_Penalty>  (389) 
1.47032e-05

>  <r_epik_Ionization_Penalty_Charging>  (389) 
0

>  <r_epik_Ionization_Penalty_Neutral>  (389) 
1.47032e-05

>  <r_epik_State_Penalty>  (389) 
-0

>  <r_epik_Charging_Adjusted_Penalty>  (389) 
0

>  <i_epik_Tot_Q>  (389) 
0

>  <i_epik_Tot_abs_Q>  (389) 
0

>  <s_lp_Force_Field>  (389) 
OPLS3e

>  <r_lp_Energy>  (389) 
4.87391

>  <b_lp_Chiralities_Consistent>  (389) 
1

>  <s_lp_Variant>  (389) 
115:0-1

>  <s_i_glide_gridfile>  (389) 
pfpi4k_grid

>  <i_i_glide_lignum>  (389) 
34

>  <i_i_glide_rotatable_bonds>  (389) 
1

>  <r_i_docking_score>  (389) 
-3.49506

>  <r_i_glide_ligand_efficiency>  (389) 
-0.218441

>  <r_i_glide_ligand_efficiency_sa>  (389) 
-0.550437

>  <r_i_glide_ligand_efficiency_ln>  (389) 
-0.926434

>  <r_i_glide_gscore>  (389) 
-3.49506

>  <r_i_glide_lipo>  (389) 
-0.258184

>  <r_i_glide_hbond>  (389) 
-0.0572041

>  <r_i_glide_metal>  (389) 
-0

>  <r_i_glide_rewards>  (389) 
-1.77151

>  <r_i_glide_evdw>  (389) 
-22.127

>  <r_i_glide_ecoul>  (389) 
-3.4012

>  <r_i_glide_erotb>  (389) 
0.295592

>  <r_i_glide_esite>  (389) 
-0.087216

>  <r_i_glide_emodel>  (389) 
-31.1278

>  <r_i_glide_energy>  (389) 
-25.5282

>  <r_i_glide_einternal>  (389) 
0.341016

>  <r_i_glide_intrahb_reward>  (389) 
-0

>  <i_i_glide_confnum>  (389) 
4

>  <i_i_glide_posenum>  (389) 
26

>  <r_i_glide_eff_state_penalty>  (389) 
0

>  <ligand_id>  (389) 
115

>  <original_smiles>  (389) 
O=C1Nc2c(-c3cscn3)cnn2C1(F)F

>  <smiles>  (389) 
[H]c1nc(-c2c([H])nn3c2N([H])C(=O)C3(F)F)c([H])s1

$$$$
116:0:0
     RDKit          3D

 56 59  0  0  1  0  0  0  0  0999 V2000
    7.2912   -2.7396   -0.9506 C   0  0  0  0  0  0  0  0  0  0  0  0
    6.9925   -2.1531    0.4475 C   0  0  0  0  0  0  0  0  0  0  0  0
    6.1985   -3.0468    1.4651 C   0  0  2  0  0  0  0  0  0  0  0  0
    6.8096   -4.3400    1.3635 O   0  0  0  0  0  0  0  0  0  0  0  0
    6.3851   -5.4334    2.1737 C   0  0  1  0  0  0  0  0  0  0  0  0
    5.6724   -5.0234    3.4723 C   0  0  0  0  0  0  0  0  0  0  0  0
    4.1671   -4.9634    3.2196 C   0  0  1  0  0  0  0  0  0  0  0  0
    3.7906   -3.5810    2.5693 C   0  0  1  0  0  0  0  0  0  0  0  0
    3.8666   -2.6715    3.6520 O   0  0  0  0  0  0  0  0  0  0  0  0
    4.6322   -3.0064    1.3417 C   0  0  1  0  0  0  0  0  0  0  0  0
    4.3765   -1.5856    1.3379 O   0  0  0  0  0  0  0  0  0  0  0  0
    3.1207   -1.0755    0.8909 C   0  0  0  0  0  0  0  0  0  0  0  0
    4.1618   -3.5567   -0.0328 C   0  0  0  0  0  0  0  0  0  0  0  0
    4.7472   -4.9004   -0.5310 C   0  0  0  0  0  0  0  0  0  0  0  0
    4.5064   -6.1349    0.3404 C   0  0  2  0  0  0  0  0  0  0  0  0
    3.1976   -6.0975    1.1294 C   0  0  0  0  0  0  0  0  0  0  0  0
    2.0593   -5.9594    0.5941 N   0  0  0  0  0  0  0  0  0  0  0  0
    0.9907   -5.9169    1.4964 O   0  0  0  0  0  0  0  0  0  0  0  0
    0.0361   -6.8842    1.0982 C   0  0  0  0  0  0  0  0  0  0  0  0
    3.6376   -6.3252    2.5936 C   0  0  2  0  0  0  0  0  0  0  0  0
    2.5821   -6.9737    3.5344 C   0  0  0  0  0  0  0  0  0  0  0  0
    2.1655   -8.2213    3.0414 O   0  0  0  0  0  0  0  0  0  0  0  0
    4.7294   -7.2875    2.2839 N   0  0  2  0  0  0  0  0  0  0  0  0
    5.3462   -8.1976    3.2729 C   0  0  0  0  0  0  0  0  0  0  0  0
    5.6093   -6.5456    1.3650 C   0  0  2  0  0  0  0  0  0  0  0  0
    7.9749   -2.1117   -1.5226 H   0  0  0  0  0  0  0  0  0  0  0  0
    6.3991   -2.8905   -1.5565 H   0  0  0  0  0  0  0  0  0  0  0  0
    7.8113   -3.7014   -0.8618 H   0  0  0  0  0  0  0  0  0  0  0  0
    7.9733   -1.9495    0.8774 H   0  0  0  0  0  0  0  0  0  0  0  0
    6.5358   -1.1753    0.3549 H   0  0  0  0  0  0  0  0  0  0  0  0
    6.4240   -2.6283    2.4470 H   0  0  0  0  0  0  0  0  0  0  0  0
    7.3126   -5.9074    2.4963 H   0  0  0  0  0  0  0  0  0  0  0  0
    5.8483   -5.7539    4.2632 H   0  0  0  0  0  0  0  0  0  0  0  0
    6.0594   -4.1164    3.9237 H   0  0  0  0  0  0  0  0  0  0  0  0
    3.7239   -4.9346    4.2134 H   0  0  0  0  0  0  0  0  0  0  0  0
    2.7354   -3.5976    2.2949 H   0  0  0  0  0  0  0  0  0  0  0  0
    4.7754   -2.5520    3.8841 H   0  0  0  0  0  0  0  0  0  0  0  0
    3.1045    0.0031    1.0415 H   0  0  0  0  0  0  0  0  0  0  0  0
    2.2734   -1.5019    1.4267 H   0  0  0  0  0  0  0  0  0  0  0  0
    2.9924   -1.2252   -0.1777 H   0  0  0  0  0  0  0  0  0  0  0  0
    3.0717   -3.6081   -0.0407 H   0  0  0  0  0  0  0  0  0  0  0  0
    4.3917   -2.8177   -0.7986 H   0  0  0  0  0  0  0  0  0  0  0  0
    4.2952   -5.0596   -1.5015 H   0  0  0  0  0  0  0  0  0  0  0  0
    5.8133   -4.8767   -0.7429 H   0  0  0  0  0  0  0  0  0  0  0  0
    4.4135   -6.9731   -0.3471 H   0  0  0  0  0  0  0  0  0  0  0  0
   -0.7806   -6.8570    1.8171 H   0  0  0  0  0  0  0  0  0  0  0  0
    0.4448   -7.8935    1.1190 H   0  0  0  0  0  0  0  0  0  0  0  0
   -0.3688   -6.7093    0.1014 H   0  0  0  0  0  0  0  0  0  0  0  0
    3.0110   -7.1262    4.5272 H   0  0  0  0  0  0  0  0  0  0  0  0
    1.7389   -6.3002    3.6871 H   0  0  0  0  0  0  0  0  0  0  0  0
    1.6019   -8.0818    2.2869 H   0  0  0  0  0  0  0  0  0  0  0  0
    6.0840   -7.7519    3.9446 H   0  0  0  0  0  0  0  0  0  0  0  0
    5.8690   -8.9821    2.7110 H   0  0  0  0  0  0  0  0  0  0  0  0
    4.5875   -8.7162    3.8757 H   0  0  0  0  0  0  0  0  0  0  0  0
    6.3362   -7.1983    0.8852 H   0  0  0  0  0  0  0  0  0  0  0  0
    4.2491   -7.9508    1.6894 H   0  0  0  0  0  0  0  0  0  0  0  0
  1  2  1  0
  1 26  1  0
  1 27  1  0
  1 28  1  0
  2  3  1  0
  2 29  1  0
  2 30  1  0
  3 10  1  0
  3  4  1  0
  3 31  1  1
  4  5  1  0
  5 25  1  0
  5  6  1  0
  5 32  1  1
  6  7  1  0
  6 33  1  0
  6 34  1  0
  7 20  1  0
  7  8  1  0
  7 35  1  1
  8  9  1  0
  8 10  1  0
  8 36  1  6
  9 37  1  0
 10 11  1  6
 10 13  1  0
 11 12  1  0
 12 38  1  0
 12 39  1  0
 12 40  1  0
 13 14  1  0
 13 41  1  0
 13 42  1  0
 14 15  1  0
 14 43  1  0
 14 44  1  0
 15 25  1  0
 15 16  1  0
 15 45  1  6
 16 17  2  3
 16 20  1  0
 17 18  1  0
 18 19  1  0
 19 46  1  0
 19 47  1  0
 19 48  1  0
 20 21  1  1
 20 23  1  0
 21 22  1  0
 21 49  1  0
 21 50  1  0
 22 51  1  0
 23 24  1  0
 23 25  1  0
 23 56  1  6
 24 52  1  0
 24 53  1  0
 24 54  1  0
 25 55  1  6
M  CHG  1  23   1
M  END
>  <i_m_ct_stereo_status>  (390) 
1

>  <s_m_source_file>  (390) 
/var/tmp/pbs.5076255.sched01/tmpbrgkg_oh/138myny07gr.sdf

>  <i_m_source_file_index>  (390) 
35

>  <i_lp_mmshare_version>  (390) 
48012

>  <i_f3d_flags>  (390) 
0

>  <s_epik_input>  (390) 
W0NIM11PW0NAQF0xMltDQEhdKFtDSDJdW0NIM10pT1tDQEBIXTNbQ0BASF00W0NASF0oW0NIMl1bQ0gyXTIpL0MoPU4vT1tDSDNdKVtDQEBdKFtDSDJdW09IXSkoTjRbQ0gzXSlbQ0BASF0oW0NIMl0zKVtDQEhdMVtPSF0=

>  <s_epik_cmdline>  (390) 
J2VwaWtfcHl0aG9uJywgJy1waHQnLCAnMi4wJywgJy1waCcsICc3LjAnLCAnLXRuJywgJzgnLCAnLW1hJywgJzIwMCcsICctaW1hZScsICc8aW5maWxlLm1hZT4nLCAnLW9tYWUnLCAnPG91dGZpbGUubWFlPic=

>  <r_epik_Ionization_Penalty>  (390) 
0.0200917

>  <r_epik_Ionization_Penalty_Charging>  (390) 
0.0200836

>  <r_epik_Ionization_Penalty_Neutral>  (390) 
8.09681e-06

>  <r_epik_State_Penalty>  (390) 
0.0160774

>  <r_epik_Charging_Adjusted_Penalty>  (390) 
0.036161

>  <i_epik_Tot_Q>  (390) 
1

>  <i_epik_Tot_abs_Q>  (390) 
1

>  <s_epik_Chemistry_Notes>  (390) 
This compound has an imine and may undergo hydrolysis.

>  <s_lp_Force_Field>  (390) 
OPLS3e

>  <r_lp_Energy>  (390) 
72.2462

>  <b_lp_Chiralities_Consistent>  (390) 
1

>  <s_lp_Variant>  (390) 
116:0-1

>  <s_i_glide_gridfile>  (390) 
pfpi4k_grid

>  <i_i_glide_lignum>  (390) 
35

>  <i_i_glide_rotatable_bonds>  (390) 
6

>  <r_i_docking_score>  (390) 
-2.7198

>  <r_i_glide_ligand_efficiency>  (390) 
-0.108792

>  <r_i_glide_ligand_efficiency_sa>  (390) 
-0.318109

>  <r_i_glide_ligand_efficiency_ln>  (390) 
-0.644674

>  <r_i_glide_gscore>  (390) 
-2.7198

>  <r_i_glide_lipo>  (390) 
-0.467355

>  <r_i_glide_hbond>  (390) 
0

>  <r_i_glide_metal>  (390) 
-0

>  <r_i_glide_rewards>  (390) 
-1.01098

>  <r_i_glide_evdw>  (390) 
-17.727

>  <r_i_glide_ecoul>  (390) 
-3.40467

>  <r_i_glide_erotb>  (390) 
0.302677

>  <r_i_glide_esite>  (390) 
-0.147087

>  <r_i_glide_emodel>  (390) 
-19.857

>  <r_i_glide_energy>  (390) 
-21.1317

>  <r_i_glide_einternal>  (390) 
7.50197

>  <r_i_glide_intrahb_reward>  (390) 
-0

>  <i_i_glide_confnum>  (390) 
6

>  <i_i_glide_posenum>  (390) 
10

>  <r_i_glide_eff_state_penalty>  (390) 
0

>  <ligand_id>  (390) 
116

>  <original_smiles>  (390) 
CCC1OC2CC3C(O)C1(OC)CCC1C(=NOC)C3(CO)N(C)C21

>  <smiles>  (390) 
[H]OC([H])([H])C12C(=NOC([H])([H])[H])C3([H])C([H])([H])C([H])([H])C4(OC([H])([H])[H])C([H])(C([H])([H])C([H])([H])[H])OC([H])(C([H])([H])C1([H])C4([H])O[H])C3([H])[N+]2([H])C([H])([H])[H]

$$$$
116:0:1
     RDKit          3D

 56 59  0  0  1  0  0  0  0  0999 V2000
    7.2570   -2.6618   -0.9559 C   0  0  0  0  0  0  0  0  0  0  0  0
    6.9584   -2.0946    0.4482 C   0  0  0  0  0  0  0  0  0  0  0  0
    6.1698   -2.9939    1.4596 C   0  0  2  0  0  0  0  0  0  0  0  0
    6.7908   -4.2855    1.3603 O   0  0  0  0  0  0  0  0  0  0  0  0
    6.3743   -5.3831    2.1693 C   0  0  1  0  0  0  0  0  0  0  0  0
    5.6692   -4.9738    3.4750 C   0  0  0  0  0  0  0  0  0  0  0  0
    4.1629   -4.9275    3.2333 C   0  0  1  0  0  0  0  0  0  0  0  0
    3.7734   -3.5509    2.5868 C   0  0  1  0  0  0  0  0  0  0  0  0
    3.8437   -2.6401    3.6616 O   0  0  0  0  0  0  0  0  0  0  0  0
    4.6001   -2.9617    1.3559 C   0  0  1  0  0  0  0  0  0  0  0  0
    4.3325   -1.5438    1.3492 O   0  0  0  0  0  0  0  0  0  0  0  0
    3.0144   -1.0611    1.0950 C   0  0  0  0  0  0  0  0  0  0  0  0
    4.1227   -3.5028   -0.0136 C   0  0  0  0  0  0  0  0  0  0  0  0
    4.7224   -4.8449   -0.5190 C   0  0  0  0  0  0  0  0  0  0  0  0
    4.4914   -6.0870    0.3535 C   0  0  2  0  0  0  0  0  0  0  0  0
    3.2021   -6.0716    1.1589 C   0  0  0  0  0  0  0  0  0  0  0  0
    2.0548   -5.9272    0.6024 N   0  0  0  0  0  0  0  0  0  0  0  0
    0.9929   -5.8742    1.5026 O   0  0  0  0  0  0  0  0  0  0  0  0
    0.0349   -6.8288    1.0913 C   0  0  0  0  0  0  0  0  0  0  0  0
    3.6250   -6.2905    2.6170 C   0  0  2  0  0  0  0  0  0  0  0  0
    2.5480   -6.9513    3.5194 C   0  0  0  0  0  0  0  0  0  0  0  0
    3.0065   -7.2029    4.8236 O   0  0  0  0  0  0  0  0  0  0  0  0
    4.7298   -7.2626    2.2835 N   0  0  2  0  0  0  0  0  0  0  0  0
    5.3727   -8.1743    3.2525 C   0  0  0  0  0  0  0  0  0  0  0  0
    5.5976   -6.4965    1.3662 C   0  0  2  0  0  0  0  0  0  0  0  0
    7.9547   -2.0288   -1.5138 H   0  0  0  0  0  0  0  0  0  0  0  0
    6.3587   -2.8062   -1.5672 H   0  0  0  0  0  0  0  0  0  0  0  0
    7.7757   -3.6186   -0.8857 H   0  0  0  0  0  0  0  0  0  0  0  0
    7.9390   -1.9005    0.8679 H   0  0  0  0  0  0  0  0  0  0  0  0
    6.5029   -1.1114    0.3679 H   0  0  0  0  0  0  0  0  0  0  0  0
    6.3944   -2.5791    2.4316 H   0  0  0  0  0  0  0  0  0  0  0  0
    7.3060   -5.8507    2.4904 H   0  0  0  0  0  0  0  0  0  0  0  0
    5.8501   -5.7022    4.2601 H   0  0  0  0  0  0  0  0  0  0  0  0
    6.0501   -4.0644    3.9247 H   0  0  0  0  0  0  0  0  0  0  0  0
    3.7177   -4.8734    4.2304 H   0  0  0  0  0  0  0  0  0  0  0  0
    2.7138   -3.5890    2.3171 H   0  0  0  0  0  0  0  0  0  0  0  0
    4.7663   -2.5060    3.8881 H   0  0  0  0  0  0  0  0  0  0  0  0
    3.0319    0.0227    1.1877 H   0  0  0  0  0  0  0  0  0  0  0  0
    2.2737   -1.4360    1.7966 H   0  0  0  0  0  0  0  0  0  0  0  0
    2.6941   -1.2878    0.0811 H   0  0  0  0  0  0  0  0  0  0  0  0
    3.0313   -3.5759   -0.0035 H   0  0  0  0  0  0  0  0  0  0  0  0
    4.3259   -2.7475   -0.7761 H   0  0  0  0  0  0  0  0  0  0  0  0
    4.2620   -5.0083   -1.4886 H   0  0  0  0  0  0  0  0  0  0  0  0
    5.7884   -4.7959   -0.7349 H   0  0  0  0  0  0  0  0  0  0  0  0
    4.4004   -6.9262   -0.3385 H   0  0  0  0  0  0  0  0  0  0  0  0
   -0.8076   -6.7948    1.7850 H   0  0  0  0  0  0  0  0  0  0  0  0
    0.4417   -7.8439    1.1184 H   0  0  0  0  0  0  0  0  0  0  0  0
   -0.3438   -6.6344    0.0839 H   0  0  0  0  0  0  0  0  0  0  0  0
    1.7074   -6.2721    3.6553 H   0  0  0  0  0  0  0  0  0  0  0  0
    2.1760   -7.8689    3.0670 H   0  0  0  0  0  0  0  0  0  0  0  0
    3.2496   -6.3722    5.2208 H   0  0  0  0  0  0  0  0  0  0  0  0
    6.0893   -7.7128    3.9366 H   0  0  0  0  0  0  0  0  0  0  0  0
    5.9243   -8.9224    2.6749 H   0  0  0  0  0  0  0  0  0  0  0  0
    4.6364   -8.7348    3.8317 H   0  0  0  0  0  0  0  0  0  0  0  0
    6.3273   -7.1425    0.8715 H   0  0  0  0  0  0  0  0  0  0  0  0
    4.2512   -7.9092    1.6790 H   0  0  0  0  0  0  0  0  0  0  0  0
  1  2  1  0
  1 26  1  0
  1 27  1  0
  1 28  1  0
  2  3  1  0
  2 29  1  0
  2 30  1  0
  3 10  1  0
  3  4  1  0
  3 31  1  1
  4  5  1  0
  5 25  1  0
  5  6  1  0
  5 32  1  1
  6  7  1  0
  6 33  1  0
  6 34  1  0
  7 20  1  0
  7  8  1  0
  7 35  1  1
  8  9  1  0
  8 10  1  0
  8 36  1  6
  9 37  1  0
 10 11  1  6
 10 13  1  0
 11 12  1  0
 12 38  1  0
 12 39  1  0
 12 40  1  0
 13 14  1  0
 13 41  1  0
 13 42  1  0
 14 15  1  0
 14 43  1  0
 14 44  1  0
 15 25  1  0
 15 16  1  0
 15 45  1  6
 16 17  2  3
 16 20  1  0
 17 18  1  0
 18 19  1  0
 19 46  1  0
 19 47  1  0
 19 48  1  0
 20 21  1  1
 20 23  1  0
 21 22  1  0
 21 49  1  0
 21 50  1  0
 22 51  1  0
 23 24  1  0
 23 25  1  0
 23 56  1  6
 24 52  1  0
 24 53  1  0
 24 54  1  0
 25 55  1  6
M  CHG  1  23   1
M  END
>  <i_m_ct_stereo_status>  (391) 
1

>  <s_m_source_file>  (391) 
/var/tmp/pbs.5076255.sched01/tmpbrgkg_oh/138myny07gr.sdf

>  <i_m_source_file_index>  (391) 
35

>  <i_lp_mmshare_version>  (391) 
48012

>  <i_f3d_flags>  (391) 
0

>  <s_epik_input>  (391) 
W0NIM11PW0NAQF0xMltDQEhdKFtDSDJdW0NIM10pT1tDQEBIXTNbQ0BASF00W0NASF0oW0NIMl1bQ0gyXTIpL0MoPU4vT1tDSDNdKVtDQEBdKFtDSDJdW09IXSkoTjRbQ0gzXSlbQ0BASF0oW0NIMl0zKVtDQEhdMVtPSF0=

>  <s_epik_cmdline>  (391) 
J2VwaWtfcHl0aG9uJywgJy1waHQnLCAnMi4wJywgJy1waCcsICc3LjAnLCAnLXRuJywgJzgnLCAnLW1hJywgJzIwMCcsICctaW1hZScsICc8aW5maWxlLm1hZT4nLCAnLW9tYWUnLCAnPG91dGZpbGUubWFlPic=

>  <r_epik_Ionization_Penalty>  (391) 
0.0200917

>  <r_epik_Ionization_Penalty_Charging>  (391) 
0.0200836

>  <r_epik_Ionization_Penalty_Neutral>  (391) 
8.09681e-06

>  <r_epik_State_Penalty>  (391) 
0.0160774

>  <r_epik_Charging_Adjusted_Penalty>  (391) 
0.036161

>  <i_epik_Tot_Q>  (391) 
1

>  <i_epik_Tot_abs_Q>  (391) 
1

>  <s_epik_Chemistry_Notes>  (391) 
This compound has an imine and may undergo hydrolysis.

>  <s_lp_Force_Field>  (391) 
OPLS3e

>  <r_lp_Energy>  (391) 
72.2462

>  <b_lp_Chiralities_Consistent>  (391) 
1

>  <s_lp_Variant>  (391) 
116:0-1

>  <s_i_glide_gridfile>  (391) 
pfpi4k_grid

>  <i_i_glide_lignum>  (391) 
35

>  <i_i_glide_rotatable_bonds>  (391) 
6

>  <r_i_docking_score>  (391) 
-2.65742

>  <r_i_glide_ligand_efficiency>  (391) 
-0.106297

>  <r_i_glide_ligand_efficiency_sa>  (391) 
-0.310813

>  <r_i_glide_ligand_efficiency_ln>  (391) 
-0.629887

>  <r_i_glide_gscore>  (391) 
-2.65742

>  <r_i_glide_lipo>  (391) 
-0.458634

>  <r_i_glide_hbond>  (391) 
0

>  <r_i_glide_metal>  (391) 
-0

>  <r_i_glide_rewards>  (391) 
-1.01333

>  <r_i_glide_evdw>  (391) 
-17.1065

>  <r_i_glide_ecoul>  (391) 
-3.22861

>  <r_i_glide_erotb>  (391) 
0.302677

>  <r_i_glide_esite>  (391) 
-0.148515

>  <r_i_glide_emodel>  (391) 
-20.9338

>  <r_i_glide_energy>  (391) 
-20.3351

>  <r_i_glide_einternal>  (391) 
5.40341

>  <r_i_glide_intrahb_reward>  (391) 
-0

>  <i_i_glide_confnum>  (391) 
1

>  <i_i_glide_posenum>  (391) 
6

>  <r_i_glide_eff_state_penalty>  (391) 
0

>  <ligand_id>  (391) 
116

>  <original_smiles>  (391) 
CCC1OC2CC3C(O)C1(OC)CCC1C(=NOC)C3(CO)N(C)C21

>  <smiles>  (391) 
[H]OC([H])([H])C12C(=NOC([H])([H])[H])C3([H])C([H])([H])C([H])([H])C4(OC([H])([H])[H])C([H])(C([H])([H])C([H])([H])[H])OC([H])(C([H])([H])C1([H])C4([H])O[H])C3([H])[N+]2([H])C([H])([H])[H]

$$$$
116:0:2
     RDKit          3D

 56 59  0  0  1  0  0  0  0  0999 V2000
    8.2438   -1.7671    0.3680 C   0  0  0  0  0  0  0  0  0  0  0  0
    6.9710   -2.2552   -0.3204 C   0  0  0  0  0  0  0  0  0  0  0  0
    5.7824   -2.4264    0.6473 C   0  0  2  0  0  0  0  0  0  0  0  0
    6.2943   -3.1869    1.7376 O   0  0  0  0  0  0  0  0  0  0  0  0
    5.4980   -3.4719    2.8946 C   0  0  1  0  0  0  0  0  0  0  0  0
    4.2339   -2.6219    3.0532 C   0  0  0  0  0  0  0  0  0  0  0  0
    3.1093   -3.3736    2.3348 C   0  0  1  0  0  0  0  0  0  0  0  0
    3.2120   -3.0001    0.8136 C   0  0  1  0  0  0  0  0  0  0  0  0
    2.7407   -1.6660    0.7705 O   0  0  0  0  0  0  0  0  0  0  0  0
    4.5510   -3.1188   -0.0305 C   0  0  1  0  0  0  0  0  0  0  0  0
    4.3624   -2.3701   -1.2485 O   0  0  0  0  0  0  0  0  0  0  0  0
    3.3551   -2.7563   -2.1898 C   0  0  0  0  0  0  0  0  0  0  0  0
    4.9110   -4.5552   -0.5058 C   0  0  0  0  0  0  0  0  0  0  0  0
    5.6327   -5.5243    0.4611 C   0  0  0  0  0  0  0  0  0  0  0  0
    4.9367   -5.8431    1.7989 C   0  0  2  0  0  0  0  0  0  0  0  0
    3.4214   -5.8166    1.7255 C   0  0  0  0  0  0  0  0  0  0  0  0
    2.7702   -6.4760    0.8839 N   0  0  0  0  0  0  0  0  0  0  0  0
    1.3780   -6.3214    0.9284 O   0  0  0  0  0  0  0  0  0  0  0  0
    0.9301   -5.8237   -0.2957 C   0  0  0  0  0  0  0  0  0  0  0  0
    2.9619   -4.8706    2.8425 C   0  0  2  0  0  0  0  0  0  0  0  0
    1.5340   -5.1093    3.4617 C   0  0  0  0  0  0  0  0  0  0  0  0
    1.0840   -6.4319    3.6871 O   0  0  0  0  0  0  0  0  0  0  0  0
    4.0327   -5.2700    3.7992 N   0  0  2  0  0  0  0  0  0  0  0  0
    4.0138   -4.9286    5.2500 C   0  0  0  0  0  0  0  0  0  0  0  0
    5.2887   -5.0106    3.0554 C   0  0  2  0  0  0  0  0  0  0  0  0
    9.0561   -1.6124   -0.3406 H   0  0  0  0  0  0  0  0  0  0  0  0
    8.5911   -2.5535    1.0369 H   0  0  0  0  0  0  0  0  0  0  0  0
    8.0837   -0.8358    0.9180 H   0  0  0  0  0  0  0  0  0  0  0  0
    6.6897   -1.5573   -1.1059 H   0  0  0  0  0  0  0  0  0  0  0  0
    7.2394   -3.1892   -0.8134 H   0  0  0  0  0  0  0  0  0  0  0  0
    5.5083   -1.4229    0.9584 H   0  0  0  0  0  0  0  0  0  0  0  0
    6.0756   -3.1544    3.7600 H   0  0  0  0  0  0  0  0  0  0  0  0
    3.9492   -2.4927    4.0895 H   0  0  0  0  0  0  0  0  0  0  0  0
    4.3502   -1.6021    2.7131 H   0  0  0  0  0  0  0  0  0  0  0  0
    2.2075   -2.8712    2.6817 H   0  0  0  0  0  0  0  0  0  0  0  0
    2.4540   -3.5671    0.2949 H   0  0  0  0  0  0  0  0  0  0  0  0
    2.1232   -1.5586    0.0490 H   0  0  0  0  0  0  0  0  0  0  0  0
    3.3329   -2.0064   -2.9796 H   0  0  0  0  0  0  0  0  0  0  0  0
    2.3522   -2.7780   -1.7700 H   0  0  0  0  0  0  0  0  0  0  0  0
    3.5555   -3.7110   -2.6744 H   0  0  0  0  0  0  0  0  0  0  0  0
    4.0071   -5.0390   -0.8759 H   0  0  0  0  0  0  0  0  0  0  0  0
    5.5281   -4.5042   -1.3940 H   0  0  0  0  0  0  0  0  0  0  0  0
    5.6995   -6.4806   -0.0539 H   0  0  0  0  0  0  0  0  0  0  0  0
    6.6732   -5.2422    0.6191 H   0  0  0  0  0  0  0  0  0  0  0  0
    5.2095   -6.8717    2.0387 H   0  0  0  0  0  0  0  0  0  0  0  0
   -0.1558   -5.8021   -0.3448 H   0  0  0  0  0  0  0  0  0  0  0  0
    1.3528   -6.3666   -1.1285 H   0  0  0  0  0  0  0  0  0  0  0  0
    1.3263   -4.8545   -0.5213 H   0  0  0  0  0  0  0  0  0  0  0  0
    1.4335   -4.5733    4.4101 H   0  0  0  0  0  0  0  0  0  0  0  0
    0.7893   -4.6418    2.8162 H   0  0  0  0  0  0  0  0  0  0  0  0
    1.7438   -6.9754    4.1087 H   0  0  0  0  0  0  0  0  0  0  0  0
    4.2820   -3.9136    5.5055 H   0  0  0  0  0  0  0  0  0  0  0  0
    4.7488   -5.5675    5.7371 H   0  0  0  0  0  0  0  0  0  0  0  0
    3.0636   -5.1769    5.7187 H   0  0  0  0  0  0  0  0  0  0  0  0
    6.1509   -5.4508    3.5517 H   0  0  0  0  0  0  0  0  0  0  0  0
    3.9699   -6.2601    3.8122 H   0  0  0  0  0  0  0  0  0  0  0  0
  1  2  1  0
  1 26  1  0
  1 27  1  0
  1 28  1  0
  2  3  1  0
  2 29  1  0
  2 30  1  0
  3 10  1  0
  3  4  1  0
  3 31  1  1
  4  5  1  0
  5 25  1  0
  5  6  1  0
  5 32  1  1
  6  7  1  0
  6 33  1  0
  6 34  1  0
  7 20  1  0
  7  8  1  0
  7 35  1  1
  8  9  1  0
  8 10  1  0
  8 36  1  6
  9 37  1  0
 10 11  1  6
 10 13  1  0
 11 12  1  0
 12 38  1  0
 12 39  1  0
 12 40  1  0
 13 14  1  0
 13 41  1  0
 13 42  1  0
 14 15  1  0
 14 43  1  0
 14 44  1  0
 15 25  1  0
 15 16  1  0
 15 45  1  1
 16 17  2  3
 16 20  1  0
 17 18  1  0
 18 19  1  0
 19 46  1  0
 19 47  1  0
 19 48  1  0
 20 21  1  1
 20 23  1  0
 21 22  1  0
 21 49  1  0
 21 50  1  0
 22 51  1  0
 23 24  1  0
 23 25  1  0
 23 56  1  1
 24 52  1  0
 24 53  1  0
 24 54  1  0
 25 55  1  1
M  CHG  1  23   1
M  END
>  <i_m_ct_stereo_status>  (392) 
1

>  <s_m_source_file>  (392) 
/var/tmp/pbs.5076255.sched01/tmpbrgkg_oh/138myny07gr.sdf

>  <i_m_source_file_index>  (392) 
35

>  <i_lp_mmshare_version>  (392) 
48012

>  <i_f3d_flags>  (392) 
0

>  <s_epik_input>  (392) 
W0NIM11PW0NAQF0xMltDQEhdKFtDSDJdW0NIM10pT1tDQEBIXTNbQ0BASF00W0NASF0oW0NIMl1bQ0gyXTIpL0MoPU4vT1tDSDNdKVtDQEBdKFtDSDJdW09IXSkoTjRbQ0gzXSlbQ0BASF0oW0NIMl0zKVtDQEhdMVtPSF0=

>  <s_epik_cmdline>  (392) 
J2VwaWtfcHl0aG9uJywgJy1waHQnLCAnMi4wJywgJy1waCcsICc3LjAnLCAnLXRuJywgJzgnLCAnLW1hJywgJzIwMCcsICctaW1hZScsICc8aW5maWxlLm1hZT4nLCAnLW9tYWUnLCAnPG91dGZpbGUubWFlPic=

>  <r_epik_Ionization_Penalty>  (392) 
0.0200917

>  <r_epik_Ionization_Penalty_Charging>  (392) 
0.0200836

>  <r_epik_Ionization_Penalty_Neutral>  (392) 
8.09681e-06

>  <r_epik_State_Penalty>  (392) 
0.0160774

>  <r_epik_Charging_Adjusted_Penalty>  (392) 
0.036161

>  <i_epik_Tot_Q>  (392) 
1

>  <i_epik_Tot_abs_Q>  (392) 
1

>  <s_epik_Chemistry_Notes>  (392) 
This compound has an imine and may undergo hydrolysis.

>  <s_lp_Force_Field>  (392) 
OPLS3e

>  <r_lp_Energy>  (392) 
72.2462

>  <b_lp_Chiralities_Consistent>  (392) 
1

>  <s_lp_Variant>  (392) 
116:0-1

>  <s_i_glide_gridfile>  (392) 
pfpi4k_grid

>  <i_i_glide_lignum>  (392) 
35

>  <i_i_glide_rotatable_bonds>  (392) 
6

>  <r_i_docking_score>  (392) 
-2.40281

>  <r_i_glide_ligand_efficiency>  (392) 
-0.0961126

>  <r_i_glide_ligand_efficiency_sa>  (392) 
-0.281035

>  <r_i_glide_ligand_efficiency_ln>  (392) 
-0.569539

>  <r_i_glide_gscore>  (392) 
-2.40281

>  <r_i_glide_lipo>  (392) 
-0.28282

>  <r_i_glide_hbond>  (392) 
0

>  <r_i_glide_metal>  (392) 
-0

>  <r_i_glide_rewards>  (392) 
-1.01389

>  <r_i_glide_evdw>  (392) 
-9.93024

>  <r_i_glide_ecoul>  (392) 
-5.54193

>  <r_i_glide_erotb>  (392) 
0.302677

>  <r_i_glide_esite>  (392) 
-0.0809753

>  <r_i_glide_emodel>  (392) 
-11.7357

>  <r_i_glide_energy>  (392) 
-15.4722

>  <r_i_glide_einternal>  (392) 
8.35067

>  <r_i_glide_intrahb_reward>  (392) 
-0

>  <i_i_glide_confnum>  (392) 
6

>  <i_i_glide_posenum>  (392) 
16

>  <r_i_glide_eff_state_penalty>  (392) 
0

>  <ligand_id>  (392) 
116

>  <original_smiles>  (392) 
CCC1OC2CC3C(O)C1(OC)CCC1C(=NOC)C3(CO)N(C)C21

>  <smiles>  (392) 
[H]OC([H])([H])C12C(=NOC([H])([H])[H])C3([H])C([H])([H])C([H])([H])C4(OC([H])([H])[H])C([H])(C([H])([H])C([H])([H])[H])OC([H])(C([H])([H])C1([H])C4([H])O[H])C3([H])[N+]2([H])C([H])([H])[H]

$$$$
116:2:0
     RDKit          3D

 55 58  0  0  1  0  0  0  0  0999 V2000
    4.5411   -0.9684    4.4501 C   0  0  0  0  0  0  0  0  0  0  0  0
    4.0626   -2.4037    4.1258 C   0  0  0  0  0  0  0  0  0  0  0  0
    4.4052   -3.0376    2.7344 C   0  0  2  0  0  0  0  0  0  0  0  0
    5.7694   -2.6935    2.4800 O   0  0  0  0  0  0  0  0  0  0  0  0
    6.4397   -3.1672    1.3133 C   0  0  1  0  0  0  0  0  0  0  0  0
    5.7924   -4.3676    0.5937 C   0  0  0  0  0  0  0  0  0  0  0  0
    4.8652   -3.8595   -0.5064 C   0  0  1  0  0  0  0  0  0  0  0  0
    3.4750   -3.5271    0.1609 C   0  0  1  0  0  0  0  0  0  0  0  0
    2.8838   -4.8046    0.2480 O   0  0  0  0  0  0  0  0  0  0  0  0
    3.3840   -2.7369    1.5706 C   0  0  1  0  0  0  0  0  0  0  0  0
    2.0508   -2.9643    2.1064 O   0  0  0  0  0  0  0  0  0  0  0  0
    1.6736   -4.1366    2.8537 C   0  0  0  0  0  0  0  0  0  0  0  0
    3.3754   -1.1954    1.2768 C   0  0  0  0  0  0  0  0  0  0  0  0
    4.7399   -0.4370    1.1431 C   0  0  0  0  0  0  0  0  0  0  0  0
    5.7068   -0.9068    0.0346 C   0  0  2  0  0  0  0  0  0  0  0  0
    5.0317   -1.4285   -1.2256 C   0  0  0  0  0  0  0  0  0  0  0  0
    4.2032   -0.7075   -1.8759 N   0  0  0  0  0  0  0  0  0  0  0  0
    3.6190   -1.4033   -2.9267 O   0  0  0  0  0  0  0  0  0  0  0  0
    3.0290   -0.4316   -3.7558 C   0  0  0  0  0  0  0  0  0  0  0  0
    5.6137   -2.8180   -1.4639 C   0  0  2  0  0  0  0  0  0  0  0  0
    5.6768   -3.3482   -2.9180 C   0  0  0  0  0  0  0  0  0  0  0  0
    4.4967   -3.7052   -3.6099 O   0  0  0  0  0  0  0  0  0  0  0  0
    6.9794   -2.4492   -0.9958 N   0  0  0  0  0  0  0  0  0  0  0  0
    8.1587   -3.2775   -1.2446 C   0  0  0  0  0  0  0  0  0  0  0  0
    6.7876   -1.9702    0.3571 C   0  0  2  0  0  0  0  0  0  0  0  0
    4.3358   -0.7495    5.5025 H   0  0  0  0  0  0  0  0  0  0  0  0
    4.0226   -0.2303    3.8248 H   0  0  0  0  0  0  0  0  0  0  0  0
    5.6144   -0.8451    4.3366 H   0  0  0  0  0  0  0  0  0  0  0  0
    4.4824   -3.0718    4.8784 H   0  0  0  0  0  0  0  0  0  0  0  0
    2.9864   -2.4262    4.2936 H   0  0  0  0  0  0  0  0  0  0  0  0
    4.3891   -4.1087    2.9002 H   0  0  0  0  0  0  0  0  0  0  0  0
    7.4088   -3.5522    1.6514 H   0  0  0  0  0  0  0  0  0  0  0  0
    6.5578   -4.9834    0.1392 H   0  0  0  0  0  0  0  0  0  0  0  0
    5.3206   -5.0818    1.2609 H   0  0  0  0  0  0  0  0  0  0  0  0
    4.7198   -4.7305   -1.1544 H   0  0  0  0  0  0  0  0  0  0  0  0
    2.8520   -3.0032   -0.5713 H   0  0  0  0  0  0  0  0  0  0  0  0
    2.9569   -5.2146   -0.6289 H   0  0  0  0  0  0  0  0  0  0  0  0
    0.6360   -3.9880    3.1754 H   0  0  0  0  0  0  0  0  0  0  0  0
    2.2819   -4.2618    3.7606 H   0  0  0  0  0  0  0  0  0  0  0  0
    1.6467   -5.0505    2.2481 H   0  0  0  0  0  0  0  0  0  0  0  0
    2.7831   -1.0202    0.3669 H   0  0  0  0  0  0  0  0  0  0  0  0
    2.8083   -0.6914    2.0700 H   0  0  0  0  0  0  0  0  0  0  0  0
    4.4996    0.6059    0.9095 H   0  0  0  0  0  0  0  0  0  0  0  0
    5.3199   -0.3927    2.0685 H   0  0  0  0  0  0  0  0  0  0  0  0
    6.2737   -0.0166   -0.2386 H   0  0  0  0  0  0  0  0  0  0  0  0
    2.5738   -0.9455   -4.5897 H   0  0  0  0  0  0  0  0  0  0  0  0
    3.7449    0.2691   -4.1594 H   0  0  0  0  0  0  0  0  0  0  0  0
    2.2329    0.1080   -3.2739 H   0  0  0  0  0  0  0  0  0  0  0  0
    6.1685   -2.6012   -3.5248 H   0  0  0  0  0  0  0  0  0  0  0  0
    6.3037   -4.2253   -2.8956 H   0  0  0  0  0  0  0  0  0  0  0  0
    3.9532   -4.2666   -3.0508 H   0  0  0  0  0  0  0  0  0  0  0  0
    9.0373   -2.7517   -0.8785 H   0  0  0  0  0  0  0  0  0  0  0  0
    8.3104   -3.4253   -2.3104 H   0  0  0  0  0  0  0  0  0  0  0  0
    8.1496   -4.2407   -0.7547 H   0  0  0  0  0  0  0  0  0  0  0  0
    7.6779   -1.4808    0.7433 H   0  0  0  0  0  0  0  0  0  0  0  0
  1  2  1  0
  1 26  1  0
  1 27  1  0
  1 28  1  0
  2  3  1  0
  2 29  1  0
  2 30  1  0
  3 10  1  0
  3  4  1  0
  3 31  1  1
  4  5  1  0
  5 25  1  0
  5  6  1  0
  5 32  1  1
  6  7  1  0
  6 33  1  0
  6 34  1  0
  7 20  1  0
  7  8  1  0
  7 35  1  6
  8  9  1  0
  8 10  1  0
  8 36  1  6
  9 37  1  0
 10 11  1  1
 10 13  1  0
 11 12  1  0
 12 38  1  0
 12 39  1  0
 12 40  1  0
 13 14  1  0
 13 41  1  0
 13 42  1  0
 14 15  1  0
 14 43  1  0
 14 44  1  0
 15 25  1  0
 15 16  1  0
 15 45  1  6
 16 17  2  3
 16 20  1  0
 17 18  1  0
 18 19  1  0
 19 46  1  0
 19 47  1  0
 19 48  1  0
 20 21  1  6
 20 23  1  0
 21 22  1  0
 21 49  1  0
 21 50  1  0
 22 51  1  0
 23 24  1  0
 23 25  1  0
 24 52  1  0
 24 53  1  0
 24 54  1  0
 25 55  1  1
M  END
>  <i_m_ct_stereo_status>  (393) 
1

>  <s_m_source_file>  (393) 
/var/tmp/pbs.5076255.sched01/tmpbrgkg_oh/138myny07gr.sdf

>  <i_m_source_file_index>  (393) 
37

>  <i_lp_mmshare_version>  (393) 
48012

>  <i_f3d_flags>  (393) 
0

>  <s_epik_input>  (393) 
W0NIM11PW0NAQF0xMltDQEhdKFtDSDJdW0NIM10pT1tDQEBIXTNbQ0BASF00W0NASF0oW0NIMl1bQ0gyXTIpL0MoPU4vT1tDSDNdKVtDQEBdKFtDSDJdW09IXSkoTjRbQ0gzXSlbQ0BASF0oW0NIMl0zKVtDQEhdMVtPSF0=

>  <s_epik_cmdline>  (393) 
J2VwaWtfcHl0aG9uJywgJy1waHQnLCAnMi4wJywgJy1waCcsICc3LjAnLCAnLXRuJywgJzgnLCAnLW1hJywgJzIwMCcsICctaW1hZScsICc8aW5maWxlLm1hZT4nLCAnLW9tYWUnLCAnPG91dGZpbGUubWFlPic=

>  <r_epik_Ionization_Penalty>  (393) 
2.01524

>  <r_epik_Ionization_Penalty_Charging>  (393) 
0

>  <r_epik_Ionization_Penalty_Neutral>  (393) 
2.01524

>  <r_epik_State_Penalty>  (393) 
2.14507

>  <r_epik_Charging_Adjusted_Penalty>  (393) 
2.14507

>  <i_epik_Tot_Q>  (393) 
0

>  <i_epik_Tot_abs_Q>  (393) 
0

>  <s_epik_Chemistry_Notes>  (393) 
This compound has an imine and may undergo hydrolysis.

>  <s_lp_Force_Field>  (393) 
OPLS3e

>  <r_lp_Energy>  (393) 
72.4831

>  <b_lp_Chiralities_Consistent>  (393) 
1

>  <s_lp_Variant>  (393) 
116:0-3

>  <s_i_glide_gridfile>  (393) 
pfpi4k_grid

>  <i_i_glide_lignum>  (393) 
37

>  <i_i_glide_rotatable_bonds>  (393) 
6

>  <r_i_docking_score>  (393) 
-4.1663

>  <r_i_glide_ligand_efficiency>  (393) 
-0.166652

>  <r_i_glide_ligand_efficiency_sa>  (393) 
-0.487294

>  <r_i_glide_ligand_efficiency_ln>  (393) 
-0.987538

>  <r_i_glide_gscore>  (393) 
-4.1663

>  <r_i_glide_lipo>  (393) 
-0.897637

>  <r_i_glide_hbond>  (393) 
-0.128535

>  <r_i_glide_metal>  (393) 
-0

>  <r_i_glide_rewards>  (393) 
-0.992446

>  <r_i_glide_evdw>  (393) 
-25.0561

>  <r_i_glide_ecoul>  (393) 
-7.47325

>  <r_i_glide_erotb>  (393) 
0.30421

>  <r_i_glide_esite>  (393) 
-0.0781011

>  <r_i_glide_emodel>  (393) 
-33.1016

>  <r_i_glide_energy>  (393) 
-32.5293

>  <r_i_glide_einternal>  (393) 
13.2097

>  <r_i_glide_intrahb_reward>  (393) 
-0

>  <i_i_glide_confnum>  (393) 
4

>  <i_i_glide_posenum>  (393) 
34

>  <r_i_glide_eff_state_penalty>  (393) 
0

>  <ligand_id>  (393) 
116

>  <original_smiles>  (393) 
CCC1OC2CC3C(O)C1(OC)CCC1C(=NOC)C3(CO)N(C)C21

>  <smiles>  (393) 
[H]OC([H])([H])C12C(=NOC([H])([H])[H])C3([H])C([H])([H])C([H])([H])C4(OC([H])([H])[H])C([H])(C([H])([H])C([H])([H])[H])OC([H])(C([H])([H])C1([H])C4([H])O[H])C3([H])N2C([H])([H])[H]

$$$$
116:2:1
     RDKit          3D

 55 58  0  0  1  0  0  0  0  0999 V2000
    4.8206   -0.7101    4.4317 C   0  0  0  0  0  0  0  0  0  0  0  0
    4.3250   -2.1673    4.2462 C   0  0  0  0  0  0  0  0  0  0  0  0
    4.5298   -2.8342    2.8516 C   0  0  2  0  0  0  0  0  0  0  0  0
    5.8921   -2.5654    2.5261 O   0  0  0  0  0  0  0  0  0  0  0  0
    6.5024   -3.1093    1.3562 C   0  0  1  0  0  0  0  0  0  0  0  0
    5.7892   -4.3282    0.7494 C   0  0  0  0  0  0  0  0  0  0  0  0
    4.8050   -3.8291   -0.2985 C   0  0  1  0  0  0  0  0  0  0  0  0
    3.4756   -3.3666    0.4280 C   0  0  1  0  0  0  0  0  0  0  0  0
    2.8565   -4.6022    0.7780 O   0  0  0  0  0  0  0  0  0  0  0  0
    3.5169   -2.4294    1.7318 C   0  0  1  0  0  0  0  0  0  0  0  0
    2.2830   -2.6344    2.4531 O   0  0  0  0  0  0  0  0  0  0  0  0
    1.1338   -1.8665    2.1462 C   0  0  0  0  0  0  0  0  0  0  0  0
    3.6291   -0.9167    1.3741 C   0  0  0  0  0  0  0  0  0  0  0  0
    5.0115   -0.2920    1.1189 C   0  0  0  0  0  0  0  0  0  0  0  0
    5.8483   -0.8796    0.0004 C   0  0  2  0  0  0  0  0  0  0  0  0
    5.0662   -1.4165   -1.1826 C   0  0  0  0  0  0  0  0  0  0  0  0
    4.2149   -0.7076   -1.8242 N   0  0  0  0  0  0  0  0  0  0  0  0
    3.4782   -1.4295   -2.7186 O   0  0  0  0  0  0  0  0  0  0  0  0
    2.9607   -0.5159   -3.6638 C   0  0  0  0  0  0  0  0  0  0  0  0
    5.5298   -2.8623   -1.3614 C   0  0  2  0  0  0  0  0  0  0  0  0
    5.4697   -3.4531   -2.8134 C   0  0  0  0  0  0  0  0  0  0  0  0
    4.2366   -3.6348   -3.4633 O   0  0  0  0  0  0  0  0  0  0  0  0
    6.9395   -2.5426   -1.0019 N   0  0  0  0  0  0  0  0  0  0  0  0
    8.0793   -3.4207   -1.2686 C   0  0  0  0  0  0  0  0  0  0  0  0
    6.8646   -1.9900    0.3189 C   0  0  2  0  0  0  0  0  0  0  0  0
    4.7168   -0.3827    5.4741 H   0  0  0  0  0  0  0  0  0  0  0  0
    4.2839    0.0057    3.8074 H   0  0  0  0  0  0  0  0  0  0  0  0
    5.8951   -0.6279    4.2159 H   0  0  0  0  0  0  0  0  0  0  0  0
    4.8640   -2.7749    4.9698 H   0  0  0  0  0  0  0  0  0  0  0  0
    3.2898   -2.2223    4.5627 H   0  0  0  0  0  0  0  0  0  0  0  0
    4.4071   -3.9018    3.0441 H   0  0  0  0  0  0  0  0  0  0  0  0
    7.4686   -3.5025    1.6750 H   0  0  0  0  0  0  0  0  0  0  0  0
    6.5056   -4.9898    0.2823 H   0  0  0  0  0  0  0  0  0  0  0  0
    5.3572   -4.9817    1.5007 H   0  0  0  0  0  0  0  0  0  0  0  0
    4.5466   -4.7207   -0.8657 H   0  0  0  0  0  0  0  0  0  0  0  0
    2.8058   -2.9176   -0.3112 H   0  0  0  0  0  0  0  0  0  0  0  0
    2.8427   -5.1497    0.0136 H   0  0  0  0  0  0  0  0  0  0  0  0
    0.2734   -2.2730    2.6885 H   0  0  0  0  0  0  0  0  0  0  0  0
    1.0114   -1.9650    1.0767 H   0  0  0  0  0  0  0  0  0  0  0  0
    1.1912   -0.8116    2.4125 H   0  0  0  0  0  0  0  0  0  0  0  0
    2.9824   -0.7142    0.5148 H   0  0  0  0  0  0  0  0  0  0  0  0
    3.2586   -0.3100    2.1934 H   0  0  0  0  0  0  0  0  0  0  0  0
    4.7924    0.7429    0.8427 H   0  0  0  0  0  0  0  0  0  0  0  0
    5.6279   -0.2320    2.0182 H   0  0  0  0  0  0  0  0  0  0  0  0
    6.4416   -0.0367   -0.3221 H   0  0  0  0  0  0  0  0  0  0  0  0
    2.4194   -1.0921   -4.4145 H   0  0  0  0  0  0  0  0  0  0  0  0
    3.7528    0.0429   -4.1826 H   0  0  0  0  0  0  0  0  0  0  0  0
    2.2505    0.2116   -3.2565 H   0  0  0  0  0  0  0  0  0  0  0  0
    6.1402   -2.8979   -3.4848 H   0  0  0  0  0  0  0  0  0  0  0  0
    5.8442   -4.4636   -2.7302 H   0  0  0  0  0  0  0  0  0  0  0  0
    3.6570   -4.1425   -2.8893 H   0  0  0  0  0  0  0  0  0  0  0  0
    9.0038   -2.8869   -1.0439 H   0  0  0  0  0  0  0  0  0  0  0  0
    8.1261   -3.6771   -2.3209 H   0  0  0  0  0  0  0  0  0  0  0  0
    8.0985   -4.3318   -0.6828 H   0  0  0  0  0  0  0  0  0  0  0  0
    7.8086   -1.5320    0.6195 H   0  0  0  0  0  0  0  0  0  0  0  0
  1  2  1  0
  1 26  1  0
  1 27  1  0
  1 28  1  0
  2  3  1  0
  2 29  1  0
  2 30  1  0
  3 10  1  0
  3  4  1  0
  3 31  1  1
  4  5  1  0
  5 25  1  0
  5  6  1  0
  5 32  1  1
  6  7  1  0
  6 33  1  0
  6 34  1  0
  7 20  1  0
  7  8  1  0
  7 35  1  6
  8  9  1  0
  8 10  1  0
  8 36  1  6
  9 37  1  0
 10 11  1  1
 10 13  1  0
 11 12  1  0
 12 38  1  0
 12 39  1  0
 12 40  1  0
 13 14  1  0
 13 41  1  0
 13 42  1  0
 14 15  1  0
 14 43  1  0
 14 44  1  0
 15 25  1  0
 15 16  1  0
 15 45  1  6
 16 17  2  3
 16 20  1  0
 17 18  1  0
 18 19  1  0
 19 46  1  0
 19 47  1  0
 19 48  1  0
 20 21  1  6
 20 23  1  0
 21 22  1  0
 21 49  1  0
 21 50  1  0
 22 51  1  0
 23 24  1  0
 23 25  1  0
 24 52  1  0
 24 53  1  0
 24 54  1  0
 25 55  1  1
M  END
>  <i_m_ct_stereo_status>  (394) 
1

>  <s_m_source_file>  (394) 
/var/tmp/pbs.5076255.sched01/tmpbrgkg_oh/138myny07gr.sdf

>  <i_m_source_file_index>  (394) 
37

>  <i_lp_mmshare_version>  (394) 
48012

>  <i_f3d_flags>  (394) 
0

>  <s_epik_input>  (394) 
W0NIM11PW0NAQF0xMltDQEhdKFtDSDJdW0NIM10pT1tDQEBIXTNbQ0BASF00W0NASF0oW0NIMl1bQ0gyXTIpL0MoPU4vT1tDSDNdKVtDQEBdKFtDSDJdW09IXSkoTjRbQ0gzXSlbQ0BASF0oW0NIMl0zKVtDQEhdMVtPSF0=

>  <s_epik_cmdline>  (394) 
J2VwaWtfcHl0aG9uJywgJy1waHQnLCAnMi4wJywgJy1waCcsICc3LjAnLCAnLXRuJywgJzgnLCAnLW1hJywgJzIwMCcsICctaW1hZScsICc8aW5maWxlLm1hZT4nLCAnLW9tYWUnLCAnPG91dGZpbGUubWFlPic=

>  <r_epik_Ionization_Penalty>  (394) 
2.01524

>  <r_epik_Ionization_Penalty_Charging>  (394) 
0

>  <r_epik_Ionization_Penalty_Neutral>  (394) 
2.01524

>  <r_epik_State_Penalty>  (394) 
2.14507

>  <r_epik_Charging_Adjusted_Penalty>  (394) 
2.14507

>  <i_epik_Tot_Q>  (394) 
0

>  <i_epik_Tot_abs_Q>  (394) 
0

>  <s_epik_Chemistry_Notes>  (394) 
This compound has an imine and may undergo hydrolysis.

>  <s_lp_Force_Field>  (394) 
OPLS3e

>  <r_lp_Energy>  (394) 
72.4831

>  <b_lp_Chiralities_Consistent>  (394) 
1

>  <s_lp_Variant>  (394) 
116:0-3

>  <s_i_glide_gridfile>  (394) 
pfpi4k_grid

>  <i_i_glide_lignum>  (394) 
37

>  <i_i_glide_rotatable_bonds>  (394) 
6

>  <r_i_docking_score>  (394) 
-3.82237

>  <r_i_glide_ligand_efficiency>  (394) 
-0.152895

>  <r_i_glide_ligand_efficiency_sa>  (394) 
-0.447067

>  <r_i_glide_ligand_efficiency_ln>  (394) 
-0.906016

>  <r_i_glide_gscore>  (394) 
-3.82237

>  <r_i_glide_lipo>  (394) 
-0.887172

>  <r_i_glide_hbond>  (394) 
-0.0907889

>  <r_i_glide_metal>  (394) 
-0

>  <r_i_glide_rewards>  (394) 
-0.992446

>  <r_i_glide_evdw>  (394) 
-20.7329

>  <r_i_glide_ecoul>  (394) 
-6.72772

>  <r_i_glide_erotb>  (394) 
0.30421

>  <r_i_glide_esite>  (394) 
-0.110371

>  <r_i_glide_emodel>  (394) 
-29.0358

>  <r_i_glide_energy>  (394) 
-27.4606

>  <r_i_glide_einternal>  (394) 
7.14429

>  <r_i_glide_intrahb_reward>  (394) 
-0

>  <i_i_glide_confnum>  (394) 
4

>  <i_i_glide_posenum>  (394) 
2

>  <r_i_glide_eff_state_penalty>  (394) 
0

>  <ligand_id>  (394) 
116

>  <original_smiles>  (394) 
CCC1OC2CC3C(O)C1(OC)CCC1C(=NOC)C3(CO)N(C)C21

>  <smiles>  (394) 
[H]OC([H])([H])C12C(=NOC([H])([H])[H])C3([H])C([H])([H])C([H])([H])C4(OC([H])([H])[H])C([H])(C([H])([H])C([H])([H])[H])OC([H])(C([H])([H])C1([H])C4([H])O[H])C3([H])N2C([H])([H])[H]

$$$$
116:2:2
     RDKit          3D

 55 58  0  0  1  0  0  0  0  0999 V2000
    7.5122   -3.3566   -0.7655 C   0  0  0  0  0  0  0  0  0  0  0  0
    7.0484   -2.4673    0.4122 C   0  0  0  0  0  0  0  0  0  0  0  0
    6.1195   -3.1213    1.4901 C   0  0  2  0  0  0  0  0  0  0  0  0
    6.7148   -4.3976    1.7576 O   0  0  0  0  0  0  0  0  0  0  0  0
    6.1732   -5.2596    2.7600 C   0  0  1  0  0  0  0  0  0  0  0  0
    5.3249   -4.5600    3.8372 C   0  0  0  0  0  0  0  0  0  0  0  0
    3.8556   -4.6121    3.4172 C   0  0  1  0  0  0  0  0  0  0  0  0
    3.5828   -3.4421    2.4050 C   0  0  1  0  0  0  0  0  0  0  0  0
    3.5290   -2.2945    3.2399 O   0  0  0  0  0  0  0  0  0  0  0  0
    4.5795   -3.1489    1.1843 C   0  0  1  0  0  0  0  0  0  0  0  0
    4.3522   -1.7787    0.8195 O   0  0  0  0  0  0  0  0  0  0  0  0
    3.1065   -1.3932    0.2507 C   0  0  0  0  0  0  0  0  0  0  0  0
    4.2906   -4.0065   -0.0813 C   0  0  0  0  0  0  0  0  0  0  0  0
    4.9245   -5.4220   -0.1718 C   0  0  0  0  0  0  0  0  0  0  0  0
    4.5463   -6.4140    0.9424 C   0  0  2  0  0  0  0  0  0  0  0  0
    3.1513   -6.2130    1.5366 C   0  0  0  0  0  0  0  0  0  0  0  0
    2.1140   -6.1412    0.8240 N   0  0  0  0  0  0  0  0  0  0  0  0
    0.9389   -5.8899    1.5392 O   0  0  0  0  0  0  0  0  0  0  0  0
   -0.0153   -6.8652    1.1317 C   0  0  0  0  0  0  0  0  0  0  0  0
    3.3985   -6.1009    3.0620 C   0  0  2  0  0  0  0  0  0  0  0  0
    2.2504   -6.5983    3.9880 C   0  0  0  0  0  0  0  0  0  0  0  0
    1.0876   -5.7829    4.0271 O   0  0  0  0  0  0  0  0  0  0  0  0
    4.5103   -7.0758    3.0811 N   0  0  0  0  0  0  0  0  0  0  0  0
    5.0083   -7.7057    4.3124 C   0  0  0  0  0  0  0  0  0  0  0  0
    5.4870   -6.5460    2.1564 C   0  0  2  0  0  0  0  0  0  0  0  0
    8.2717   -2.8472   -1.3808 H   0  0  0  0  0  0  0  0  0  0  0  0
    6.6699   -3.6757   -1.4009 H   0  0  0  0  0  0  0  0  0  0  0  0
    8.0171   -4.2469   -0.3985 H   0  0  0  0  0  0  0  0  0  0  0  0
    7.9534   -2.1472    0.9165 H   0  0  0  0  0  0  0  0  0  0  0  0
    6.6200   -1.5466    0.0251 H   0  0  0  0  0  0  0  0  0  0  0  0
    6.2331   -2.4813    2.3668 H   0  0  0  0  0  0  0  0  0  0  0  0
    7.0596   -5.6243    3.2852 H   0  0  0  0  0  0  0  0  0  0  0  0
    5.4216   -5.0726    4.7819 H   0  0  0  0  0  0  0  0  0  0  0  0
    5.6781   -3.5673    4.0889 H   0  0  0  0  0  0  0  0  0  0  0  0
    3.3014   -4.3561    4.3230 H   0  0  0  0  0  0  0  0  0  0  0  0
    2.5666   -3.5530    2.0134 H   0  0  0  0  0  0  0  0  0  0  0  0
    4.4093   -2.1023    3.5269 H   0  0  0  0  0  0  0  0  0  0  0  0
    3.1223   -0.3161    0.1076 H   0  0  0  0  0  0  0  0  0  0  0  0
    2.2538   -1.6241    0.8891 H   0  0  0  0  0  0  0  0  0  0  0  0
    2.9597   -1.8413   -0.7310 H   0  0  0  0  0  0  0  0  0  0  0  0
    3.2066   -4.0712   -0.2039 H   0  0  0  0  0  0  0  0  0  0  0  0
    4.6437   -3.4547   -0.9534 H   0  0  0  0  0  0  0  0  0  0  0  0
    4.6179   -5.8601   -1.1166 H   0  0  0  0  0  0  0  0  0  0  0  0
    6.0128   -5.3921   -0.2610 H   0  0  0  0  0  0  0  0  0  0  0  0
    4.5370   -7.4007    0.4760 H   0  0  0  0  0  0  0  0  0  0  0  0
   -0.9122   -6.6898    1.7220 H   0  0  0  0  0  0  0  0  0  0  0  0
    0.3286   -7.8691    1.3683 H   0  0  0  0  0  0  0  0  0  0  0  0
   -0.3095   -6.8461    0.0776 H   0  0  0  0  0  0  0  0  0  0  0  0
    1.9501   -7.6145    3.7179 H   0  0  0  0  0  0  0  0  0  0  0  0
    2.6474   -6.6478    5.0002 H   0  0  0  0  0  0  0  0  0  0  0  0
    1.3525   -4.8808    4.2097 H   0  0  0  0  0  0  0  0  0  0  0  0
    5.7600   -8.4504    4.0498 H   0  0  0  0  0  0  0  0  0  0  0  0
    4.2089   -8.2497    4.8153 H   0  0  0  0  0  0  0  0  0  0  0  0
    5.4717   -7.0319    5.0265 H   0  0  0  0  0  0  0  0  0  0  0  0
    6.2589   -7.2785    1.9389 H   0  0  0  0  0  0  0  0  0  0  0  0
  1  2  1  0
  1 26  1  0
  1 27  1  0
  1 28  1  0
  2  3  1  0
  2 29  1  0
  2 30  1  0
  3 10  1  0
  3  4  1  0
  3 31  1  1
  4  5  1  0
  5 25  1  0
  5  6  1  0
  5 32  1  1
  6  7  1  0
  6 33  1  0
  6 34  1  0
  7 20  1  0
  7  8  1  0
  7 35  1  1
  8  9  1  0
  8 10  1  0
  8 36  1  6
  9 37  1  0
 10 11  1  6
 10 13  1  0
 11 12  1  0
 12 38  1  0
 12 39  1  0
 12 40  1  0
 13 14  1  0
 13 41  1  0
 13 42  1  0
 14 15  1  0
 14 43  1  0
 14 44  1  0
 15 25  1  0
 15 16  1  0
 15 45  1  6
 16 17  2  3
 16 20  1  0
 17 18  1  0
 18 19  1  0
 19 46  1  0
 19 47  1  0
 19 48  1  0
 20 21  1  1
 20 23  1  0
 21 22  1  0
 21 49  1  0
 21 50  1  0
 22 51  1  0
 23 24  1  0
 23 25  1  0
 24 52  1  0
 24 53  1  0
 24 54  1  0
 25 55  1  6
M  END
>  <i_m_ct_stereo_status>  (395) 
1

>  <s_m_source_file>  (395) 
/var/tmp/pbs.5076255.sched01/tmpbrgkg_oh/138myny07gr.sdf

>  <i_m_source_file_index>  (395) 
37

>  <i_lp_mmshare_version>  (395) 
48012

>  <i_f3d_flags>  (395) 
0

>  <s_epik_input>  (395) 
W0NIM11PW0NAQF0xMltDQEhdKFtDSDJdW0NIM10pT1tDQEBIXTNbQ0BASF00W0NASF0oW0NIMl1bQ0gyXTIpL0MoPU4vT1tDSDNdKVtDQEBdKFtDSDJdW09IXSkoTjRbQ0gzXSlbQ0BASF0oW0NIMl0zKVtDQEhdMVtPSF0=

>  <s_epik_cmdline>  (395) 
J2VwaWtfcHl0aG9uJywgJy1waHQnLCAnMi4wJywgJy1waCcsICc3LjAnLCAnLXRuJywgJzgnLCAnLW1hJywgJzIwMCcsICctaW1hZScsICc8aW5maWxlLm1hZT4nLCAnLW9tYWUnLCAnPG91dGZpbGUubWFlPic=

>  <r_epik_Ionization_Penalty>  (395) 
2.01524

>  <r_epik_Ionization_Penalty_Charging>  (395) 
0

>  <r_epik_Ionization_Penalty_Neutral>  (395) 
2.01524

>  <r_epik_State_Penalty>  (395) 
2.14507

>  <r_epik_Charging_Adjusted_Penalty>  (395) 
2.14507

>  <i_epik_Tot_Q>  (395) 
0

>  <i_epik_Tot_abs_Q>  (395) 
0

>  <s_epik_Chemistry_Notes>  (395) 
This compound has an imine and may undergo hydrolysis.

>  <s_lp_Force_Field>  (395) 
OPLS3e

>  <r_lp_Energy>  (395) 
72.4831

>  <b_lp_Chiralities_Consistent>  (395) 
1

>  <s_lp_Variant>  (395) 
116:0-3

>  <s_i_glide_gridfile>  (395) 
pfpi4k_grid

>  <i_i_glide_lignum>  (395) 
37

>  <i_i_glide_rotatable_bonds>  (395) 
6

>  <r_i_docking_score>  (395) 
-2.73876

>  <r_i_glide_ligand_efficiency>  (395) 
-0.109551

>  <r_i_glide_ligand_efficiency_sa>  (395) 
-0.320328

>  <r_i_glide_ligand_efficiency_ln>  (395) 
-0.649169

>  <r_i_glide_gscore>  (395) 
-2.73876

>  <r_i_glide_lipo>  (395) 
-0.563956

>  <r_i_glide_hbond>  (395) 
0

>  <r_i_glide_metal>  (395) 
-0

>  <r_i_glide_rewards>  (395) 
-1.04634

>  <r_i_glide_evdw>  (395) 
-17.9902

>  <r_i_glide_ecoul>  (395) 
-2.66048

>  <r_i_glide_erotb>  (395) 
0.30421

>  <r_i_glide_esite>  (395) 
-0.134095

>  <r_i_glide_emodel>  (395) 
-22.7394

>  <r_i_glide_energy>  (395) 
-20.6506

>  <r_i_glide_einternal>  (395) 
4.69998

>  <r_i_glide_intrahb_reward>  (395) 
-0

>  <i_i_glide_confnum>  (395) 
1

>  <i_i_glide_posenum>  (395) 
22

>  <r_i_glide_eff_state_penalty>  (395) 
0

>  <ligand_id>  (395) 
116

>  <original_smiles>  (395) 
CCC1OC2CC3C(O)C1(OC)CCC1C(=NOC)C3(CO)N(C)C21

>  <smiles>  (395) 
[H]OC([H])([H])C12C(=NOC([H])([H])[H])C3([H])C([H])([H])C([H])([H])C4(OC([H])([H])[H])C([H])(C([H])([H])C([H])([H])[H])OC([H])(C([H])([H])C1([H])C4([H])O[H])C3([H])N2C([H])([H])[H]

$$$$
117:0:0
     RDKit          3D

 29 32  0  0  1  0  0  0  0  0999 V2000
   -2.4798    4.5594    3.1384 O   0  0  0  0  0  0  0  0  0  0  0  0
   -1.6105    3.6958    3.2427 N   0  0  0  0  0  0  0  0  0  0  0  0
   -1.8437    2.5213    3.0220 O   0  0  0  0  0  0  0  0  0  0  0  0
   -0.2945    4.1483    3.6958 C   0  0  0  0  0  0  0  0  0  0  0  0
   -0.0978    5.3898    4.1100 N   0  0  0  0  0  0  0  0  0  0  0  0
    1.2394    5.4576    4.4372 N   0  0  0  0  0  0  0  0  0  0  0  0
    1.8269    4.3141    4.2435 N   0  0  0  0  0  0  0  0  0  0  0  0
    0.8647    3.4651    3.7962 N   0  0  0  0  0  0  0  0  0  0  0  0
    1.0859    2.1228    3.4342 C   0  0  0  0  0  0  0  0  0  0  0  0
    0.3685    1.0567    4.0203 C   0  0  0  0  0  0  0  0  0  0  0  0
    0.6382   -0.2683    3.6283 C   0  0  0  0  0  0  0  0  0  0  0  0
    1.6696   -0.5338    2.7019 C   0  0  0  0  0  0  0  0  0  0  0  0
    2.2446   -2.0756    2.0829 S   0  0  0  0  0  0  0  0  0  0  0  0
    3.4412   -1.1977    1.1038 C   0  0  0  0  0  0  0  0  0  0  0  0
    4.3476   -1.9203    0.2207 C   0  0  0  0  0  0  0  0  0  0  0  0
    5.3932   -1.2346   -0.4374 C   0  0  0  0  0  0  0  0  0  0  0  0
    6.2661   -1.8568   -1.2570 N   0  0  0  0  0  0  0  0  0  0  0  0
    6.0824   -3.1782   -1.4199 C   0  0  0  0  0  0  0  0  0  0  0  0
    5.0415   -3.8811   -0.7599 C   0  0  0  0  0  0  0  0  0  0  0  0
    4.1765   -3.2582    0.0690 N   0  0  0  0  0  0  0  0  0  0  0  0
    3.4676    0.1325    1.2711 N   0  0  0  0  0  0  0  0  0  0  0  0
    2.4401    0.5199    2.1286 C   0  0  0  0  0  0  0  0  0  0  0  0
    2.1196    1.8382    2.5135 C   0  0  0  0  0  0  0  0  0  0  0  0
   -0.4093    1.2535    4.7485 H   0  0  0  0  0  0  0  0  0  0  0  0
    0.0654   -1.0800    4.0460 H   0  0  0  0  0  0  0  0  0  0  0  0
    5.5510   -0.1812   -0.3034 H   0  0  0  0  0  0  0  0  0  0  0  0
    6.7702   -3.6891   -2.0785 H   0  0  0  0  0  0  0  0  0  0  0  0
    4.9102   -4.9460   -0.8994 H   0  0  0  0  0  0  0  0  0  0  0  0
    2.7015    2.6463    2.0972 H   0  0  0  0  0  0  0  0  0  0  0  0
  1  2  2  0
  2  3  1  0
  2  4  1  0
  4  8  1  0
  4  5  2  0
  5  6  1  0
  6  7  2  0
  7  8  1  0
  8  9  1  0
  9 23  1  0
  9 10  2  0
 10 11  1  0
 10 24  1  0
 11 12  2  0
 11 25  1  0
 12 22  1  0
 12 13  1  0
 13 14  1  0
 14 15  1  0
 14 21  2  0
 15 20  1  0
 15 16  2  0
 16 17  1  0
 16 26  1  0
 17 18  2  0
 18 19  1  0
 18 27  1  0
 19 20  2  0
 19 28  1  0
 21 22  1  0
 22 23  2  0
 23 29  1  0
M  CHG  2   2   1   3  -1
M  END
>  <i_m_ct_stereo_status>  (396) 
1

>  <s_m_source_file>  (396) 
/var/tmp/pbs.5076255.sched01/tmpbrgkg_oh/138myny07gr.sdf

>  <i_m_source_file_index>  (396) 
39

>  <i_lp_mmshare_version>  (396) 
48012

>  <i_f3d_flags>  (396) 
0

>  <s_epik_input>  (396) 
Tz1bTitdKFtPLV0pYzFubm5uMS1jKFtjSF1bY0hdMilbY0hdYyhjMjMpbmMoczMpLWM0W2NIXW5bY0hdW2NIXW40

>  <s_epik_cmdline>  (396) 
J2VwaWtfcHl0aG9uJywgJy1waHQnLCAnMi4wJywgJy1waCcsICc3LjAnLCAnLXRuJywgJzgnLCAnLW1hJywgJzIwMCcsICctaW1hZScsICc8aW5maWxlLm1hZT4nLCAnLW9tYWUnLCAnPG91dGZpbGUubWFlPic=

>  <r_lp_tautomer_probability>  (396) 
1

>  <r_epik_Ionization_Penalty>  (396) 
2.3593e-09

>  <r_epik_Ionization_Penalty_Charging>  (396) 
0

>  <r_epik_Ionization_Penalty_Neutral>  (396) 
2.3593e-09

>  <r_epik_State_Penalty>  (396) 
-0

>  <r_epik_Charging_Adjusted_Penalty>  (396) 
0

>  <i_epik_Tot_Q>  (396) 
0

>  <i_epik_Tot_abs_Q>  (396) 
2

>  <s_lp_Force_Field>  (396) 
OPLS3e

>  <r_lp_Energy>  (396) 
31.9705

>  <b_lp_Chiralities_Consistent>  (396) 
1

>  <s_lp_Variant>  (396) 
117:0-1

>  <s_i_glide_gridfile>  (396) 
pfpi4k_grid

>  <i_i_glide_lignum>  (396) 
39

>  <i_i_glide_rotatable_bonds>  (396) 
3

>  <r_i_docking_score>  (396) 
-3.97905

>  <r_i_glide_ligand_efficiency>  (396) 
-0.173002

>  <r_i_glide_ligand_efficiency_sa>  (396) 
-0.491995

>  <r_i_glide_ligand_efficiency_ln>  (396) 
-0.96217

>  <r_i_glide_gscore>  (396) 
-3.97905

>  <r_i_glide_lipo>  (396) 
-0.18332

>  <r_i_glide_hbond>  (396) 
-0.150232

>  <r_i_glide_metal>  (396) 
-0

>  <r_i_glide_rewards>  (396) 
-1.18436

>  <r_i_glide_evdw>  (396) 
-28.1414

>  <r_i_glide_ecoul>  (396) 
-5.81369

>  <r_i_glide_erotb>  (396) 
0.352271

>  <r_i_glide_esite>  (396) 
-0.534286

>  <r_i_glide_emodel>  (396) 
-42.2727

>  <r_i_glide_energy>  (396) 
-33.9551

>  <r_i_glide_einternal>  (396) 
1.07751

>  <r_i_glide_intrahb_reward>  (396) 
-0

>  <i_i_glide_confnum>  (396) 
2

>  <i_i_glide_posenum>  (396) 
14

>  <r_i_glide_eff_state_penalty>  (396) 
0

>  <ligand_id>  (396) 
117

>  <original_smiles>  (396) 
O=[N+]([O-])c1nnnn1-c1ccc2sc(-c3cnccn3)nc2c1

>  <smiles>  (396) 
[H]c1nc([H])c(-c2nc3c([H])c(-n4nnnc4[N+](=O)[O-])c([H])c([H])c3s2)nc1[H]

$$$$
117:0:1
     RDKit          3D

 29 32  0  0  1  0  0  0  0  0999 V2000
    6.2005   -0.2859    0.3246 O   0  0  0  0  0  0  0  0  0  0  0  0
    5.6898   -1.3939    0.2099 N   0  0  0  0  0  0  0  0  0  0  0  0
    5.7536   -2.2494    1.0862 O   0  0  0  0  0  0  0  0  0  0  0  0
    5.0149   -1.6843   -1.0518 C   0  0  0  0  0  0  0  0  0  0  0  0
    4.9398   -0.7976   -2.0451 N   0  0  0  0  0  0  0  0  0  0  0  0
    4.2347   -1.4517   -3.0424 N   0  0  0  0  0  0  0  0  0  0  0  0
    3.9113   -2.6566   -2.6807 N   0  0  0  0  0  0  0  0  0  0  0  0
    4.4055   -2.8203   -1.4294 N   0  0  0  0  0  0  0  0  0  0  0  0
    4.2307   -3.9718   -0.6402 C   0  0  0  0  0  0  0  0  0  0  0  0
    5.3258   -4.7884   -0.2850 C   0  0  0  0  0  0  0  0  0  0  0  0
    5.1043   -5.9607    0.4641 C   0  0  0  0  0  0  0  0  0  0  0  0
    3.7967   -6.3145    0.8423 C   0  0  0  0  0  0  0  0  0  0  0  0
    3.2236   -7.7192    1.7340 S   0  0  0  0  0  0  0  0  0  0  0  0
    1.5736   -7.0879    1.5953 C   0  0  0  0  0  0  0  0  0  0  0  0
    0.4484   -7.7879    2.1826 C   0  0  0  0  0  0  0  0  0  0  0  0
    0.4819   -9.1739    2.4777 C   0  0  0  0  0  0  0  0  0  0  0  0
   -0.5905   -9.8123    2.9813 N   0  0  0  0  0  0  0  0  0  0  0  0
   -1.6853   -9.0517    3.2196 C   0  0  0  0  0  0  0  0  0  0  0  0
   -1.7093   -7.6793    2.9481 C   0  0  0  0  0  0  0  0  0  0  0  0
   -0.6526   -7.0403    2.4196 N   0  0  0  0  0  0  0  0  0  0  0  0
    1.4383   -5.9513    0.8972 N   0  0  0  0  0  0  0  0  0  0  0  0
    2.6849   -5.4952    0.4964 C   0  0  0  0  0  0  0  0  0  0  0  0
    2.9297   -4.3186   -0.2362 C   0  0  0  0  0  0  0  0  0  0  0  0
    6.3241   -4.5202   -0.6021 H   0  0  0  0  0  0  0  0  0  0  0  0
    5.9338   -6.5995    0.7158 H   0  0  0  0  0  0  0  0  0  0  0  0
    1.3471   -9.7891    2.2855 H   0  0  0  0  0  0  0  0  0  0  0  0
   -2.5624   -9.5040    3.6504 H   0  0  0  0  0  0  0  0  0  0  0  0
   -2.5780   -7.0771    3.1688 H   0  0  0  0  0  0  0  0  0  0  0  0
    2.1002   -3.6985   -0.5404 H   0  0  0  0  0  0  0  0  0  0  0  0
  1  2  2  0
  2  3  1  0
  2  4  1  0
  4  8  1  0
  4  5  2  0
  5  6  1  0
  6  7  2  0
  7  8  1  0
  8  9  1  0
  9 23  1  0
  9 10  2  0
 10 11  1  0
 10 24  1  0
 11 12  2  0
 11 25  1  0
 12 22  1  0
 12 13  1  0
 13 14  1  0
 14 15  1  0
 14 21  2  0
 15 20  1  0
 15 16  2  0
 16 17  1  0
 16 26  1  0
 17 18  2  0
 18 19  1  0
 18 27  1  0
 19 20  2  0
 19 28  1  0
 21 22  1  0
 22 23  2  0
 23 29  1  0
M  CHG  2   2   1   3  -1
M  END
>  <i_m_ct_stereo_status>  (397) 
1

>  <s_m_source_file>  (397) 
/var/tmp/pbs.5076255.sched01/tmpbrgkg_oh/138myny07gr.sdf

>  <i_m_source_file_index>  (397) 
39

>  <i_lp_mmshare_version>  (397) 
48012

>  <i_f3d_flags>  (397) 
0

>  <s_epik_input>  (397) 
Tz1bTitdKFtPLV0pYzFubm5uMS1jKFtjSF1bY0hdMilbY0hdYyhjMjMpbmMoczMpLWM0W2NIXW5bY0hdW2NIXW40

>  <s_epik_cmdline>  (397) 
J2VwaWtfcHl0aG9uJywgJy1waHQnLCAnMi4wJywgJy1waCcsICc3LjAnLCAnLXRuJywgJzgnLCAnLW1hJywgJzIwMCcsICctaW1hZScsICc8aW5maWxlLm1hZT4nLCAnLW9tYWUnLCAnPG91dGZpbGUubWFlPic=

>  <r_lp_tautomer_probability>  (397) 
1

>  <r_epik_Ionization_Penalty>  (397) 
2.3593e-09

>  <r_epik_Ionization_Penalty_Charging>  (397) 
0

>  <r_epik_Ionization_Penalty_Neutral>  (397) 
2.3593e-09

>  <r_epik_State_Penalty>  (397) 
-0

>  <r_epik_Charging_Adjusted_Penalty>  (397) 
0

>  <i_epik_Tot_Q>  (397) 
0

>  <i_epik_Tot_abs_Q>  (397) 
2

>  <s_lp_Force_Field>  (397) 
OPLS3e

>  <r_lp_Energy>  (397) 
31.9705

>  <b_lp_Chiralities_Consistent>  (397) 
1

>  <s_lp_Variant>  (397) 
117:0-1

>  <s_i_glide_gridfile>  (397) 
pfpi4k_grid

>  <i_i_glide_lignum>  (397) 
39

>  <i_i_glide_rotatable_bonds>  (397) 
3

>  <r_i_docking_score>  (397) 
-3.60235

>  <r_i_glide_ligand_efficiency>  (397) 
-0.156624

>  <r_i_glide_ligand_efficiency_sa>  (397) 
-0.445418

>  <r_i_glide_ligand_efficiency_ln>  (397) 
-0.871082

>  <r_i_glide_gscore>  (397) 
-3.60235

>  <r_i_glide_lipo>  (397) 
-0.244174

>  <r_i_glide_hbond>  (397) 
-0.319351

>  <r_i_glide_metal>  (397) 
-0

>  <r_i_glide_rewards>  (397) 
-1.24144

>  <r_i_glide_evdw>  (397) 
-30.6419

>  <r_i_glide_ecoul>  (397) 
-3.51395

>  <r_i_glide_erotb>  (397) 
0.352271

>  <r_i_glide_esite>  (397) 
-0.0904687

>  <r_i_glide_emodel>  (397) 
-39.1089

>  <r_i_glide_energy>  (397) 
-34.1559

>  <r_i_glide_einternal>  (397) 
6.40387

>  <r_i_glide_intrahb_reward>  (397) 
-0

>  <i_i_glide_confnum>  (397) 
6

>  <i_i_glide_posenum>  (397) 
37

>  <r_i_glide_eff_state_penalty>  (397) 
0

>  <ligand_id>  (397) 
117

>  <original_smiles>  (397) 
O=[N+]([O-])c1nnnn1-c1ccc2sc(-c3cnccn3)nc2c1

>  <smiles>  (397) 
[H]c1nc([H])c(-c2nc3c([H])c(-n4nnnc4[N+](=O)[O-])c([H])c([H])c3s2)nc1[H]

$$$$
117:0:2
     RDKit          3D

 29 32  0  0  1  0  0  0  0  0999 V2000
    2.3229   -2.9434   -3.7932 O   0  0  0  0  0  0  0  0  0  0  0  0
    2.6435   -3.1680   -2.6307 N   0  0  0  0  0  0  0  0  0  0  0  0
    1.8421   -3.4709   -1.7521 O   0  0  0  0  0  0  0  0  0  0  0  0
    4.0691   -3.1121   -2.3255 C   0  0  0  0  0  0  0  0  0  0  0  0
    4.9936   -3.0983   -3.2845 N   0  0  0  0  0  0  0  0  0  0  0  0
    6.1962   -3.0540   -2.6060 N   0  0  0  0  0  0  0  0  0  0  0  0
    6.0189   -3.0441   -1.3180 N   0  0  0  0  0  0  0  0  0  0  0  0
    4.6797   -3.0847   -1.1243 N   0  0  0  0  0  0  0  0  0  0  0  0
    4.0709   -3.1309    0.1495 C   0  0  0  0  0  0  0  0  0  0  0  0
    4.4920   -4.0992    1.0831 C   0  0  0  0  0  0  0  0  0  0  0  0
    3.9136   -4.1324    2.3663 C   0  0  0  0  0  0  0  0  0  0  0  0
    2.9194   -3.1970    2.7155 C   0  0  0  0  0  0  0  0  0  0  0  0
    2.0146   -3.0115    4.2163 S   0  0  0  0  0  0  0  0  0  0  0  0
    1.1697   -1.6287    3.4957 C   0  0  0  0  0  0  0  0  0  0  0  0
    0.1507   -0.8804    4.2291 C   0  0  0  0  0  0  0  0  0  0  0  0
   -0.4414   -1.3647    5.4226 C   0  0  0  0  0  0  0  0  0  0  0  0
   -1.3927   -0.6686    6.0785 N   0  0  0  0  0  0  0  0  0  0  0  0
   -1.7501    0.5206    5.5483 C   0  0  0  0  0  0  0  0  0  0  0  0
   -1.1739    1.0098    4.3567 C   0  0  0  0  0  0  0  0  0  0  0  0
   -0.2295    0.3082    3.6983 N   0  0  0  0  0  0  0  0  0  0  0  0
    1.5105   -1.3390    2.2397 N   0  0  0  0  0  0  0  0  0  0  0  0
    2.4909   -2.2061    1.7907 C   0  0  0  0  0  0  0  0  0  0  0  0
    3.0866   -2.1907    0.5167 C   0  0  0  0  0  0  0  0  0  0  0  0
    5.2679   -4.8047    0.8060 H   0  0  0  0  0  0  0  0  0  0  0  0
    4.2449   -4.8682    3.0772 H   0  0  0  0  0  0  0  0  0  0  0  0
   -0.1606   -2.3151    5.8544 H   0  0  0  0  0  0  0  0  0  0  0  0
   -2.4959    1.0941    6.0779 H   0  0  0  0  0  0  0  0  0  0  0  0
   -1.4679    1.9599    3.9313 H   0  0  0  0  0  0  0  0  0  0  0  0
    2.7477   -1.4379   -0.1814 H   0  0  0  0  0  0  0  0  0  0  0  0
  1  2  2  0
  2  3  1  0
  2  4  1  0
  4  8  1  0
  4  5  2  0
  5  6  1  0
  6  7  2  0
  7  8  1  0
  8  9  1  0
  9 23  1  0
  9 10  2  0
 10 11  1  0
 10 24  1  0
 11 12  2  0
 11 25  1  0
 12 22  1  0
 12 13  1  0
 13 14  1  0
 14 15  1  0
 14 21  2  0
 15 20  1  0
 15 16  2  0
 16 17  1  0
 16 26  1  0
 17 18  2  0
 18 19  1  0
 18 27  1  0
 19 20  2  0
 19 28  1  0
 21 22  1  0
 22 23  2  0
 23 29  1  0
M  CHG  2   2   1   3  -1
M  END
>  <i_m_ct_stereo_status>  (398) 
1

>  <s_m_source_file>  (398) 
/var/tmp/pbs.5076255.sched01/tmpbrgkg_oh/138myny07gr.sdf

>  <i_m_source_file_index>  (398) 
39

>  <i_lp_mmshare_version>  (398) 
48012

>  <i_f3d_flags>  (398) 
0

>  <s_epik_input>  (398) 
Tz1bTitdKFtPLV0pYzFubm5uMS1jKFtjSF1bY0hdMilbY0hdYyhjMjMpbmMoczMpLWM0W2NIXW5bY0hdW2NIXW40

>  <s_epik_cmdline>  (398) 
J2VwaWtfcHl0aG9uJywgJy1waHQnLCAnMi4wJywgJy1waCcsICc3LjAnLCAnLXRuJywgJzgnLCAnLW1hJywgJzIwMCcsICctaW1hZScsICc8aW5maWxlLm1hZT4nLCAnLW9tYWUnLCAnPG91dGZpbGUubWFlPic=

>  <r_lp_tautomer_probability>  (398) 
1

>  <r_epik_Ionization_Penalty>  (398) 
2.3593e-09

>  <r_epik_Ionization_Penalty_Charging>  (398) 
0

>  <r_epik_Ionization_Penalty_Neutral>  (398) 
2.3593e-09

>  <r_epik_State_Penalty>  (398) 
-0

>  <r_epik_Charging_Adjusted_Penalty>  (398) 
0

>  <i_epik_Tot_Q>  (398) 
0

>  <i_epik_Tot_abs_Q>  (398) 
2

>  <s_lp_Force_Field>  (398) 
OPLS3e

>  <r_lp_Energy>  (398) 
31.9705

>  <b_lp_Chiralities_Consistent>  (398) 
1

>  <s_lp_Variant>  (398) 
117:0-1

>  <s_i_glide_gridfile>  (398) 
pfpi4k_grid

>  <i_i_glide_lignum>  (398) 
39

>  <i_i_glide_rotatable_bonds>  (398) 
3

>  <r_i_docking_score>  (398) 
-3.13062

>  <r_i_glide_ligand_efficiency>  (398) 
-0.136114

>  <r_i_glide_ligand_efficiency_sa>  (398) 
-0.38709

>  <r_i_glide_ligand_efficiency_ln>  (398) 
-0.757013

>  <r_i_glide_gscore>  (398) 
-3.13062

>  <r_i_glide_lipo>  (398) 
-0.0389227

>  <r_i_glide_hbond>  (398) 
-0.0827783

>  <r_i_glide_metal>  (398) 
-0

>  <r_i_glide_rewards>  (398) 
-1.23178

>  <r_i_glide_evdw>  (398) 
-28.9862

>  <r_i_glide_ecoul>  (398) 
-4.38427

>  <r_i_glide_erotb>  (398) 
0.352271

>  <r_i_glide_esite>  (398) 
-0.0224611

>  <r_i_glide_emodel>  (398) 
-37.3919

>  <r_i_glide_energy>  (398) 
-33.3705

>  <r_i_glide_einternal>  (398) 
6.05589

>  <r_i_glide_intrahb_reward>  (398) 
-0

>  <i_i_glide_confnum>  (398) 
5

>  <i_i_glide_posenum>  (398) 
3

>  <r_i_glide_eff_state_penalty>  (398) 
0

>  <ligand_id>  (398) 
117

>  <original_smiles>  (398) 
O=[N+]([O-])c1nnnn1-c1ccc2sc(-c3cnccn3)nc2c1

>  <smiles>  (398) 
[H]c1nc([H])c(-c2nc3c([H])c(-n4nnnc4[N+](=O)[O-])c([H])c([H])c3s2)nc1[H]

$$$$
118:0:0
     RDKit          3D

 62 65  0  0  1  0  0  0  0  0999 V2000
    8.5789   -5.7272    2.1130 C   0  0  0  0  0  0  0  0  0  0  0  0
    7.2098   -5.5219    1.8002 O   0  0  0  0  0  0  0  0  0  0  0  0
    6.6009   -6.6122    1.1869 C   0  0  2  0  0  0  0  0  0  0  0  0
    5.3841   -6.2094    0.2998 C   0  0  0  0  0  0  0  0  0  0  0  0
    4.3498   -5.1836    0.8658 C   0  0  1  0  0  0  0  0  0  0  0  0
    3.7471   -5.4820    2.2837 C   0  0  2  0  0  0  0  0  0  0  0  0
    2.1931   -5.3874    2.2661 C   0  0  0  0  0  0  0  0  0  0  0  0
    4.3061   -4.4170    3.2474 C   0  0  0  0  0  0  0  0  0  0  0  0
    3.9572   -2.9628    2.8663 C   0  0  0  0  0  0  0  0  0  0  0  0
    3.8009   -2.6577    1.3508 C   0  0  1  0  0  0  0  0  0  0  0  0
    4.0662   -1.1544    1.0129 C   0  0  1  0  0  0  0  0  0  0  0  0
    3.2738   -0.1676    1.8935 C   0  0  0  0  0  0  0  0  0  0  0  0
    5.5655   -0.7797    0.9133 C   0  0  1  0  0  0  0  0  0  0  0  0
    6.1988   -0.6639    2.1725 O   0  0  0  0  0  0  0  0  0  0  0  0
    6.3406   -1.7734    0.0376 C   0  0  0  0  0  0  0  0  0  0  0  0
    6.0724   -3.2286    0.4564 C   0  0  0  0  0  0  0  0  0  0  0  0
    4.5756   -3.6619    0.4258 C   0  0  1  0  0  0  0  0  0  0  0  0
    4.0419   -3.5327   -1.0314 C   0  0  0  0  0  0  0  0  0  0  0  0
    4.1128   -6.8976    2.7844 C   0  0  0  0  0  0  0  0  0  0  0  0
    3.2989   -7.9147    3.0703 C   0  0  0  0  0  0  0  0  0  0  0  0
    4.0751   -9.0549    3.6631 C   0  0  0  0  0  0  0  0  0  0  0  0
    3.5032   -9.5189    5.0087 C   0  0  0  0  0  0  0  0  0  0  0  0
    4.2037  -10.2168    2.6645 C   0  0  0  0  0  0  0  0  0  0  0  0
    5.3556   -8.4769    3.9315 O   0  0  0  0  0  0  0  0  0  0  0  0
    5.5177   -7.3199    3.1509 C   0  0  1  0  0  0  0  0  0  0  0  0
    6.2855   -7.6584    2.0471 O   0  0  0  0  0  0  0  0  0  0  0  0
    9.0025   -4.8222    2.5448 H   0  0  0  0  0  0  0  0  0  0  0  0
    9.1746   -5.9487    1.2266 H   0  0  0  0  0  0  0  0  0  0  0  0
    8.7065   -6.5397    2.8279 H   0  0  0  0  0  0  0  0  0  0  0  0
    7.3505   -7.0451    0.5203 H   0  0  0  0  0  0  0  0  0  0  0  0
    5.7693   -5.8338   -0.6437 H   0  0  0  0  0  0  0  0  0  0  0  0
    4.8706   -7.1350    0.0343 H   0  0  0  0  0  0  0  0  0  0  0  0
    3.5010   -5.4716    0.2450 H   0  0  0  0  0  0  0  0  0  0  0  0
    1.8212   -4.4278    1.9328 H   0  0  0  0  0  0  0  0  0  0  0  0
    1.7770   -5.5393    3.2626 H   0  0  0  0  0  0  0  0  0  0  0  0
    1.7463   -6.1321    1.6052 H   0  0  0  0  0  0  0  0  0  0  0  0
    3.9731   -4.6164    4.2667 H   0  0  0  0  0  0  0  0  0  0  0  0
    5.3915   -4.4968    3.2655 H   0  0  0  0  0  0  0  0  0  0  0  0
    3.0280   -2.6855    3.3620 H   0  0  0  0  0  0  0  0  0  0  0  0
    4.7133   -2.3203    3.3130 H   0  0  0  0  0  0  0  0  0  0  0  0
    2.7446   -2.7802    1.1148 H   0  0  0  0  0  0  0  0  0  0  0  0
    3.6594   -0.9886    0.0162 H   0  0  0  0  0  0  0  0  0  0  0  0
    3.6084   -0.1823    2.9311 H   0  0  0  0  0  0  0  0  0  0  0  0
    2.2083   -0.4044    1.8771 H   0  0  0  0  0  0  0  0  0  0  0  0
    3.3862    0.8541    1.5294 H   0  0  0  0  0  0  0  0  0  0  0  0
    5.6363    0.2081    0.4649 H   0  0  0  0  0  0  0  0  0  0  0  0
    6.9706   -0.1128    2.0729 H   0  0  0  0  0  0  0  0  0  0  0  0
    6.0756   -1.6299   -1.0075 H   0  0  0  0  0  0  0  0  0  0  0  0
    7.4102   -1.5690    0.0995 H   0  0  0  0  0  0  0  0  0  0  0  0
    6.6805   -3.8766   -0.1741 H   0  0  0  0  0  0  0  0  0  0  0  0
    6.4465   -3.3267    1.4722 H   0  0  0  0  0  0  0  0  0  0  0  0
    4.1479   -2.5341   -1.4482 H   0  0  0  0  0  0  0  0  0  0  0  0
    2.9773   -3.7665   -1.0917 H   0  0  0  0  0  0  0  0  0  0  0  0
    4.5600   -4.2099   -1.7113 H   0  0  0  0  0  0  0  0  0  0  0  0
    2.2267   -7.9467    2.9621 H   0  0  0  0  0  0  0  0  0  0  0  0
    2.4963   -9.9280    4.9102 H   0  0  0  0  0  0  0  0  0  0  0  0
    3.4647   -8.6975    5.7250 H   0  0  0  0  0  0  0  0  0  0  0  0
    4.1297  -10.2981    5.4450 H   0  0  0  0  0  0  0  0  0  0  0  0
    3.2322  -10.6599    2.4375 H   0  0  0  0  0  0  0  0  0  0  0  0
    4.8401  -11.0119    3.0549 H   0  0  0  0  0  0  0  0  0  0  0  0
    4.6333   -9.8869    1.7179 H   0  0  0  0  0  0  0  0  0  0  0  0
    6.0174   -6.5729    3.7672 H   0  0  0  0  0  0  0  0  0  0  0  0
  1  2  1  0
  1 27  1  0
  1 28  1  0
  1 29  1  0
  2  3  1  0
  3 26  1  0
  3  4  1  0
  3 30  1  6
  4  5  1  0
  4 31  1  0
  4 32  1  0
  5 17  1  0
  5  6  1  0
  5 33  1  6
  6  7  1  6
  6  8  1  0
  6 19  1  0
  7 34  1  0
  7 35  1  0
  7 36  1  0
  8  9  1  0
  8 37  1  0
  8 38  1  0
  9 10  1  0
  9 39  1  0
  9 40  1  0
 10 17  1  0
 10 11  1  0
 10 41  1  6
 11 12  1  0
 11 13  1  0
 11 42  1  6
 12 43  1  0
 12 44  1  0
 12 45  1  0
 13 14  1  0
 13 15  1  0
 13 46  1  6
 14 47  1  0
 15 16  1  0
 15 48  1  0
 15 49  1  0
 16 17  1  0
 16 50  1  0
 16 51  1  0
 17 18  1  6
 18 52  1  0
 18 53  1  0
 18 54  1  0
 19 25  1  0
 19 20  2  0
 20 21  1  0
 20 55  1  0
 21 22  1  0
 21 23  1  0
 21 24  1  0
 22 56  1  0
 22 57  1  0
 22 58  1  0
 23 59  1  0
 23 60  1  0
 23 61  1  0
 24 25  1  0
 25 26  1  0
 25 62  1  1
M  END
>  <i_m_ct_stereo_status>  (399) 
1

>  <s_m_source_file>  (399) 
/var/tmp/pbs.5076255.sched01/tmpbrgkg_oh/138myny07gr.sdf

>  <i_m_source_file_index>  (399) 
40

>  <i_lp_mmshare_version>  (399) 
48012

>  <i_f3d_flags>  (399) 
0

>  <s_epik_input>  (399) 
W0NIM11DKE8xKShbQ0gzXSlbQ0hdPUMyW0NAQEhdMU9bQ0BIXShPW0NIM10pW0NIMl1bQ0BASF0oW0NAQF0yM1tDSDNdKVtDQEBdNChbQ0gzXSlbQ0BASF0oW0NIMl1bQ0gyXTMpW0NAQEhdKFtDSDNdKVtDQEBIXShbT0hdKVtDSDJdW0NIMl00

>  <s_epik_cmdline>  (399) 
J2VwaWtfcHl0aG9uJywgJy1waHQnLCAnMi4wJywgJy1waCcsICc3LjAnLCAnLXRuJywgJzgnLCAnLW1hJywgJzIwMCcsICctaW1hZScsICc8aW5maWxlLm1hZT4nLCAnLW9tYWUnLCAnPG91dGZpbGUubWFlPic=

>  <r_lp_tautomer_probability>  (399) 
1

>  <r_epik_Ionization_Penalty>  (399) 
2.28123e-06

>  <r_epik_Ionization_Penalty_Charging>  (399) 
0

>  <r_epik_Ionization_Penalty_Neutral>  (399) 
2.28123e-06

>  <r_epik_State_Penalty>  (399) 
-0

>  <r_epik_Charging_Adjusted_Penalty>  (399) 
0

>  <i_epik_Tot_Q>  (399) 
0

>  <i_epik_Tot_abs_Q>  (399) 
0

>  <s_epik_Chemistry_Notes>  (399) 
This compound contains an acetal/aminal-like group ( X-CH(R)-Y where X, Y are N, S, or O) that may be acid/base labile, releasing an aldehyde.

>  <s_lp_Force_Field>  (399) 
OPLS3e

>  <r_lp_Energy>  (399) 
42.3902

>  <b_lp_Chiralities_Consistent>  (399) 
1

>  <s_lp_Variant>  (399) 
118:0-1

>  <s_i_glide_gridfile>  (399) 
pfpi4k_grid

>  <i_i_glide_lignum>  (399) 
40

>  <i_i_glide_rotatable_bonds>  (399) 
2

>  <r_i_docking_score>  (399) 
-3.27859

>  <r_i_glide_ligand_efficiency>  (399) 
-0.1261

>  <r_i_glide_ligand_efficiency_sa>  (399) 
-0.37357

>  <r_i_glide_ligand_efficiency_ln>  (399) 
-0.769966

>  <r_i_glide_gscore>  (399) 
-3.27859

>  <r_i_glide_lipo>  (399) 
-0.378104

>  <r_i_glide_hbond>  (399) 
-0.32

>  <r_i_glide_metal>  (399) 
-0

>  <r_i_glide_rewards>  (399) 
-1.03469

>  <r_i_glide_evdw>  (399) 
-17.7565

>  <r_i_glide_ecoul>  (399) 
-4.38649

>  <r_i_glide_erotb>  (399) 
0

>  <r_i_glide_esite>  (399) 
0

>  <r_i_glide_emodel>  (399) 
-25.7248

>  <r_i_glide_energy>  (399) 
-22.143

>  <r_i_glide_einternal>  (399) 
0.869849

>  <r_i_glide_intrahb_reward>  (399) 
-0

>  <i_i_glide_confnum>  (399) 
1

>  <i_i_glide_posenum>  (399) 
37

>  <r_i_glide_eff_state_penalty>  (399) 
0

>  <ligand_id>  (399) 
118

>  <original_smiles>  (399) 
COC1CC2C(C)(CCC3C(C)C(O)CCC32C)C2=CC(C)(C)OC2O1

>  <smiles>  (399) 
[H]OC1([H])C([H])([H])C([H])([H])C2(C([H])([H])[H])C([H])(C([H])([H])C([H])([H])C3(C([H])([H])[H])C4=C([H])C(C([H])([H])[H])(C([H])([H])[H])OC4([H])OC([H])(OC([H])([H])[H])C([H])([H])C32[H])C1([H])C([H])([H])[H]

$$$$
118:0:1
     RDKit          3D

 62 65  0  0  1  0  0  0  0  0999 V2000
    2.3955    0.5899    2.1500 C   0  0  0  0  0  0  0  0  0  0  0  0
    3.3333   -0.4159    1.8062 O   0  0  0  0  0  0  0  0  0  0  0  0
    4.2914   -0.6727    2.7795 C   0  0  2  0  0  0  0  0  0  0  0  0
    5.5495   -1.3918    2.2049 C   0  0  0  0  0  0  0  0  0  0  0  0
    5.3408   -2.5970    1.2240 C   0  0  1  0  0  0  0  0  0  0  0  0
    4.3649   -3.7399    1.6762 C   0  0  2  0  0  0  0  0  0  0  0  0
    5.0298   -5.1431    1.5087 C   0  0  0  0  0  0  0  0  0  0  0  0
    3.1203   -3.6494    0.7757 C   0  0  0  0  0  0  0  0  0  0  0  0
    3.4139   -3.8250   -0.7259 C   0  0  0  0  0  0  0  0  0  0  0  0
    4.7959   -3.3426   -1.2418 C   0  0  1  0  0  0  0  0  0  0  0  0
    4.8008   -2.9866   -2.7669 C   0  0  1  0  0  0  0  0  0  0  0  0
    4.2242   -4.0752   -3.6846 C   0  0  0  0  0  0  0  0  0  0  0  0
    4.1990   -1.6021   -3.0845 C   0  0  1  0  0  0  0  0  0  0  0  0
    2.7891   -1.5944   -3.0289 O   0  0  0  0  0  0  0  0  0  0  0  0
    4.7515   -0.5184   -2.1590 C   0  0  0  0  0  0  0  0  0  0  0  0
    4.6845   -0.9113   -0.6836 C   0  0  0  0  0  0  0  0  0  0  0  0
    5.4254   -2.2366   -0.3315 C   0  0  1  0  0  0  0  0  0  0  0  0
    6.9409   -2.1115   -0.6748 C   0  0  0  0  0  0  0  0  0  0  0  0
    3.9552   -3.6050    3.1560 C   0  0  0  0  0  0  0  0  0  0  0  0
    4.1792   -4.4474    4.1649 C   0  0  0  0  0  0  0  0  0  0  0  0
    3.4758   -3.9799    5.4033 C   0  0  0  0  0  0  0  0  0  0  0  0
    2.5789   -5.0616    6.0163 C   0  0  0  0  0  0  0  0  0  0  0  0
    4.4700   -3.4129    6.4299 C   0  0  0  0  0  0  0  0  0  0  0  0
    2.6126   -2.9481    4.9187 O   0  0  0  0  0  0  0  0  0  0  0  0
    3.0873   -2.4812    3.6803 C   0  0  1  0  0  0  0  0  0  0  0  0
    3.8049   -1.3161    3.9144 O   0  0  0  0  0  0  0  0  0  0  0  0
    1.7043    0.7515    1.3231 H   0  0  0  0  0  0  0  0  0  0  0  0
    2.8774    1.5457    2.3603 H   0  0  0  0  0  0  0  0  0  0  0  0
    1.8121    0.2994    3.0223 H   0  0  0  0  0  0  0  0  0  0  0  0
    4.6247    0.2958    3.1586 H   0  0  0  0  0  0  0  0  0  0  0  0
    6.1807   -0.6378    1.7366 H   0  0  0  0  0  0  0  0  0  0  0  0
    6.1290   -1.7265    3.0627 H   0  0  0  0  0  0  0  0  0  0  0  0
    6.2945   -3.0983    1.3940 H   0  0  0  0  0  0  0  0  0  0  0  0
    5.3644   -5.3640    0.5041 H   0  0  0  0  0  0  0  0  0  0  0  0
    4.3344   -5.9413    1.7720 H   0  0  0  0  0  0  0  0  0  0  0  0
    5.9099   -5.2544    2.1443 H   0  0  0  0  0  0  0  0  0  0  0  0
    2.3859   -4.3963    1.0837 H   0  0  0  0  0  0  0  0  0  0  0  0
    2.6405   -2.6809    0.9112 H   0  0  0  0  0  0  0  0  0  0  0  0
    3.3557   -4.8901   -0.9168 H   0  0  0  0  0  0  0  0  0  0  0  0
    2.5980   -3.3756   -1.2873 H   0  0  0  0  0  0  0  0  0  0  0  0
    5.4610   -4.2018   -1.1895 H   0  0  0  0  0  0  0  0  0  0  0  0
    5.8431   -2.9310   -3.0766 H   0  0  0  0  0  0  0  0  0  0  0  0
    3.1500   -4.1937   -3.5379 H   0  0  0  0  0  0  0  0  0  0  0  0
    4.7047   -5.0366   -3.5069 H   0  0  0  0  0  0  0  0  0  0  0  0
    4.3742   -3.8288   -4.7310 H   0  0  0  0  0  0  0  0  0  0  0  0
    4.4477   -1.3458   -4.1147 H   0  0  0  0  0  0  0  0  0  0  0  0
    2.5034   -1.5713   -2.1254 H   0  0  0  0  0  0  0  0  0  0  0  0
    5.7857   -0.3020   -2.3763 H   0  0  0  0  0  0  0  0  0  0  0  0
    4.2165    0.4138   -2.3402 H   0  0  0  0  0  0  0  0  0  0  0  0
    5.0826   -0.0846   -0.0970 H   0  0  0  0  0  0  0  0  0  0  0  0
    3.6304   -1.0053   -0.4335 H   0  0  0  0  0  0  0  0  0  0  0  0
    7.1268   -1.8737   -1.7176 H   0  0  0  0  0  0  0  0  0  0  0  0
    7.4740   -3.0465   -0.4827 H   0  0  0  0  0  0  0  0  0  0  0  0
    7.4216   -1.3414   -0.0740 H   0  0  0  0  0  0  0  0  0  0  0  0
    4.7385   -5.3717    4.1335 H   0  0  0  0  0  0  0  0  0  0  0  0
    3.1543   -5.9204    6.3627 H   0  0  0  0  0  0  0  0  0  0  0  0
    1.8441   -5.4190    5.2932 H   0  0  0  0  0  0  0  0  0  0  0  0
    2.0299   -4.6673    6.8708 H   0  0  0  0  0  0  0  0  0  0  0  0
    5.1422   -4.1894    6.7974 H   0  0  0  0  0  0  0  0  0  0  0  0
    3.9555   -2.9879    7.2921 H   0  0  0  0  0  0  0  0  0  0  0  0
    5.0895   -2.6282    5.9932 H   0  0  0  0  0  0  0  0  0  0  0  0
    2.2256   -2.3057    3.0374 H   0  0  0  0  0  0  0  0  0  0  0  0
  1  2  1  0
  1 27  1  0
  1 28  1  0
  1 29  1  0
  2  3  1  0
  3 26  1  0
  3  4  1  0
  3 30  1  1
  4  5  1  0
  4 31  1  0
  4 32  1  0
  5 17  1  0
  5  6  1  0
  5 33  1  1
  6  7  1  1
  6  8  1  0
  6 19  1  0
  7 34  1  0
  7 35  1  0
  7 36  1  0
  8  9  1  0
  8 37  1  0
  8 38  1  0
  9 10  1  0
  9 39  1  0
  9 40  1  0
 10 17  1  0
 10 11  1  0
 10 41  1  6
 11 12  1  0
 11 13  1  0
 11 42  1  6
 12 43  1  0
 12 44  1  0
 12 45  1  0
 13 14  1  0
 13 15  1  0
 13 46  1  6
 14 47  1  0
 15 16  1  0
 15 48  1  0
 15 49  1  0
 16 17  1  0
 16 50  1  0
 16 51  1  0
 17 18  1  6
 18 52  1  0
 18 53  1  0
 18 54  1  0
 19 25  1  0
 19 20  2  0
 20 21  1  0
 20 55  1  0
 21 22  1  0
 21 23  1  0
 21 24  1  0
 22 56  1  0
 22 57  1  0
 22 58  1  0
 23 59  1  0
 23 60  1  0
 23 61  1  0
 24 25  1  0
 25 26  1  0
 25 62  1  6
M  END
>  <i_m_ct_stereo_status>  (400) 
1

>  <s_m_source_file>  (400) 
/var/tmp/pbs.5076255.sched01/tmpbrgkg_oh/138myny07gr.sdf

>  <i_m_source_file_index>  (400) 
40

>  <i_lp_mmshare_version>  (400) 
48012

>  <i_f3d_flags>  (400) 
0

>  <s_epik_input>  (400) 
W0NIM11DKE8xKShbQ0gzXSlbQ0hdPUMyW0NAQEhdMU9bQ0BIXShPW0NIM10pW0NIMl1bQ0BASF0oW0NAQF0yM1tDSDNdKVtDQEBdNChbQ0gzXSlbQ0BASF0oW0NIMl1bQ0gyXTMpW0NAQEhdKFtDSDNdKVtDQEBIXShbT0hdKVtDSDJdW0NIMl00

>  <s_epik_cmdline>  (400) 
J2VwaWtfcHl0aG9uJywgJy1waHQnLCAnMi4wJywgJy1waCcsICc3LjAnLCAnLXRuJywgJzgnLCAnLW1hJywgJzIwMCcsICctaW1hZScsICc8aW5maWxlLm1hZT4nLCAnLW9tYWUnLCAnPG91dGZpbGUubWFlPic=

>  <r_lp_tautomer_probability>  (400) 
1

>  <r_epik_Ionization_Penalty>  (400) 
2.28123e-06

>  <r_epik_Ionization_Penalty_Charging>  (400) 
0

>  <r_epik_Ionization_Penalty_Neutral>  (400) 
2.28123e-06

>  <r_epik_State_Penalty>  (400) 
-0

>  <r_epik_Charging_Adjusted_Penalty>  (400) 
0

>  <i_epik_Tot_Q>  (400) 
0

>  <i_epik_Tot_abs_Q>  (400) 
0

>  <s_epik_Chemistry_Notes>  (400) 
This compound contains an acetal/aminal-like group ( X-CH(R)-Y where X, Y are N, S, or O) that may be acid/base labile, releasing an aldehyde.

>  <s_lp_Force_Field>  (400) 
OPLS3e

>  <r_lp_Energy>  (400) 
42.3902

>  <b_lp_Chiralities_Consistent>  (400) 
1

>  <s_lp_Variant>  (400) 
118:0-1

>  <s_i_glide_gridfile>  (400) 
pfpi4k_grid

>  <i_i_glide_lignum>  (400) 
40

>  <i_i_glide_rotatable_bonds>  (400) 
2

>  <r_i_docking_score>  (400) 
-2.58924

>  <r_i_glide_ligand_efficiency>  (400) 
-0.0995862

>  <r_i_glide_ligand_efficiency_sa>  (400) 
-0.295024

>  <r_i_glide_ligand_efficiency_ln>  (400) 
-0.608075

>  <r_i_glide_gscore>  (400) 
-2.58924

>  <r_i_glide_lipo>  (400) 
-0.465192

>  <r_i_glide_hbond>  (400) 
-0.0552907

>  <r_i_glide_metal>  (400) 
-0

>  <r_i_glide_rewards>  (400) 
-0.992612

>  <r_i_glide_evdw>  (400) 
-19.2573

>  <r_i_glide_ecoul>  (400) 
-0.755217

>  <r_i_glide_erotb>  (400) 
0

>  <r_i_glide_esite>  (400) 
0

>  <r_i_glide_emodel>  (400) 
-23.1226

>  <r_i_glide_energy>  (400) 
-20.0125

>  <r_i_glide_einternal>  (400) 
0.167035

>  <r_i_glide_intrahb_reward>  (400) 
-0

>  <i_i_glide_confnum>  (400) 
2

>  <i_i_glide_posenum>  (400) 
6

>  <r_i_glide_eff_state_penalty>  (400) 
0

>  <ligand_id>  (400) 
118

>  <original_smiles>  (400) 
COC1CC2C(C)(CCC3C(C)C(O)CCC32C)C2=CC(C)(C)OC2O1

>  <smiles>  (400) 
[H]OC1([H])C([H])([H])C([H])([H])C2(C([H])([H])[H])C([H])(C([H])([H])C([H])([H])C3(C([H])([H])[H])C4=C([H])C(C([H])([H])[H])(C([H])([H])[H])OC4([H])OC([H])(OC([H])([H])[H])C([H])([H])C32[H])C1([H])C([H])([H])[H]

$$$$
118:0:2
     RDKit          3D

 62 65  0  0  1  0  0  0  0  0999 V2000
    1.5152    0.8390    1.6861 C   0  0  0  0  0  0  0  0  0  0  0  0
    2.5371   -0.1414    1.5847 O   0  0  0  0  0  0  0  0  0  0  0  0
    3.2814   -0.3261    2.7393 C   0  0  2  0  0  0  0  0  0  0  0  0
    4.6439   -1.0324    2.4662 C   0  0  0  0  0  0  0  0  0  0  0  0
    4.6615   -2.2858    1.5226 C   0  0  1  0  0  0  0  0  0  0  0  0
    3.6431   -3.4390    1.8283 C   0  0  2  0  0  0  0  0  0  0  0  0
    4.3541   -4.8275    1.8727 C   0  0  0  0  0  0  0  0  0  0  0  0
    2.6107   -3.4364    0.6921 C   0  0  0  0  0  0  0  0  0  0  0  0
    3.1935   -3.6710   -0.7126 C   0  0  0  0  0  0  0  0  0  0  0  0
    4.6390   -3.1663   -0.9639 C   0  0  1  0  0  0  0  0  0  0  0  0
    4.9329   -2.8836   -2.4773 C   0  0  1  0  0  0  0  0  0  0  0  0
    4.5722   -4.0388   -3.4254 C   0  0  0  0  0  0  0  0  0  0  0  0
    4.3756   -1.5382   -2.9861 C   0  0  1  0  0  0  0  0  0  0  0  0
    2.9841   -1.5481   -3.1941 O   0  0  0  0  0  0  0  0  0  0  0  0
    4.7275   -0.4002   -2.0384 C   0  0  0  0  0  0  0  0  0  0  0  0
    4.3774   -0.7181   -0.5735 C   0  0  0  0  0  0  0  0  0  0  0  0
    5.0505   -1.9990   -0.0033 C   0  0  1  0  0  0  0  0  0  0  0  0
    6.5964   -1.8330   -0.0382 C   0  0  0  0  0  0  0  0  0  0  0  0
    2.9328   -3.2460    3.1867 C   0  0  0  0  0  0  0  0  0  0  0  0
    2.9679   -4.0347    4.2612 C   0  0  0  0  0  0  0  0  0  0  0  0
    2.0179   -3.5303    5.3073 C   0  0  0  0  0  0  0  0  0  0  0  0
    1.0420   -4.6119    5.7852 C   0  0  0  0  0  0  0  0  0  0  0  0
    2.7744   -2.8865    6.4819 C   0  0  0  0  0  0  0  0  0  0  0  0
    1.2462   -2.5545    4.6054 O   0  0  0  0  0  0  0  0  0  0  0  0
    1.9545   -2.1286    3.4658 C   0  0  1  0  0  0  0  0  0  0  0  0
    2.5859   -0.9338    3.7837 O   0  0  0  0  0  0  0  0  0  0  0  0
    0.9965    0.9390    0.7356 H   0  0  0  0  0  0  0  0  0  0  0  0
    1.9138    1.8220    1.9394 H   0  0  0  0  0  0  0  0  0  0  0  0
    0.7740    0.5623    2.4344 H   0  0  0  0  0  0  0  0  0  0  0  0
    3.5110    0.6719    3.1237 H   0  0  0  0  0  0  0  0  0  0  0  0
    5.3358   -0.2807    2.0915 H   0  0  0  0  0  0  0  0  0  0  0  0
    5.0509   -1.3084    3.4379 H   0  0  0  0  0  0  0  0  0  0  0  0
    5.5713   -2.7498    1.9024 H   0  0  0  0  0  0  0  0  0  0  0  0
    4.8859   -5.0836    0.9655 H   0  0  0  0  0  0  0  0  0  0  0  0
    3.6360   -5.6316    2.0325 H   0  0  0  0  0  0  0  0  0  0  0  0
    5.0909   -4.8803    2.6746 H   0  0  0  0  0  0  0  0  0  0  0  0
    1.8508   -4.1923    0.8914 H   0  0  0  0  0  0  0  0  0  0  0  0
    2.0955   -2.4765    0.6808 H   0  0  0  0  0  0  0  0  0  0  0  0
    3.1978   -4.7401   -0.8810 H   0  0  0  0  0  0  0  0  0  0  0  0
    2.4961   -3.2648   -1.4410 H   0  0  0  0  0  0  0  0  0  0  0  0
    5.2991   -3.9996   -0.7340 H   0  0  0  0  0  0  0  0  0  0  0  0
    6.0150   -2.8088   -2.5730 H   0  0  0  0  0  0  0  0  0  0  0  0
    3.4929   -4.1822   -3.4989 H   0  0  0  0  0  0  0  0  0  0  0  0
    5.0096   -4.9752   -3.0816 H   0  0  0  0  0  0  0  0  0  0  0  0
    4.9303   -3.8515   -4.4373 H   0  0  0  0  0  0  0  0  0  0  0  0
    4.8125   -1.3281   -3.9614 H   0  0  0  0  0  0  0  0  0  0  0  0
    2.5462   -1.5261   -2.3510 H   0  0  0  0  0  0  0  0  0  0  0  0
    5.7838   -0.1875   -2.1281 H   0  0  0  0  0  0  0  0  0  0  0  0
    4.2181    0.5082   -2.3640 H   0  0  0  0  0  0  0  0  0  0  0  0
    4.6297    0.1451    0.0412 H   0  0  0  0  0  0  0  0  0  0  0  0
    3.2967   -0.8330   -0.5257 H   0  0  0  0  0  0  0  0  0  0  0  0
    6.9774   -1.6458   -1.0348 H   0  0  0  0  0  0  0  0  0  0  0  0
    7.1039   -2.7375    0.3011 H   0  0  0  0  0  0  0  0  0  0  0  0
    6.9288   -1.0110    0.5962 H   0  0  0  0  0  0  0  0  0  0  0  0
    3.5432   -4.9398    4.3919 H   0  0  0  0  0  0  0  0  0  0  0  0
    1.5558   -5.4346    6.2841 H   0  0  0  0  0  0  0  0  0  0  0  0
    0.4755   -5.0247    4.9496 H   0  0  0  0  0  0  0  0  0  0  0  0
    0.3235   -4.1955    6.4917 H   0  0  0  0  0  0  0  0  0  0  0  0
    3.3794   -3.6223    7.0143 H   0  0  0  0  0  0  0  0  0  0  0  0
    2.0896   -2.4408    7.2042 H   0  0  0  0  0  0  0  0  0  0  0  0
    3.4501   -2.1015    6.1387 H   0  0  0  0  0  0  0  0  0  0  0  0
    1.2391   -2.0064    2.6532 H   0  0  0  0  0  0  0  0  0  0  0  0
  1  2  1  0
  1 27  1  0
  1 28  1  0
  1 29  1  0
  2  3  1  0
  3 26  1  0
  3  4  1  0
  3 30  1  1
  4  5  1  0
  4 31  1  0
  4 32  1  0
  5 17  1  0
  5  6  1  0
  5 33  1  1
  6  7  1  1
  6  8  1  0
  6 19  1  0
  7 34  1  0
  7 35  1  0
  7 36  1  0
  8  9  1  0
  8 37  1  0
  8 38  1  0
  9 10  1  0
  9 39  1  0
  9 40  1  0
 10 17  1  0
 10 11  1  0
 10 41  1  1
 11 12  1  0
 11 13  1  0
 11 42  1  1
 12 43  1  0
 12 44  1  0
 12 45  1  0
 13 14  1  0
 13 15  1  0
 13 46  1  6
 14 47  1  0
 15 16  1  0
 15 48  1  0
 15 49  1  0
 16 17  1  0
 16 50  1  0
 16 51  1  0
 17 18  1  1
 18 52  1  0
 18 53  1  0
 18 54  1  0
 19 25  1  0
 19 20  2  0
 20 21  1  0
 20 55  1  0
 21 22  1  0
 21 23  1  0
 21 24  1  0
 22 56  1  0
 22 57  1  0
 22 58  1  0
 23 59  1  0
 23 60  1  0
 23 61  1  0
 24 25  1  0
 25 26  1  0
 25 62  1  6
M  END
>  <i_m_ct_stereo_status>  (401) 
1

>  <s_m_source_file>  (401) 
/var/tmp/pbs.5076255.sched01/tmpbrgkg_oh/138myny07gr.sdf

>  <i_m_source_file_index>  (401) 
40

>  <i_lp_mmshare_version>  (401) 
48012

>  <i_f3d_flags>  (401) 
0

>  <s_epik_input>  (401) 
W0NIM11DKE8xKShbQ0gzXSlbQ0hdPUMyW0NAQEhdMU9bQ0BIXShPW0NIM10pW0NIMl1bQ0BASF0oW0NAQF0yM1tDSDNdKVtDQEBdNChbQ0gzXSlbQ0BASF0oW0NIMl1bQ0gyXTMpW0NAQEhdKFtDSDNdKVtDQEBIXShbT0hdKVtDSDJdW0NIMl00

>  <s_epik_cmdline>  (401) 
J2VwaWtfcHl0aG9uJywgJy1waHQnLCAnMi4wJywgJy1waCcsICc3LjAnLCAnLXRuJywgJzgnLCAnLW1hJywgJzIwMCcsICctaW1hZScsICc8aW5maWxlLm1hZT4nLCAnLW9tYWUnLCAnPG91dGZpbGUubWFlPic=

>  <r_lp_tautomer_probability>  (401) 
1

>  <r_epik_Ionization_Penalty>  (401) 
2.28123e-06

>  <r_epik_Ionization_Penalty_Charging>  (401) 
0

>  <r_epik_Ionization_Penalty_Neutral>  (401) 
2.28123e-06

>  <r_epik_State_Penalty>  (401) 
-0

>  <r_epik_Charging_Adjusted_Penalty>  (401) 
0

>  <i_epik_Tot_Q>  (401) 
0

>  <i_epik_Tot_abs_Q>  (401) 
0

>  <s_epik_Chemistry_Notes>  (401) 
This compound contains an acetal/aminal-like group ( X-CH(R)-Y where X, Y are N, S, or O) that may be acid/base labile, releasing an aldehyde.

>  <s_lp_Force_Field>  (401) 
OPLS3e

>  <r_lp_Energy>  (401) 
42.3902

>  <b_lp_Chiralities_Consistent>  (401) 
1

>  <s_lp_Variant>  (401) 
118:0-1

>  <s_i_glide_gridfile>  (401) 
pfpi4k_grid

>  <i_i_glide_lignum>  (401) 
40

>  <i_i_glide_rotatable_bonds>  (401) 
2

>  <r_i_docking_score>  (401) 
-2.39549

>  <r_i_glide_ligand_efficiency>  (401) 
-0.0921342

>  <r_i_glide_ligand_efficiency_sa>  (401) 
-0.272947

>  <r_i_glide_ligand_efficiency_ln>  (401) 
-0.562573

>  <r_i_glide_gscore>  (401) 
-2.39549

>  <r_i_glide_lipo>  (401) 
-0.283045

>  <r_i_glide_hbond>  (401) 
-0.00565291

>  <r_i_glide_metal>  (401) 
-0

>  <r_i_glide_rewards>  (401) 
-0.933905

>  <r_i_glide_evdw>  (401) 
-21.7139

>  <r_i_glide_ecoul>  (401) 
-0.576896

>  <r_i_glide_erotb>  (401) 
0

>  <r_i_glide_esite>  (401) 
-0.000654323

>  <r_i_glide_emodel>  (401) 
-25.2054

>  <r_i_glide_energy>  (401) 
-22.2908

>  <r_i_glide_einternal>  (401) 
0.159981

>  <r_i_glide_intrahb_reward>  (401) 
-0

>  <i_i_glide_confnum>  (401) 
1

>  <i_i_glide_posenum>  (401) 
29

>  <r_i_glide_eff_state_penalty>  (401) 
0

>  <ligand_id>  (401) 
118

>  <original_smiles>  (401) 
COC1CC2C(C)(CCC3C(C)C(O)CCC32C)C2=CC(C)(C)OC2O1

>  <smiles>  (401) 
[H]OC1([H])C([H])([H])C([H])([H])C2(C([H])([H])[H])C([H])(C([H])([H])C([H])([H])C3(C([H])([H])[H])C4=C([H])C(C([H])([H])[H])(C([H])([H])[H])OC4([H])OC([H])(OC([H])([H])[H])C([H])([H])C32[H])C1([H])C([H])([H])[H]

$$$$
119:0:0
     RDKit          3D

 58 63  0  0  1  0  0  0  0  0999 V2000
    3.3055   -0.8644    0.9264 C   0  0  0  0  0  0  0  0  0  0  0  0
    4.3180   -1.8900    0.4596 C   0  0  0  0  0  0  0  0  0  0  0  0
    4.9520   -1.8896   -0.7288 C   0  0  0  0  0  0  0  0  0  0  0  0
    4.7682   -0.9347   -1.9000 C   0  0  0  0  0  0  0  0  0  0  0  0
    4.0770   -1.6946   -3.0425 C   0  0  0  0  0  0  0  0  0  0  0  0
    3.4391   -1.0680   -3.8861 O   0  0  0  0  0  0  0  0  0  0  0  0
    4.2756   -3.1558   -3.1323 C   0  0  0  0  0  0  0  0  0  0  0  0
    5.0269   -3.8132   -2.2263 C   0  0  0  0  0  0  0  0  0  0  0  0
    5.7134   -3.1626   -1.0259 C   0  0  1  0  0  0  0  0  0  0  0  0
    7.1956   -2.8876   -1.3677 C   0  0  0  0  0  0  0  0  0  0  0  0
    5.5655   -3.9223    0.3135 C   0  0  2  0  0  0  0  0  0  0  0  0
    5.3614   -5.4342    0.2950 C   0  0  0  0  0  0  0  0  0  0  0  0
    5.3864   -5.9699    1.7366 C   0  0  0  0  0  0  0  0  0  0  0  0
    4.2544   -5.4314    2.6658 C   0  0  2  0  0  0  0  0  0  0  0  0
    2.9452   -6.2972    2.6281 C   0  0  1  0  0  0  0  0  0  0  0  0
    3.1991   -7.8149    2.7958 C   0  0  0  0  0  0  0  0  0  0  0  0
    1.8992   -5.8883    3.6950 C   0  0  0  0  0  0  0  0  0  0  0  0
    1.3265   -4.4646    3.5987 C   0  0  0  0  0  0  0  0  0  0  0  0
    2.1936   -3.3935    4.2758 C   0  0  2  0  0  0  0  0  0  0  0  0
    1.5727   -1.9928    4.2746 C   0  0  1  0  0  0  0  0  0  0  0  0
    0.6778   -1.6731    5.4901 C   0  0  0  0  0  0  0  0  0  0  0  0
    2.7944   -1.0956    4.1953 C   0  0  0  0  0  0  0  0  0  0  0  0
    2.7837    0.1041    4.4713 O   0  0  0  0  0  0  0  0  0  0  0  0
    3.8410   -1.7964    3.7532 O   0  0  0  0  0  0  0  0  0  0  0  0
    3.6124   -3.1943    3.7013 C   0  0  2  0  0  0  0  0  0  0  0  0
    3.9811   -3.9286    2.3981 C   0  0  2  0  0  0  0  0  0  0  0  0
    3.1975   -3.7871    1.2075 O   0  0  0  0  0  0  0  0  0  0  0  0
    4.5055   -3.2158    1.1223 C   0  0  1  0  0  0  0  0  0  0  0  0
    2.4342   -1.3717    1.3406 H   0  0  0  0  0  0  0  0  0  0  0  0
    2.9435   -0.2568    0.1032 H   0  0  0  0  0  0  0  0  0  0  0  0
    3.7297   -0.1964    1.6756 H   0  0  0  0  0  0  0  0  0  0  0  0
    4.2159   -0.0378   -1.6261 H   0  0  0  0  0  0  0  0  0  0  0  0
    5.7388   -0.6030   -2.2589 H   0  0  0  0  0  0  0  0  0  0  0  0
    3.8155   -3.6900   -3.9513 H   0  0  0  0  0  0  0  0  0  0  0  0
    5.1509   -4.8788   -2.3302 H   0  0  0  0  0  0  0  0  0  0  0  0
    7.3041   -2.3465   -2.3100 H   0  0  0  0  0  0  0  0  0  0  0  0
    7.7481   -3.8228   -1.4779 H   0  0  0  0  0  0  0  0  0  0  0  0
    7.6979   -2.3073   -0.5924 H   0  0  0  0  0  0  0  0  0  0  0  0
    6.4906   -3.7427    0.8598 H   0  0  0  0  0  0  0  0  0  0  0  0
    4.4207   -5.6912   -0.1968 H   0  0  0  0  0  0  0  0  0  0  0  0
    6.1686   -5.8892   -0.2777 H   0  0  0  0  0  0  0  0  0  0  0  0
    5.4045   -7.0560    1.6957 H   0  0  0  0  0  0  0  0  0  0  0  0
    6.3468   -5.7062    2.1823 H   0  0  0  0  0  0  0  0  0  0  0  0
    4.6493   -5.5365    3.6780 H   0  0  0  0  0  0  0  0  0  0  0  0
    2.4762   -6.1729    1.6508 H   0  0  0  0  0  0  0  0  0  0  0  0
    3.8237   -8.0211    3.6669 H   0  0  0  0  0  0  0  0  0  0  0  0
    3.6725   -8.2584    1.9196 H   0  0  0  0  0  0  0  0  0  0  0  0
    2.2656   -8.3672    2.9291 H   0  0  0  0  0  0  0  0  0  0  0  0
    1.0495   -6.5649    3.6019 H   0  0  0  0  0  0  0  0  0  0  0  0
    2.2872   -6.0661    4.6967 H   0  0  0  0  0  0  0  0  0  0  0  0
    1.1120   -4.2049    2.5641 H   0  0  0  0  0  0  0  0  0  0  0  0
    0.3576   -4.4606    4.0982 H   0  0  0  0  0  0  0  0  0  0  0  0
    2.3136   -3.6913    5.3201 H   0  0  0  0  0  0  0  0  0  0  0  0
    1.0041   -1.8333    3.3603 H   0  0  0  0  0  0  0  0  0  0  0  0
    0.2851   -0.6522    5.4320 H   0  0  0  0  0  0  0  0  0  0  0  0
    1.2315   -1.7529    6.4318 H   0  0  0  0  0  0  0  0  0  0  0  0
   -0.1771   -2.3480    5.5417 H   0  0  0  0  0  0  0  0  0  0  0  0
    4.3038   -3.5748    4.4550 H   0  0  0  0  0  0  0  0  0  0  0  0
  1  2  1  0
  1 29  1  0
  1 30  1  0
  1 31  1  0
  2 28  1  0
  2  3  2  0
  3  9  1  0
  3  4  1  0
  4  5  1  0
  4 32  1  0
  4 33  1  0
  5  6  2  0
  5  7  1  0
  7  8  2  0
  7 34  1  0
  8  9  1  0
  8 35  1  0
  9 10  1  6
  9 11  1  0
 10 36  1  0
 10 37  1  0
 10 38  1  0
 11 28  1  0
 11 12  1  0
 11 39  1  1
 12 13  1  0
 12 40  1  0
 12 41  1  0
 13 14  1  0
 13 42  1  0
 13 43  1  0
 14 26  1  0
 14 15  1  0
 14 44  1  1
 15 16  1  0
 15 17  1  0
 15 45  1  6
 16 46  1  0
 16 47  1  0
 16 48  1  0
 17 18  1  0
 17 49  1  0
 17 50  1  0
 18 19  1  0
 18 51  1  0
 18 52  1  0
 19 25  1  0
 19 20  1  0
 19 53  1  1
 20 21  1  0
 20 22  1  0
 20 54  1  6
 21 55  1  0
 21 56  1  0
 21 57  1  0
 22 23  2  0
 22 24  1  0
 24 25  1  0
 25 26  1  0
 25 58  1  1
 26 28  1  0
 26 27  1  6
 28 27  1  6
M  END
>  <i_m_ct_stereo_status>  (402) 
1

>  <s_m_source_file>  (402) 
/var/tmp/pbs.5076255.sched01/tmpbrgkg_oh/138myny07gr.sdf

>  <i_m_source_file_index>  (402) 
41

>  <i_lp_mmshare_version>  (402) 
48012

>  <i_f3d_flags>  (402) 
0

>  <s_epik_input>  (402) 
W0NIXTE9W0NIXUMoPU8pW0NIMl1DKD1DMltDSDNdKVtDQEBdMShbQ0gzXSlbQ0BASF0oW0NAXTIoW0NAQF0zNDUpTzUpW0NIMl1bQ0gyXVtDQEBIXTNbQ0BASF0oW0NIM10pW0NIMl1bQ0gyXVtDQEhdNltDQEBIXTRPQyg9TylbQ0BASF02W0NIM10=

>  <s_epik_cmdline>  (402) 
J2VwaWtfcHl0aG9uJywgJy1waHQnLCAnMi4wJywgJy1waCcsICc3LjAnLCAnLXRuJywgJzgnLCAnLW1hJywgJzIwMCcsICctaW1hZScsICc8aW5maWxlLm1hZT4nLCAnLW9tYWUnLCAnPG91dGZpbGUubWFlPic=

>  <r_lp_tautomer_probability>  (402) 
1

>  <r_epik_Ionization_Penalty>  (402) 
2.693e-13

>  <r_epik_Ionization_Penalty_Charging>  (402) 
0

>  <r_epik_Ionization_Penalty_Neutral>  (402) 
2.693e-13

>  <r_epik_State_Penalty>  (402) 
-0

>  <r_epik_Charging_Adjusted_Penalty>  (402) 
0

>  <i_epik_Tot_Q>  (402) 
0

>  <i_epik_Tot_abs_Q>  (402) 
0

>  <s_epik_Chemistry_Notes>  (402) 
This compound has an ester and may undergo hydrolysis at high or low pH.

>  <s_lp_Force_Field>  (402) 
OPLS3e

>  <r_lp_Energy>  (402) 
62.3127

>  <b_lp_Chiralities_Consistent>  (402) 
1

>  <s_lp_Variant>  (402) 
119:0-1

>  <s_i_glide_gridfile>  (402) 
pfpi4k_grid

>  <i_i_glide_lignum>  (402) 
41

>  <i_i_glide_rotatable_bonds>  (402) 
0

>  <r_i_docking_score>  (402) 
-2.83167

>  <r_i_glide_ligand_efficiency>  (402) 
-0.101131

>  <r_i_glide_ligand_efficiency_sa>  (402) 
-0.307094

>  <r_i_glide_ligand_efficiency_ln>  (402) 
-0.653633

>  <r_i_glide_gscore>  (402) 
-2.83167

>  <r_i_glide_lipo>  (402) 
-0.395214

>  <r_i_glide_hbond>  (402) 
0

>  <r_i_glide_metal>  (402) 
-0

>  <r_i_glide_rewards>  (402) 
-0.886932

>  <r_i_glide_evdw>  (402) 
-30.2166

>  <r_i_glide_ecoul>  (402) 
-0.257858

>  <r_i_glide_erotb>  (402) 
0

>  <r_i_glide_esite>  (402) 
-1.95822e-05

>  <r_i_glide_emodel>  (402) 
-35.4184

>  <r_i_glide_energy>  (402) 
-30.4744

>  <r_i_glide_einternal>  (402) 
0

>  <r_i_glide_intrahb_reward>  (402) 
-0

>  <i_i_glide_confnum>  (402) 
2

>  <i_i_glide_posenum>  (402) 
3

>  <r_i_glide_eff_state_penalty>  (402) 
0

>  <ligand_id>  (402) 
119

>  <original_smiles>  (402) 
CC1=C2CC(=O)C=CC2(C)C2CCC3C(C)CCC4C(C)C(=O)OC4C34OC124

>  <smiles>  (402) 
[H]C1=C([H])C2(C([H])([H])[H])C(=C(C([H])([H])[H])C34OC35C3([H])OC(=O)C([H])(C([H])([H])[H])C3([H])C([H])([H])C([H])([H])C([H])(C([H])([H])[H])C5([H])C([H])([H])C([H])([H])C42[H])C([H])([H])C1=O

$$$$
119:0:1
     RDKit          3D

 58 63  0  0  1  0  0  0  0  0999 V2000
    2.9205   -1.5030    1.6139 C   0  0  0  0  0  0  0  0  0  0  0  0
    4.0215   -2.3995    1.0787 C   0  0  0  0  0  0  0  0  0  0  0  0
    4.7419   -2.1829   -0.0398 C   0  0  0  0  0  0  0  0  0  0  0  0
    4.5866   -1.0635   -1.0573 C   0  0  0  0  0  0  0  0  0  0  0  0
    4.0282   -1.6683   -2.3560 C   0  0  0  0  0  0  0  0  0  0  0  0
    3.4168   -0.9510   -3.1411 O   0  0  0  0  0  0  0  0  0  0  0  0
    4.3139   -3.0898   -2.6517 C   0  0  0  0  0  0  0  0  0  0  0  0
    5.0335   -3.8467   -1.8007 C   0  0  0  0  0  0  0  0  0  0  0  0
    5.5932   -3.3608   -0.4650 C   0  0  1  0  0  0  0  0  0  0  0  0
    7.0779   -2.9730   -0.6473 C   0  0  0  0  0  0  0  0  0  0  0  0
    5.3924   -4.3261    0.7280 C   0  0  2  0  0  0  0  0  0  0  0  0
    5.2744   -5.8257    0.4665 C   0  0  0  0  0  0  0  0  0  0  0  0
    5.2262   -6.5794    1.8041 C   0  0  0  0  0  0  0  0  0  0  0  0
    4.0029   -6.2421    2.7103 C   0  0  2  0  0  0  0  0  0  0  0  0
    2.7511   -7.1500    2.4373 C   0  0  1  0  0  0  0  0  0  0  0  0
    3.0769   -8.6628    2.3909 C   0  0  0  0  0  0  0  0  0  0  0  0
    1.6115   -6.9592    3.4686 C   0  0  0  0  0  0  0  0  0  0  0  0
    0.9695   -5.5641    3.5447 C   0  0  0  0  0  0  0  0  0  0  0  0
    1.7241   -4.5743    4.4450 C   0  0  2  0  0  0  0  0  0  0  0  0
    1.0272   -3.2200    4.6109 C   0  0  1  0  0  0  0  0  0  0  0  0
    0.0365   -3.1304    5.7906 C   0  0  0  0  0  0  0  0  0  0  0  0
    2.1988   -2.2671    4.7645 C   0  0  0  0  0  0  0  0  0  0  0  0
    2.0996   -1.1287    5.2192 O   0  0  0  0  0  0  0  0  0  0  0  0
    3.3107   -2.8426    4.3024 O   0  0  0  0  0  0  0  0  0  0  0  0
    3.1667   -4.2241    4.0217 C   0  0  2  0  0  0  0  0  0  0  0  0
    3.6662   -4.7282    2.6544 C   0  0  2  0  0  0  0  0  0  0  0  0
    2.9601   -4.4365    1.4423 O   0  0  0  0  0  0  0  0  0  0  0  0
    4.2379   -3.8022    1.5466 C   0  0  1  0  0  0  0  0  0  0  0  0
    2.0507   -2.1052    1.8767 H   0  0  0  0  0  0  0  0  0  0  0  0
    2.5857   -0.7751    0.8759 H   0  0  0  0  0  0  0  0  0  0  0  0
    3.2554   -0.9501    2.4923 H   0  0  0  0  0  0  0  0  0  0  0  0
    3.9409   -0.2642   -0.6933 H   0  0  0  0  0  0  0  0  0  0  0  0
    5.5560   -0.6240   -1.2794 H   0  0  0  0  0  0  0  0  0  0  0  0
    3.9409   -3.5072   -3.5769 H   0  0  0  0  0  0  0  0  0  0  0  0
    5.2267   -4.8771   -2.0557 H   0  0  0  0  0  0  0  0  0  0  0  0
    7.2164   -2.2822   -1.4808 H   0  0  0  0  0  0  0  0  0  0  0  0
    7.6846   -3.8566   -0.8603 H   0  0  0  0  0  0  0  0  0  0  0  0
    7.4907   -2.4976    0.2438 H   0  0  0  0  0  0  0  0  0  0  0  0
    6.2653   -4.1939    1.3663 H   0  0  0  0  0  0  0  0  0  0  0  0
    4.3884   -6.0436   -0.1337 H   0  0  0  0  0  0  0  0  0  0  0  0
    6.1456   -6.1571   -0.0961 H   0  0  0  0  0  0  0  0  0  0  0  0
    5.3077   -7.6438    1.5981 H   0  0  0  0  0  0  0  0  0  0  0  0
    6.1366   -6.3477    2.3583 H   0  0  0  0  0  0  0  0  0  0  0  0
    4.3307   -6.4867    3.7222 H   0  0  0  0  0  0  0  0  0  0  0  0
    2.3455   -6.8963    1.4566 H   0  0  0  0  0  0  0  0  0  0  0  0
    3.6484   -8.9757    3.2667 H   0  0  0  0  0  0  0  0  0  0  0  0
    3.6350   -8.9441    1.4978 H   0  0  0  0  0  0  0  0  0  0  0  0
    2.1688   -9.2704    2.3641 H   0  0  0  0  0  0  0  0  0  0  0  0
    0.8093   -7.6501    3.2075 H   0  0  0  0  0  0  0  0  0  0  0  0
    1.9367   -7.2737    4.4592 H   0  0  0  0  0  0  0  0  0  0  0  0
    0.8109   -5.1565    2.5479 H   0  0  0  0  0  0  0  0  0  0  0  0
   -0.0279   -5.6841    3.9681 H   0  0  0  0  0  0  0  0  0  0  0  0
    1.7866   -5.0267    5.4377 H   0  0  0  0  0  0  0  0  0  0  0  0
    0.5157   -2.9443    3.6904 H   0  0  0  0  0  0  0  0  0  0  0  0
   -0.4100   -2.1327    5.8555 H   0  0  0  0  0  0  0  0  0  0  0  0
    0.5277   -3.3314    6.7478 H   0  0  0  0  0  0  0  0  0  0  0  0
   -0.7777   -3.8453    5.6821 H   0  0  0  0  0  0  0  0  0  0  0  0
    3.8230   -4.6866    4.7607 H   0  0  0  0  0  0  0  0  0  0  0  0
  1  2  1  0
  1 29  1  0
  1 30  1  0
  1 31  1  0
  2 28  1  0
  2  3  2  0
  3  9  1  0
  3  4  1  0
  4  5  1  0
  4 32  1  0
  4 33  1  0
  5  6  2  0
  5  7  1  0
  7  8  2  0
  7 34  1  0
  8  9  1  0
  8 35  1  0
  9 10  1  6
  9 11  1  0
 10 36  1  0
 10 37  1  0
 10 38  1  0
 11 28  1  0
 11 12  1  0
 11 39  1  1
 12 13  1  0
 12 40  1  0
 12 41  1  0
 13 14  1  0
 13 42  1  0
 13 43  1  0
 14 26  1  0
 14 15  1  0
 14 44  1  1
 15 16  1  0
 15 17  1  0
 15 45  1  6
 16 46  1  0
 16 47  1  0
 16 48  1  0
 17 18  1  0
 17 49  1  0
 17 50  1  0
 18 19  1  0
 18 51  1  0
 18 52  1  0
 19 25  1  0
 19 20  1  0
 19 53  1  1
 20 21  1  0
 20 22  1  0
 20 54  1  6
 21 55  1  0
 21 56  1  0
 21 57  1  0
 22 23  2  0
 22 24  1  0
 24 25  1  0
 25 26  1  0
 25 58  1  1
 26 28  1  0
 26 27  1  6
 28 27  1  6
M  END
>  <i_m_ct_stereo_status>  (403) 
1

>  <s_m_source_file>  (403) 
/var/tmp/pbs.5076255.sched01/tmpbrgkg_oh/138myny07gr.sdf

>  <i_m_source_file_index>  (403) 
41

>  <i_lp_mmshare_version>  (403) 
48012

>  <i_f3d_flags>  (403) 
0

>  <s_epik_input>  (403) 
W0NIXTE9W0NIXUMoPU8pW0NIMl1DKD1DMltDSDNdKVtDQEBdMShbQ0gzXSlbQ0BASF0oW0NAXTIoW0NAQF0zNDUpTzUpW0NIMl1bQ0gyXVtDQEBIXTNbQ0BASF0oW0NIM10pW0NIMl1bQ0gyXVtDQEhdNltDQEBIXTRPQyg9TylbQ0BASF02W0NIM10=

>  <s_epik_cmdline>  (403) 
J2VwaWtfcHl0aG9uJywgJy1waHQnLCAnMi4wJywgJy1waCcsICc3LjAnLCAnLXRuJywgJzgnLCAnLW1hJywgJzIwMCcsICctaW1hZScsICc8aW5maWxlLm1hZT4nLCAnLW9tYWUnLCAnPG91dGZpbGUubWFlPic=

>  <r_lp_tautomer_probability>  (403) 
1

>  <r_epik_Ionization_Penalty>  (403) 
2.693e-13

>  <r_epik_Ionization_Penalty_Charging>  (403) 
0

>  <r_epik_Ionization_Penalty_Neutral>  (403) 
2.693e-13

>  <r_epik_State_Penalty>  (403) 
-0

>  <r_epik_Charging_Adjusted_Penalty>  (403) 
0

>  <i_epik_Tot_Q>  (403) 
0

>  <i_epik_Tot_abs_Q>  (403) 
0

>  <s_epik_Chemistry_Notes>  (403) 
This compound has an ester and may undergo hydrolysis at high or low pH.

>  <s_lp_Force_Field>  (403) 
OPLS3e

>  <r_lp_Energy>  (403) 
62.3127

>  <b_lp_Chiralities_Consistent>  (403) 
1

>  <s_lp_Variant>  (403) 
119:0-1

>  <s_i_glide_gridfile>  (403) 
pfpi4k_grid

>  <i_i_glide_lignum>  (403) 
41

>  <i_i_glide_rotatable_bonds>  (403) 
0

>  <r_i_docking_score>  (403) 
-2.68663

>  <r_i_glide_ligand_efficiency>  (403) 
-0.0959512

>  <r_i_glide_ligand_efficiency_sa>  (403) 
-0.291364

>  <r_i_glide_ligand_efficiency_ln>  (403) 
-0.620154

>  <r_i_glide_gscore>  (403) 
-2.68663

>  <r_i_glide_lipo>  (403) 
-0.365514

>  <r_i_glide_hbond>  (403) 
0

>  <r_i_glide_metal>  (403) 
-0

>  <r_i_glide_rewards>  (403) 
-0.801187

>  <r_i_glide_evdw>  (403) 
-29.7715

>  <r_i_glide_ecoul>  (403) 
-0.0193187

>  <r_i_glide_erotb>  (403) 
0

>  <r_i_glide_esite>  (403) 
-0.0284609

>  <r_i_glide_emodel>  (403) 
-34.4882

>  <r_i_glide_energy>  (403) 
-29.7908

>  <r_i_glide_einternal>  (403) 
0

>  <r_i_glide_intrahb_reward>  (403) 
-0

>  <i_i_glide_confnum>  (403) 
2

>  <i_i_glide_posenum>  (403) 
36

>  <r_i_glide_eff_state_penalty>  (403) 
0

>  <ligand_id>  (403) 
119

>  <original_smiles>  (403) 
CC1=C2CC(=O)C=CC2(C)C2CCC3C(C)CCC4C(C)C(=O)OC4C34OC124

>  <smiles>  (403) 
[H]C1=C([H])C2(C([H])([H])[H])C(=C(C([H])([H])[H])C34OC35C3([H])OC(=O)C([H])(C([H])([H])[H])C3([H])C([H])([H])C([H])([H])C([H])(C([H])([H])[H])C5([H])C([H])([H])C([H])([H])C42[H])C([H])([H])C1=O

$$$$
119:0:2
     RDKit          3D

 58 63  0  0  1  0  0  0  0  0999 V2000
    3.8018   -0.5306    1.2084 C   0  0  0  0  0  0  0  0  0  0  0  0
    4.7202   -1.6288    0.7041 C   0  0  0  0  0  0  0  0  0  0  0  0
    5.1910   -1.7561   -0.5504 C   0  0  0  0  0  0  0  0  0  0  0  0
    4.8710   -0.9043   -1.7695 C   0  0  0  0  0  0  0  0  0  0  0  0
    4.0258   -1.7379   -2.7406 C   0  0  0  0  0  0  0  0  0  0  0  0
    3.2968   -1.1633   -3.5465 O   0  0  0  0  0  0  0  0  0  0  0  0
    4.1803   -3.2060   -2.7232 C   0  0  0  0  0  0  0  0  0  0  0  0
    5.0313   -3.8077   -1.8637 C   0  0  0  0  0  0  0  0  0  0  0  0
    5.8812   -3.0770   -0.8260 C   0  0  1  0  0  0  0  0  0  0  0  0
    7.3115   -2.8861   -1.3758 C   0  0  0  0  0  0  0  0  0  0  0  0
    5.8963   -3.7104    0.5832 C   0  0  2  0  0  0  0  0  0  0  0  0
    5.6584   -5.2139    0.7301 C   0  0  0  0  0  0  0  0  0  0  0  0
    5.8621   -5.6144    2.2024 C   0  0  0  0  0  0  0  0  0  0  0  0
    4.8754   -4.9558    3.2171 C   0  0  2  0  0  0  0  0  0  0  0  0
    3.5526   -5.7740    3.4319 C   0  0  1  0  0  0  0  0  0  0  0  0
    3.7922   -7.2785    3.7053 C   0  0  0  0  0  0  0  0  0  0  0  0
    2.6650   -5.2343    4.5814 C   0  0  0  0  0  0  0  0  0  0  0  0
    2.1130   -3.8071    4.4247 C   0  0  0  0  0  0  0  0  0  0  0  0
    3.0909   -2.7121    4.8846 C   0  0  2  0  0  0  0  0  0  0  0  0
    2.5130   -1.2951    4.8397 C   0  0  1  0  0  0  0  0  0  0  0  0
    1.7954   -0.8380    6.1266 C   0  0  0  0  0  0  0  0  0  0  0  0
    3.7346   -0.4533    4.5191 C   0  0  0  0  0  0  0  0  0  0  0  0
    3.7913    0.7667    4.6816 O   0  0  0  0  0  0  0  0  0  0  0  0
    4.6949   -1.2270    4.0094 O   0  0  0  0  0  0  0  0  0  0  0  0
    4.4271   -2.6138    4.1157 C   0  0  2  0  0  0  0  0  0  0  0  0
    4.6032   -3.4739    2.8500 C   0  0  2  0  0  0  0  0  0  0  0  0
    3.6729   -3.4110    1.7629 O   0  0  0  0  0  0  0  0  0  0  0  0
    4.9695   -2.8962    1.4560 C   0  0  1  0  0  0  0  0  0  0  0  0
    2.9814   -0.9694    1.7761 H   0  0  0  0  0  0  0  0  0  0  0  0
    3.3475    0.0337    0.3994 H   0  0  0  0  0  0  0  0  0  0  0  0
    4.3426    0.1788    1.8347 H   0  0  0  0  0  0  0  0  0  0  0  0
    4.3572    0.0206   -1.5114 H   0  0  0  0  0  0  0  0  0  0  0  0
    5.7921   -0.6311   -2.2809 H   0  0  0  0  0  0  0  0  0  0  0  0
    3.6032   -3.7916   -3.4219 H   0  0  0  0  0  0  0  0  0  0  0  0
    5.1194   -4.8836   -1.8917 H   0  0  0  0  0  0  0  0  0  0  0  0
    7.3047   -2.4292   -2.3664 H   0  0  0  0  0  0  0  0  0  0  0  0
    7.8216   -3.8469   -1.4748 H   0  0  0  0  0  0  0  0  0  0  0  0
    7.9280   -2.2585   -0.7296 H   0  0  0  0  0  0  0  0  0  0  0  0
    6.8884   -3.5153    0.9870 H   0  0  0  0  0  0  0  0  0  0  0  0
    4.6526   -5.4761    0.3958 H   0  0  0  0  0  0  0  0  0  0  0  0
    6.3634   -5.7603    0.1008 H   0  0  0  0  0  0  0  0  0  0  0  0
    5.8482   -6.7008    2.2617 H   0  0  0  0  0  0  0  0  0  0  0  0
    6.8789   -5.3469    2.4911 H   0  0  0  0  0  0  0  0  0  0  0  0
    5.3992   -4.9828    4.1743 H   0  0  0  0  0  0  0  0  0  0  0  0
    2.9604   -5.7198    2.5167 H   0  0  0  0  0  0  0  0  0  0  0  0
    4.5238   -7.4301    4.5003 H   0  0  0  0  0  0  0  0  0  0  0  0
    4.1319   -7.8132    2.8192 H   0  0  0  0  0  0  0  0  0  0  0  0
    2.8735   -7.7833    4.0114 H   0  0  0  0  0  0  0  0  0  0  0  0
    1.7965   -5.8891    4.6639 H   0  0  0  0  0  0  0  0  0  0  0  0
    3.1792   -5.3335    5.5360 H   0  0  0  0  0  0  0  0  0  0  0  0
    1.7607   -3.6336    3.4079 H   0  0  0  0  0  0  0  0  0  0  0  0
    1.2214   -3.7269    5.0483 H   0  0  0  0  0  0  0  0  0  0  0  0
    3.3422   -2.9230    5.9260 H   0  0  0  0  0  0  0  0  0  0  0  0
    1.8302   -1.1970    3.9972 H   0  0  0  0  0  0  0  0  0  0  0  0
    1.4196    0.1844    6.0260 H   0  0  0  0  0  0  0  0  0  0  0  0
    2.4662   -0.8511    6.9921 H   0  0  0  0  0  0  0  0  0  0  0  0
    0.9413   -1.4760    6.3540 H   0  0  0  0  0  0  0  0  0  0  0  0
    5.2033   -2.9499    4.8060 H   0  0  0  0  0  0  0  0  0  0  0  0
  1  2  1  0
  1 29  1  0
  1 30  1  0
  1 31  1  0
  2 28  1  0
  2  3  2  0
  3  9  1  0
  3  4  1  0
  4  5  1  0
  4 32  1  0
  4 33  1  0
  5  6  2  0
  5  7  1  0
  7  8  2  0
  7 34  1  0
  8  9  1  0
  8 35  1  0
  9 10  1  6
  9 11  1  0
 10 36  1  0
 10 37  1  0
 10 38  1  0
 11 28  1  0
 11 12  1  0
 11 39  1  1
 12 13  1  0
 12 40  1  0
 12 41  1  0
 13 14  1  0
 13 42  1  0
 13 43  1  0
 14 26  1  0
 14 15  1  0
 14 44  1  1
 15 16  1  0
 15 17  1  0
 15 45  1  6
 16 46  1  0
 16 47  1  0
 16 48  1  0
 17 18  1  0
 17 49  1  0
 17 50  1  0
 18 19  1  0
 18 51  1  0
 18 52  1  0
 19 25  1  0
 19 20  1  0
 19 53  1  1
 20 21  1  0
 20 22  1  0
 20 54  1  6
 21 55  1  0
 21 56  1  0
 21 57  1  0
 22 23  2  0
 22 24  1  0
 24 25  1  0
 25 26  1  0
 25 58  1  1
 26 28  1  0
 26 27  1  6
 28 27  1  6
M  END
>  <i_m_ct_stereo_status>  (404) 
1

>  <s_m_source_file>  (404) 
/var/tmp/pbs.5076255.sched01/tmpbrgkg_oh/138myny07gr.sdf

>  <i_m_source_file_index>  (404) 
41

>  <i_lp_mmshare_version>  (404) 
48012

>  <i_f3d_flags>  (404) 
0

>  <s_epik_input>  (404) 
W0NIXTE9W0NIXUMoPU8pW0NIMl1DKD1DMltDSDNdKVtDQEBdMShbQ0gzXSlbQ0BASF0oW0NAXTIoW0NAQF0zNDUpTzUpW0NIMl1bQ0gyXVtDQEBIXTNbQ0BASF0oW0NIM10pW0NIMl1bQ0gyXVtDQEhdNltDQEBIXTRPQyg9TylbQ0BASF02W0NIM10=

>  <s_epik_cmdline>  (404) 
J2VwaWtfcHl0aG9uJywgJy1waHQnLCAnMi4wJywgJy1waCcsICc3LjAnLCAnLXRuJywgJzgnLCAnLW1hJywgJzIwMCcsICctaW1hZScsICc8aW5maWxlLm1hZT4nLCAnLW9tYWUnLCAnPG91dGZpbGUubWFlPic=

>  <r_lp_tautomer_probability>  (404) 
1

>  <r_epik_Ionization_Penalty>  (404) 
2.693e-13

>  <r_epik_Ionization_Penalty_Charging>  (404) 
0

>  <r_epik_Ionization_Penalty_Neutral>  (404) 
2.693e-13

>  <r_epik_State_Penalty>  (404) 
-0

>  <r_epik_Charging_Adjusted_Penalty>  (404) 
0

>  <i_epik_Tot_Q>  (404) 
0

>  <i_epik_Tot_abs_Q>  (404) 
0

>  <s_epik_Chemistry_Notes>  (404) 
This compound has an ester and may undergo hydrolysis at high or low pH.

>  <s_lp_Force_Field>  (404) 
OPLS3e

>  <r_lp_Energy>  (404) 
62.3127

>  <b_lp_Chiralities_Consistent>  (404) 
1

>  <s_lp_Variant>  (404) 
119:0-1

>  <s_i_glide_gridfile>  (404) 
pfpi4k_grid

>  <i_i_glide_lignum>  (404) 
41

>  <i_i_glide_rotatable_bonds>  (404) 
0

>  <r_i_docking_score>  (404) 
-2.58132

>  <r_i_glide_ligand_efficiency>  (404) 
-0.0921902

>  <r_i_glide_ligand_efficiency_sa>  (404) 
-0.279944

>  <r_i_glide_ligand_efficiency_ln>  (404) 
-0.595845

>  <r_i_glide_gscore>  (404) 
-2.58132

>  <r_i_glide_lipo>  (404) 
-0.355014

>  <r_i_glide_hbond>  (404) 
0

>  <r_i_glide_metal>  (404) 
-0

>  <r_i_glide_rewards>  (404) 
-0.801187

>  <r_i_glide_evdw>  (404) 
-28.51

>  <r_i_glide_ecoul>  (404) 
0.0455391

>  <r_i_glide_erotb>  (404) 
0

>  <r_i_glide_esite>  (404) 
-0.00645178

>  <r_i_glide_emodel>  (404) 
-32.9767

>  <r_i_glide_energy>  (404) 
-28.4645

>  <r_i_glide_einternal>  (404) 
0

>  <r_i_glide_intrahb_reward>  (404) 
-0

>  <i_i_glide_confnum>  (404) 
1

>  <i_i_glide_posenum>  (404) 
25

>  <r_i_glide_eff_state_penalty>  (404) 
0

>  <ligand_id>  (404) 
119

>  <original_smiles>  (404) 
CC1=C2CC(=O)C=CC2(C)C2CCC3C(C)CCC4C(C)C(=O)OC4C34OC124

>  <smiles>  (404) 
[H]C1=C([H])C2(C([H])([H])[H])C(=C(C([H])([H])[H])C34OC35C3([H])OC(=O)C([H])(C([H])([H])[H])C3([H])C([H])([H])C([H])([H])C([H])(C([H])([H])[H])C5([H])C([H])([H])C([H])([H])C42[H])C([H])([H])C1=O

$$$$
120:0:0
     RDKit          3D

 62 62  0  0  1  0  0  0  0  0999 V2000
    2.4870    0.8919   -5.4865 C   0  0  0  0  0  0  0  0  0  0  0  0
    3.7157    0.9374   -4.5928 C   0  0  0  0  0  0  0  0  0  0  0  0
    3.6683   -0.0566   -3.4297 C   0  0  0  0  0  0  0  0  0  0  0  0
    3.7634   -1.5309   -3.8717 C   0  0  0  0  0  0  0  0  0  0  0  0
    4.0867   -2.5000   -2.7234 C   0  0  0  0  0  0  0  0  0  0  0  0
    5.5064   -2.3145   -2.1650 C   0  0  0  0  0  0  0  0  0  0  0  0
    5.8424   -3.3030   -1.0621 C   0  0  0  0  0  0  0  0  0  0  0  0
    7.1266   -2.9200   -0.2949 C   0  0  0  0  0  0  0  0  0  0  0  0
    7.5945   -3.9936    0.7061 C   0  0  0  0  0  0  0  0  0  0  0  0
    6.4553   -4.5596    1.5326 C   0  0  0  0  0  0  0  0  0  0  0  0
    6.1133   -5.8532    1.5360 C   0  0  0  0  0  0  0  0  0  0  0  0
    4.9698   -6.4323    2.3355 C   0  0  2  0  0  0  0  0  0  0  0  0
    5.3404   -7.7116    3.0745 C   0  0  0  0  0  0  0  0  0  0  0  0
    4.0844   -8.6058    2.9418 C   0  0  1  0  0  0  0  0  0  0  0  0
    4.3892  -10.0979    2.7410 C   0  0  0  0  0  0  0  0  0  0  0  0
    5.2888  -10.2540    1.6732 O   0  0  0  0  0  0  0  0  0  0  0  0
    3.1489   -8.4076    4.1792 C   0  0  0  0  0  0  0  0  0  0  0  0
    1.9315   -9.1393    4.0428 O   0  0  0  0  0  0  0  0  0  0  0  0
    0.8972   -8.5863    3.3792 C   0  0  0  0  0  0  0  0  0  0  0  0
    0.8780   -7.4324    2.9402 O   0  0  0  0  0  0  0  0  0  0  0  0
   -0.2596   -9.5633    3.1817 C   0  0  0  0  0  0  0  0  0  0  0  0
   -1.4497   -8.9807    2.3947 C   0  0  0  0  0  0  0  0  0  0  0  0
   -2.1411   -7.7925    3.0744 C   0  0  0  0  0  0  0  0  0  0  0  0
    3.4434   -8.0986    1.7740 O   0  0  0  0  0  0  0  0  0  0  0  0
    3.8480   -6.8831    1.4161 C   0  0  0  0  0  0  0  0  0  0  0  0
    3.3933   -6.1962    0.5020 O   0  0  0  0  0  0  0  0  0  0  0  0
    2.5870    1.6258   -6.2832 H   0  0  0  0  0  0  0  0  0  0  0  0
    1.5874    1.1182   -4.9155 H   0  0  0  0  0  0  0  0  0  0  0  0
    2.3739   -0.0923   -5.9281 H   0  0  0  0  0  0  0  0  0  0  0  0
    4.6078    0.7626   -5.1886 H   0  0  0  0  0  0  0  0  0  0  0  0
    3.8127    1.9478   -4.1957 H   0  0  0  0  0  0  0  0  0  0  0  0
    4.4925    0.2145   -2.7732 H   0  0  0  0  0  0  0  0  0  0  0  0
    2.7514    0.0754   -2.8562 H   0  0  0  0  0  0  0  0  0  0  0  0
    2.8067   -1.8286   -4.3113 H   0  0  0  0  0  0  0  0  0  0  0  0
    4.5062   -1.6453   -4.6629 H   0  0  0  0  0  0  0  0  0  0  0  0
    3.3470   -2.3903   -1.9316 H   0  0  0  0  0  0  0  0  0  0  0  0
    3.9823   -3.5221   -3.0874 H   0  0  0  0  0  0  0  0  0  0  0  0
    6.2163   -2.4701   -2.9706 H   0  0  0  0  0  0  0  0  0  0  0  0
    5.6432   -1.3060   -1.7814 H   0  0  0  0  0  0  0  0  0  0  0  0
    5.0022   -3.3536   -0.3710 H   0  0  0  0  0  0  0  0  0  0  0  0
    5.9407   -4.2842   -1.5150 H   0  0  0  0  0  0  0  0  0  0  0  0
    7.9471   -2.7242   -0.9899 H   0  0  0  0  0  0  0  0  0  0  0  0
    6.9538   -1.9851    0.2425 H   0  0  0  0  0  0  0  0  0  0  0  0
    8.0873   -4.8088    0.1694 H   0  0  0  0  0  0  0  0  0  0  0  0
    8.3501   -3.5692    1.3718 H   0  0  0  0  0  0  0  0  0  0  0  0
    5.8939   -3.8590    2.1320 H   0  0  0  0  0  0  0  0  0  0  0  0
    6.6755   -6.5441    0.9256 H   0  0  0  0  0  0  0  0  0  0  0  0
    4.5557   -5.6923    3.0201 H   0  0  0  0  0  0  0  0  0  0  0  0
    6.2218   -8.1566    2.5983 H   0  0  0  0  0  0  0  0  0  0  0  0
    5.6271   -7.5255    4.1117 H   0  0  0  0  0  0  0  0  0  0  0  0
    4.8348  -10.5352    3.6349 H   0  0  0  0  0  0  0  0  0  0  0  0
    3.4938  -10.6762    2.5396 H   0  0  0  0  0  0  0  0  0  0  0  0
    4.9122  -10.9327    1.0951 H   0  0  0  0  0  0  0  0  0  0  0  0
    3.6414   -8.8084    5.0719 H   0  0  0  0  0  0  0  0  0  0  0  0
    2.9535   -7.3518    4.3892 H   0  0  0  0  0  0  0  0  0  0  0  0
    0.1261  -10.4410    2.6556 H   0  0  0  0  0  0  0  0  0  0  0  0
   -0.5855   -9.9152    4.1597 H   0  0  0  0  0  0  0  0  0  0  0  0
   -1.1221   -8.6881    1.4021 H   0  0  0  0  0  0  0  0  0  0  0  0
   -2.1740   -9.7764    2.2506 H   0  0  0  0  0  0  0  0  0  0  0  0
   -2.9767   -7.4531    2.4871 H   0  0  0  0  0  0  0  0  0  0  0  0
   -1.4847   -6.9338    3.1888 H   0  0  0  0  0  0  0  0  0  0  0  0
   -2.4837   -8.0744    4.0650 H   0  0  0  0  0  0  0  0  0  0  0  0
  1  2  1  0
  1 27  1  0
  1 28  1  0
  1 29  1  0
  2  3  1  0
  2 30  1  0
  2 31  1  0
  3  4  1  0
  3 32  1  0
  3 33  1  0
  4  5  1  0
  4 34  1  0
  4 35  1  0
  5  6  1  0
  5 36  1  0
  5 37  1  0
  6  7  1  0
  6 38  1  0
  6 39  1  0
  7  8  1  0
  7 40  1  0
  7 41  1  0
  8  9  1  0
  8 42  1  0
  8 43  1  0
  9 10  1  0
  9 44  1  0
  9 45  1  0
 10 11  2  3
 10 46  1  0
 11 12  1  0
 11 47  1  0
 12 25  1  0
 12 13  1  0
 12 48  1  1
 13 14  1  0
 13 49  1  0
 13 50  1  0
 14 15  1  6
 14 17  1  0
 14 24  1  0
 15 16  1  0
 15 51  1  0
 15 52  1  0
 16 53  1  0
 17 18  1  0
 17 54  1  0
 17 55  1  0
 18 19  1  0
 19 20  2  0
 19 21  1  0
 21 22  1  0
 21 56  1  0
 21 57  1  0
 22 23  1  0
 22 58  1  0
 22 59  1  0
 23 60  1  0
 23 61  1  0
 23 62  1  0
 24 25  1  0
 25 26  2  0
M  END
>  <i_m_ct_stereo_status>  (405) 
1

>  <s_m_source_file>  (405) 
/var/tmp/pbs.5076255.sched01/tmpbrgkg_oh/138myny07gr.sdf

>  <i_m_source_file_index>  (405) 
42

>  <i_lp_mmshare_version>  (405) 
48012

>  <i_f3d_flags>  (405) 
0

>  <s_epik_input>  (405) 
W0NIM11bQ0gyXVtDSDJdW0NIMl1bQ0gyXVtDSDJdW0NIMl1bQ0gyXVtDSDJdL1tDSF09W0NIXS9bQ0BASF0oQyhPMSk9TylbQ0gyXVtDQEBdMShbQ0gyXVtPSF0pW0NIMl1PQyg9TylbQ0gyXVtDSDJdW0NIM10=

>  <s_epik_cmdline>  (405) 
J2VwaWtfcHl0aG9uJywgJy1waHQnLCAnMi4wJywgJy1waCcsICc3LjAnLCAnLXRuJywgJzgnLCAnLW1hJywgJzIwMCcsICctaW1hZScsICc8aW5maWxlLm1hZT4nLCAnLW9tYWUnLCAnPG91dGZpbGUubWFlPic=

>  <r_lp_tautomer_probability>  (405) 
1

>  <r_epik_Ionization_Penalty>  (405) 
2.39611e-07

>  <r_epik_Ionization_Penalty_Charging>  (405) 
0

>  <r_epik_Ionization_Penalty_Neutral>  (405) 
2.39611e-07

>  <r_epik_State_Penalty>  (405) 
-0

>  <r_epik_Charging_Adjusted_Penalty>  (405) 
0

>  <i_epik_Tot_Q>  (405) 
0

>  <i_epik_Tot_abs_Q>  (405) 
0

>  <s_epik_Chemistry_Notes>  (405) 
This compound has an ester and may undergo hydrolysis at high or low pH.

>  <s_lp_Force_Field>  (405) 
OPLS3e

>  <r_lp_Energy>  (405) 
3.83776

>  <b_lp_Chiralities_Consistent>  (405) 
1

>  <s_lp_Variant>  (405) 
120:0-1

>  <s_i_glide_gridfile>  (405) 
pfpi4k_grid

>  <i_i_glide_lignum>  (405) 
42

>  <i_i_glide_rotatable_bonds>  (405) 
16

>  <r_i_docking_score>  (405) 
-2.37187

>  <r_i_glide_ligand_efficiency>  (405) 
-0.0912258

>  <r_i_glide_ligand_efficiency_sa>  (405) 
-0.270256

>  <r_i_glide_ligand_efficiency_ln>  (405) 
-0.557026

>  <r_i_glide_gscore>  (405) 
-2.37187

>  <r_i_glide_lipo>  (405) 
-1.01489

>  <r_i_glide_hbond>  (405) 
0

>  <r_i_glide_metal>  (405) 
-0

>  <r_i_glide_rewards>  (405) 
-0.993065

>  <r_i_glide_evdw>  (405) 
-29.2471

>  <r_i_glide_ecoul>  (405) 
-4.85384

>  <r_i_glide_erotb>  (405) 
1.84479

>  <r_i_glide_esite>  (405) 
-0.0182718

>  <r_i_glide_emodel>  (405) 
-34.5985

>  <r_i_glide_energy>  (405) 
-34.101

>  <r_i_glide_einternal>  (405) 
8.86164

>  <r_i_glide_intrahb_reward>  (405) 
-0

>  <i_i_glide_confnum>  (405) 
19

>  <i_i_glide_posenum>  (405) 
17

>  <r_i_glide_eff_state_penalty>  (405) 
0

>  <ligand_id>  (405) 
120

>  <original_smiles>  (405) 
CCCCCCCCCC=CC1CC(CO)(COC(=O)CCC)OC1=O

>  <smiles>  (405) 
[H]OC([H])([H])C1(C([H])([H])OC(=O)C([H])([H])C([H])([H])C([H])([H])[H])OC(=O)C([H])(C([H])=C([H])C([H])([H])C([H])([H])C([H])([H])C([H])([H])C([H])([H])C([H])([H])C([H])([H])C([H])([H])C([H])([H])[H])C1([H])[H]

$$$$
120:0:1
     RDKit          3D

 62 62  0  0  1  0  0  0  0  0999 V2000
   -2.1128   -7.4645    2.5582 C   0  0  0  0  0  0  0  0  0  0  0  0
   -0.8368   -8.2098    2.2047 C   0  0  0  0  0  0  0  0  0  0  0  0
   -0.8679   -9.6282    2.7697 C   0  0  0  0  0  0  0  0  0  0  0  0
    0.4810  -10.3547    2.7337 C   0  0  0  0  0  0  0  0  0  0  0  0
    1.6394   -9.6200    3.4529 C   0  0  0  0  0  0  0  0  0  0  0  0
    3.0229   -9.9530    2.8681 C   0  0  0  0  0  0  0  0  0  0  0  0
    4.0120   -8.7949    3.0832 C   0  0  0  0  0  0  0  0  0  0  0  0
    5.4534   -9.1667    2.7118 C   0  0  0  0  0  0  0  0  0  0  0  0
    6.4056   -7.9615    2.6744 C   0  0  0  0  0  0  0  0  0  0  0  0
    6.0900   -7.0235    1.5264 C   0  0  0  0  0  0  0  0  0  0  0  0
    5.6847   -5.7542    1.6560 C   0  0  0  0  0  0  0  0  0  0  0  0
    5.3874   -4.8312    0.4836 C   0  0  2  0  0  0  0  0  0  0  0  0
    6.2709   -3.5894    0.4717 C   0  0  0  0  0  0  0  0  0  0  0  0
    5.3595   -2.4456   -0.0324 C   0  0  1  0  0  0  0  0  0  0  0  0
    5.6491   -1.1275    0.7295 C   0  0  0  0  0  0  0  0  0  0  0  0
    6.9994   -0.7532    0.4779 O   0  0  0  0  0  0  0  0  0  0  0  0
    5.4647   -2.2817   -1.5653 C   0  0  0  0  0  0  0  0  0  0  0  0
    4.7040   -1.1715   -2.0273 O   0  0  0  0  0  0  0  0  0  0  0  0
    4.1226   -1.1971   -3.2306 C   0  0  0  0  0  0  0  0  0  0  0  0
    4.1169   -2.1594   -4.0018 O   0  0  0  0  0  0  0  0  0  0  0  0
    3.4630    0.1340   -3.5919 C   0  0  0  0  0  0  0  0  0  0  0  0
    3.4841    0.4161   -5.0990 C   0  0  0  0  0  0  0  0  0  0  0  0
    2.6062    1.5940   -5.5042 C   0  0  0  0  0  0  0  0  0  0  0  0
    4.0571   -2.9255    0.2789 O   0  0  0  0  0  0  0  0  0  0  0  0
    3.9918   -4.2362    0.5652 C   0  0  0  0  0  0  0  0  0  0  0  0
    2.9819   -4.8660    0.8579 O   0  0  0  0  0  0  0  0  0  0  0  0
   -2.0220   -6.4531    2.1650 H   0  0  0  0  0  0  0  0  0  0  0  0
   -2.2665   -7.3866    3.6462 H   0  0  0  0  0  0  0  0  0  0  0  0
   -2.9879   -7.9273    2.0922 H   0  0  0  0  0  0  0  0  0  0  0  0
   -0.7292   -8.2314    1.1224 H   0  0  0  0  0  0  0  0  0  0  0  0
   -0.0166   -7.6262    2.6265 H   0  0  0  0  0  0  0  0  0  0  0  0
   -1.2136   -9.5835    3.7919 H   0  0  0  0  0  0  0  0  0  0  0  0
   -1.5990  -10.2283    2.2232 H   0  0  0  0  0  0  0  0  0  0  0  0
    0.3758  -11.3613    3.1423 H   0  0  0  0  0  0  0  0  0  0  0  0
    0.7040  -10.5138    1.6830 H   0  0  0  0  0  0  0  0  0  0  0  0
    1.4984   -8.5316    3.3695 H   0  0  0  0  0  0  0  0  0  0  0  0
    1.6143   -9.8525    4.5196 H   0  0  0  0  0  0  0  0  0  0  0  0
    3.3954  -10.8899    3.2893 H   0  0  0  0  0  0  0  0  0  0  0  0
    2.9575  -10.1108    1.7899 H   0  0  0  0  0  0  0  0  0  0  0  0
    3.6775   -7.9416    2.4875 H   0  0  0  0  0  0  0  0  0  0  0  0
    3.9845   -8.4558    4.1203 H   0  0  0  0  0  0  0  0  0  0  0  0
    5.8130   -9.8838    3.4475 H   0  0  0  0  0  0  0  0  0  0  0  0
    5.4727   -9.6869    1.7509 H   0  0  0  0  0  0  0  0  0  0  0  0
    6.3775   -7.4203    3.6225 H   0  0  0  0  0  0  0  0  0  0  0  0
    7.4321   -8.3113    2.5556 H   0  0  0  0  0  0  0  0  0  0  0  0
    6.2041   -7.4295    0.5362 H   0  0  0  0  0  0  0  0  0  0  0  0
    5.5554   -5.3421    2.6460 H   0  0  0  0  0  0  0  0  0  0  0  0
    5.4683   -5.3651   -0.4640 H   0  0  0  0  0  0  0  0  0  0  0  0
    6.6320   -3.3876    1.4803 H   0  0  0  0  0  0  0  0  0  0  0  0
    7.1616   -3.7311   -0.1428 H   0  0  0  0  0  0  0  0  0  0  0  0
    4.9883   -0.3123    0.4202 H   0  0  0  0  0  0  0  0  0  0  0  0
    5.5016   -1.2485    1.8091 H   0  0  0  0  0  0  0  0  0  0  0  0
    7.2575   -0.0250    1.0426 H   0  0  0  0  0  0  0  0  0  0  0  0
    6.4879   -2.0590   -1.8485 H   0  0  0  0  0  0  0  0  0  0  0  0
    5.2111   -3.2276   -2.0678 H   0  0  0  0  0  0  0  0  0  0  0  0
    2.4384    0.1350   -3.2186 H   0  0  0  0  0  0  0  0  0  0  0  0
    3.9808    0.9424   -3.0724 H   0  0  0  0  0  0  0  0  0  0  0  0
    4.5057    0.6490   -5.3840 H   0  0  0  0  0  0  0  0  0  0  0  0
    3.1633   -0.4578   -5.6714 H   0  0  0  0  0  0  0  0  0  0  0  0
    2.6118    1.7426   -6.5739 H   0  0  0  0  0  0  0  0  0  0  0  0
    2.9520    2.5257   -5.0475 H   0  0  0  0  0  0  0  0  0  0  0  0
    1.5757    1.4138   -5.1970 H   0  0  0  0  0  0  0  0  0  0  0  0
  1  2  1  0
  1 27  1  0
  1 28  1  0
  1 29  1  0
  2  3  1  0
  2 30  1  0
  2 31  1  0
  3  4  1  0
  3 32  1  0
  3 33  1  0
  4  5  1  0
  4 34  1  0
  4 35  1  0
  5  6  1  0
  5 36  1  0
  5 37  1  0
  6  7  1  0
  6 38  1  0
  6 39  1  0
  7  8  1  0
  7 40  1  0
  7 41  1  0
  8  9  1  0
  8 42  1  0
  8 43  1  0
  9 10  1  0
  9 44  1  0
  9 45  1  0
 10 11  2  3
 10 46  1  0
 11 12  1  0
 11 47  1  0
 12 25  1  0
 12 13  1  0
 12 48  1  6
 13 14  1  0
 13 49  1  0
 13 50  1  0
 14 15  1  1
 14 17  1  0
 14 24  1  0
 15 16  1  0
 15 51  1  0
 15 52  1  0
 16 53  1  0
 17 18  1  0
 17 54  1  0
 17 55  1  0
 18 19  1  0
 19 20  2  0
 19 21  1  0
 21 22  1  0
 21 56  1  0
 21 57  1  0
 22 23  1  0
 22 58  1  0
 22 59  1  0
 23 60  1  0
 23 61  1  0
 23 62  1  0
 24 25  1  0
 25 26  2  0
M  END
>  <i_m_ct_stereo_status>  (406) 
1

>  <s_m_source_file>  (406) 
/var/tmp/pbs.5076255.sched01/tmpbrgkg_oh/138myny07gr.sdf

>  <i_m_source_file_index>  (406) 
42

>  <i_lp_mmshare_version>  (406) 
48012

>  <i_f3d_flags>  (406) 
0

>  <s_epik_input>  (406) 
W0NIM11bQ0gyXVtDSDJdW0NIMl1bQ0gyXVtDSDJdW0NIMl1bQ0gyXVtDSDJdL1tDSF09W0NIXS9bQ0BASF0oQyhPMSk9TylbQ0gyXVtDQEBdMShbQ0gyXVtPSF0pW0NIMl1PQyg9TylbQ0gyXVtDSDJdW0NIM10=

>  <s_epik_cmdline>  (406) 
J2VwaWtfcHl0aG9uJywgJy1waHQnLCAnMi4wJywgJy1waCcsICc3LjAnLCAnLXRuJywgJzgnLCAnLW1hJywgJzIwMCcsICctaW1hZScsICc8aW5maWxlLm1hZT4nLCAnLW9tYWUnLCAnPG91dGZpbGUubWFlPic=

>  <r_lp_tautomer_probability>  (406) 
1

>  <r_epik_Ionization_Penalty>  (406) 
2.39611e-07

>  <r_epik_Ionization_Penalty_Charging>  (406) 
0

>  <r_epik_Ionization_Penalty_Neutral>  (406) 
2.39611e-07

>  <r_epik_State_Penalty>  (406) 
-0

>  <r_epik_Charging_Adjusted_Penalty>  (406) 
0

>  <i_epik_Tot_Q>  (406) 
0

>  <i_epik_Tot_abs_Q>  (406) 
0

>  <s_epik_Chemistry_Notes>  (406) 
This compound has an ester and may undergo hydrolysis at high or low pH.

>  <s_lp_Force_Field>  (406) 
OPLS3e

>  <r_lp_Energy>  (406) 
3.83776

>  <b_lp_Chiralities_Consistent>  (406) 
1

>  <s_lp_Variant>  (406) 
120:0-1

>  <s_i_glide_gridfile>  (406) 
pfpi4k_grid

>  <i_i_glide_lignum>  (406) 
42

>  <i_i_glide_rotatable_bonds>  (406) 
16

>  <r_i_docking_score>  (406) 
-2.29866

>  <r_i_glide_ligand_efficiency>  (406) 
-0.08841

>  <r_i_glide_ligand_efficiency_sa>  (406) 
-0.261914

>  <r_i_glide_ligand_efficiency_ln>  (406) 
-0.539833

>  <r_i_glide_gscore>  (406) 
-2.29866

>  <r_i_glide_lipo>  (406) 
-0.752022

>  <r_i_glide_hbond>  (406) 
-0.215184

>  <r_i_glide_metal>  (406) 
-0

>  <r_i_glide_rewards>  (406) 
-1.07683

>  <r_i_glide_evdw>  (406) 
-25.1016

>  <r_i_glide_ecoul>  (406) 
-5.6289

>  <r_i_glide_erotb>  (406) 
1.84479

>  <r_i_glide_esite>  (406) 
0

>  <r_i_glide_emodel>  (406) 
-30.1421

>  <r_i_glide_energy>  (406) 
-30.7305

>  <r_i_glide_einternal>  (406) 
9.70329

>  <r_i_glide_intrahb_reward>  (406) 
-0

>  <i_i_glide_confnum>  (406) 
18

>  <i_i_glide_posenum>  (406) 
1

>  <r_i_glide_eff_state_penalty>  (406) 
0

>  <ligand_id>  (406) 
120

>  <original_smiles>  (406) 
CCCCCCCCCC=CC1CC(CO)(COC(=O)CCC)OC1=O

>  <smiles>  (406) 
[H]OC([H])([H])C1(C([H])([H])OC(=O)C([H])([H])C([H])([H])C([H])([H])[H])OC(=O)C([H])(C([H])=C([H])C([H])([H])C([H])([H])C([H])([H])C([H])([H])C([H])([H])C([H])([H])C([H])([H])C([H])([H])C([H])([H])[H])C1([H])[H]

$$$$
120:0:2
     RDKit          3D

 62 62  0  0  1  0  0  0  0  0999 V2000
    2.4898    0.8997   -5.3469 C   0  0  0  0  0  0  0  0  0  0  0  0
    3.7505    0.7856   -4.4911 C   0  0  0  0  0  0  0  0  0  0  0  0
    3.6378   -0.2550   -3.3725 C   0  0  0  0  0  0  0  0  0  0  0  0
    3.6883   -1.7069   -3.8818 C   0  0  0  0  0  0  0  0  0  0  0  0
    4.0443   -2.7280   -2.7961 C   0  0  0  0  0  0  0  0  0  0  0  0
    5.4750   -2.5701   -2.2562 C   0  0  0  0  0  0  0  0  0  0  0  0
    5.7929   -3.5540   -1.1317 C   0  0  0  0  0  0  0  0  0  0  0  0
    7.1330   -3.2353   -0.4385 C   0  0  0  0  0  0  0  0  0  0  0  0
    7.5758   -4.2861    0.5953 C   0  0  0  0  0  0  0  0  0  0  0  0
    6.4351   -4.7777    1.4607 C   0  0  0  0  0  0  0  0  0  0  0  0
    6.0332   -6.0643    1.5014 C   0  0  0  0  0  0  0  0  0  0  0  0
    4.8826   -6.5862    2.3349 C   0  0  2  0  0  0  0  0  0  0  0  0
    5.1859   -7.9028    3.0399 C   0  0  0  0  0  0  0  0  0  0  0  0
    3.8663   -8.6961    2.9703 C   0  0  1  0  0  0  0  0  0  0  0  0
    4.0973  -10.2126    2.7547 C   0  0  0  0  0  0  0  0  0  0  0  0
    4.7723  -10.7944    3.8517 O   0  0  0  0  0  0  0  0  0  0  0  0
    2.9793   -8.4089    4.2182 C   0  0  0  0  0  0  0  0  0  0  0  0
    1.7451   -9.1076    4.1797 O   0  0  0  0  0  0  0  0  0  0  0  0
    0.7338   -8.6052    3.4612 C   0  0  0  0  0  0  0  0  0  0  0  0
    0.7717   -7.5307    2.8557 O   0  0  0  0  0  0  0  0  0  0  0  0
   -0.4986   -9.5075    3.4698 C   0  0  0  0  0  0  0  0  0  0  0  0
   -1.6216   -9.0887    2.5158 C   0  0  0  0  0  0  0  0  0  0  0  0
   -2.1909   -7.6975    2.8023 C   0  0  0  0  0  0  0  0  0  0  0  0
    3.2784   -8.1679    1.7875 O   0  0  0  0  0  0  0  0  0  0  0  0
    3.7134   -6.9542    1.4463 C   0  0  0  0  0  0  0  0  0  0  0  0
    3.2609   -6.2236    0.5686 O   0  0  0  0  0  0  0  0  0  0  0  0
    2.6148    1.6659   -6.1109 H   0  0  0  0  0  0  0  0  0  0  0  0
    1.6287    1.1631   -4.7324 H   0  0  0  0  0  0  0  0  0  0  0  0
    2.2731   -0.0439   -5.8384 H   0  0  0  0  0  0  0  0  0  0  0  0
    4.6136    0.5532   -5.1128 H   0  0  0  0  0  0  0  0  0  0  0  0
    3.9613    1.7554   -4.0453 H   0  0  0  0  0  0  0  0  0  0  0  0
    4.4623   -0.0420   -2.6939 H   0  0  0  0  0  0  0  0  0  0  0  0
    2.7175   -0.1052   -2.8030 H   0  0  0  0  0  0  0  0  0  0  0  0
    2.7165   -1.9655   -4.3010 H   0  0  0  0  0  0  0  0  0  0  0  0
    4.3944   -1.7957   -4.7057 H   0  0  0  0  0  0  0  0  0  0  0  0
    3.3209   -2.6666   -1.9842 H   0  0  0  0  0  0  0  0  0  0  0  0
    3.9324   -3.7297   -3.2069 H   0  0  0  0  0  0  0  0  0  0  0  0
    6.1966   -2.7063   -3.0628 H   0  0  0  0  0  0  0  0  0  0  0  0
    5.6241   -1.5633   -1.8672 H   0  0  0  0  0  0  0  0  0  0  0  0
    4.9871   -3.4894   -0.4020 H   0  0  0  0  0  0  0  0  0  0  0  0
    5.7721   -4.5782   -1.5102 H   0  0  0  0  0  0  0  0  0  0  0  0
    7.9231   -3.1257   -1.1839 H   0  0  0  0  0  0  0  0  0  0  0  0
    7.0501   -2.2662    0.0571 H   0  0  0  0  0  0  0  0  0  0  0  0
    8.0211   -5.1365    0.0766 H   0  0  0  0  0  0  0  0  0  0  0  0
    8.3559   -3.8714    1.2382 H   0  0  0  0  0  0  0  0  0  0  0  0
    5.9230   -4.0394    2.0578 H   0  0  0  0  0  0  0  0  0  0  0  0
    6.5466   -6.7823    0.8861 H   0  0  0  0  0  0  0  0  0  0  0  0
    4.5347   -5.8153    3.0229 H   0  0  0  0  0  0  0  0  0  0  0  0
    5.9769   -8.4288    2.5088 H   0  0  0  0  0  0  0  0  0  0  0  0
    5.5419   -7.7402    4.0573 H   0  0  0  0  0  0  0  0  0  0  0  0
    3.1574  -10.7407    2.6053 H   0  0  0  0  0  0  0  0  0  0  0  0
    4.6805  -10.3875    1.8536 H   0  0  0  0  0  0  0  0  0  0  0  0
    4.1631  -10.8761    4.5746 H   0  0  0  0  0  0  0  0  0  0  0  0
    3.4793   -8.7563    5.1226 H   0  0  0  0  0  0  0  0  0  0  0  0
    2.8073   -7.3416    4.3795 H   0  0  0  0  0  0  0  0  0  0  0  0
   -0.2016  -10.5327    3.2498 H   0  0  0  0  0  0  0  0  0  0  0  0
   -0.8794   -9.5010    4.4878 H   0  0  0  0  0  0  0  0  0  0  0  0
   -1.2922   -9.1320    1.4812 H   0  0  0  0  0  0  0  0  0  0  0  0
   -2.4316   -9.8158    2.5853 H   0  0  0  0  0  0  0  0  0  0  0  0
   -2.9893   -7.4966    2.1008 H   0  0  0  0  0  0  0  0  0  0  0  0
   -1.4979   -6.8802    2.6280 H   0  0  0  0  0  0  0  0  0  0  0  0
   -2.5856   -7.6129    3.8133 H   0  0  0  0  0  0  0  0  0  0  0  0
  1  2  1  0
  1 27  1  0
  1 28  1  0
  1 29  1  0
  2  3  1  0
  2 30  1  0
  2 31  1  0
  3  4  1  0
  3 32  1  0
  3 33  1  0
  4  5  1  0
  4 34  1  0
  4 35  1  0
  5  6  1  0
  5 36  1  0
  5 37  1  0
  6  7  1  0
  6 38  1  0
  6 39  1  0
  7  8  1  0
  7 40  1  0
  7 41  1  0
  8  9  1  0
  8 42  1  0
  8 43  1  0
  9 10  1  0
  9 44  1  0
  9 45  1  0
 10 11  2  3
 10 46  1  0
 11 12  1  0
 11 47  1  0
 12 25  1  0
 12 13  1  0
 12 48  1  1
 13 14  1  0
 13 49  1  0
 13 50  1  0
 14 15  1  6
 14 17  1  0
 14 24  1  0
 15 16  1  0
 15 51  1  0
 15 52  1  0
 16 53  1  0
 17 18  1  0
 17 54  1  0
 17 55  1  0
 18 19  1  0
 19 20  2  0
 19 21  1  0
 21 22  1  0
 21 56  1  0
 21 57  1  0
 22 23  1  0
 22 58  1  0
 22 59  1  0
 23 60  1  0
 23 61  1  0
 23 62  1  0
 24 25  1  0
 25 26  2  0
M  END
>  <i_m_ct_stereo_status>  (407) 
1

>  <s_m_source_file>  (407) 
/var/tmp/pbs.5076255.sched01/tmpbrgkg_oh/138myny07gr.sdf

>  <i_m_source_file_index>  (407) 
42

>  <i_lp_mmshare_version>  (407) 
48012

>  <i_f3d_flags>  (407) 
0

>  <s_epik_input>  (407) 
W0NIM11bQ0gyXVtDSDJdW0NIMl1bQ0gyXVtDSDJdW0NIMl1bQ0gyXVtDSDJdL1tDSF09W0NIXS9bQ0BASF0oQyhPMSk9TylbQ0gyXVtDQEBdMShbQ0gyXVtPSF0pW0NIMl1PQyg9TylbQ0gyXVtDSDJdW0NIM10=

>  <s_epik_cmdline>  (407) 
J2VwaWtfcHl0aG9uJywgJy1waHQnLCAnMi4wJywgJy1waCcsICc3LjAnLCAnLXRuJywgJzgnLCAnLW1hJywgJzIwMCcsICctaW1hZScsICc8aW5maWxlLm1hZT4nLCAnLW9tYWUnLCAnPG91dGZpbGUubWFlPic=

>  <r_lp_tautomer_probability>  (407) 
1

>  <r_epik_Ionization_Penalty>  (407) 
2.39611e-07

>  <r_epik_Ionization_Penalty_Charging>  (407) 
0

>  <r_epik_Ionization_Penalty_Neutral>  (407) 
2.39611e-07

>  <r_epik_State_Penalty>  (407) 
-0

>  <r_epik_Charging_Adjusted_Penalty>  (407) 
0

>  <i_epik_Tot_Q>  (407) 
0

>  <i_epik_Tot_abs_Q>  (407) 
0

>  <s_epik_Chemistry_Notes>  (407) 
This compound has an ester and may undergo hydrolysis at high or low pH.

>  <s_lp_Force_Field>  (407) 
OPLS3e

>  <r_lp_Energy>  (407) 
3.83776

>  <b_lp_Chiralities_Consistent>  (407) 
1

>  <s_lp_Variant>  (407) 
120:0-1

>  <s_i_glide_gridfile>  (407) 
pfpi4k_grid

>  <i_i_glide_lignum>  (407) 
42

>  <i_i_glide_rotatable_bonds>  (407) 
16

>  <r_i_docking_score>  (407) 
-1.88454

>  <r_i_glide_ligand_efficiency>  (407) 
-0.0724823

>  <r_i_glide_ligand_efficiency_sa>  (407) 
-0.214729

>  <r_i_glide_ligand_efficiency_ln>  (407) 
-0.442578

>  <r_i_glide_gscore>  (407) 
-1.88454

>  <r_i_glide_lipo>  (407) 
-1.12686

>  <r_i_glide_hbond>  (407) 
0

>  <r_i_glide_metal>  (407) 
-0

>  <r_i_glide_rewards>  (407) 
-0.989671

>  <r_i_glide_evdw>  (407) 
-30.544

>  <r_i_glide_ecoul>  (407) 
-0.427676

>  <r_i_glide_erotb>  (407) 
1.84479

>  <r_i_glide_esite>  (407) 
-0.0214465

>  <r_i_glide_emodel>  (407) 
-31.8055

>  <r_i_glide_energy>  (407) 
-30.9717

>  <r_i_glide_einternal>  (407) 
5.55166

>  <r_i_glide_intrahb_reward>  (407) 
-0

>  <i_i_glide_confnum>  (407) 
19

>  <i_i_glide_posenum>  (407) 
2

>  <r_i_glide_eff_state_penalty>  (407) 
0

>  <ligand_id>  (407) 
120

>  <original_smiles>  (407) 
CCCCCCCCCC=CC1CC(CO)(COC(=O)CCC)OC1=O

>  <smiles>  (407) 
[H]OC([H])([H])C1(C([H])([H])OC(=O)C([H])([H])C([H])([H])C([H])([H])[H])OC(=O)C([H])(C([H])=C([H])C([H])([H])C([H])([H])C([H])([H])C([H])([H])C([H])([H])C([H])([H])C([H])([H])C([H])([H])C([H])([H])[H])C1([H])[H]

$$$$
