1:0:0
     RDKit          3D

 55 58  0  0  1  0  0  0  0  0999 V2000
    5.8021   -6.9311    1.7974 C   0  0  0  0  0  0  0  0  0  0  0  0
    4.5362   -6.5180    1.0151 C   0  0  2  0  0  0  0  0  0  0  0  0
    4.7989   -5.4483   -0.0675 C   0  0  0  0  0  0  0  0  0  0  0  0
    3.8693   -4.2628    0.2466 C   0  0  1  0  0  0  0  0  0  0  0  0
    3.4351   -3.4335   -0.9195 N   0  0  0  0  0  0  0  0  0  0  0  0
    4.4646   -2.5437   -1.5054 C   0  0  0  0  0  0  0  0  0  0  0  0
    3.8199   -1.2989   -2.1301 C   0  0  0  0  0  0  0  0  0  0  0  0
    3.0325   -1.6578   -3.4016 C   0  0  0  0  0  0  0  0  0  0  0  0
    3.8877   -2.3233   -4.3278 O   0  0  0  0  0  0  0  0  0  0  0  0
    4.4213   -3.5474   -3.8234 C   0  0  0  0  0  0  0  0  0  0  0  0
    5.2863   -3.2721   -2.5840 C   0  0  0  0  0  0  0  0  0  0  0  0
    2.7142   -4.8802    1.0274 C   0  0  1  0  0  0  0  0  0  0  0  0
    1.6704   -5.5618    0.0924 C   0  0  0  0  0  0  0  0  0  0  0  0
    0.7533   -6.2619    0.9151 O   0  0  0  0  0  0  0  0  0  0  0  0
    1.3304   -7.3739    1.6170 C   0  0  0  0  0  0  0  0  0  0  0  0
    2.4592   -6.9170    2.5378 C   0  0  0  0  0  0  0  0  0  0  0  0
    2.5756   -7.2989    3.8357 C   0  0  0  0  0  0  0  0  0  0  0  0
    1.7835   -8.2922    4.5985 C   0  0  0  0  0  0  0  0  0  0  0  0
    1.4658   -8.1026    5.9020 N   0  0  0  0  0  0  0  0  0  0  0  0
    0.7338   -9.1770    6.3565 C   0  0  0  0  0  0  0  0  0  0  0  0
    0.6158  -10.0411    5.3080 C   0  0  0  0  0  0  0  0  0  0  0  0
    1.2848   -9.5002    4.2234 N   0  0  0  0  0  0  0  0  0  0  0  0
    1.4284  -10.1648    2.9164 C   0  0  0  0  0  0  0  0  0  0  0  0
    3.4372   -5.9094    1.9158 C   0  0  1  0  0  0  0  0  0  0  0  0
    6.2495   -6.0861    2.3201 H   0  0  0  0  0  0  0  0  0  0  0  0
    6.5652   -7.3471    1.1416 H   0  0  0  0  0  0  0  0  0  0  0  0
    5.5768   -7.6920    2.5409 H   0  0  0  0  0  0  0  0  0  0  0  0
    4.1614   -7.4160    0.5117 H   0  0  0  0  0  0  0  0  0  0  0  0
    5.8370   -5.1230   -0.0689 H   0  0  0  0  0  0  0  0  0  0  0  0
    4.6183   -5.8838   -1.0580 H   0  0  0  0  0  0  0  0  0  0  0  0
    4.3780   -3.6063    0.9617 H   0  0  0  0  0  0  0  0  0  0  0  0
    3.0426   -4.0341   -1.6419 H   0  0  0  0  0  0  0  0  0  0  0  0
    5.1329   -2.1974   -0.7107 H   0  0  0  0  0  0  0  0  0  0  0  0
    3.1799   -0.7800   -1.4185 H   0  0  0  0  0  0  0  0  0  0  0  0
    4.5968   -0.5794   -2.3999 H   0  0  0  0  0  0  0  0  0  0  0  0
    2.1747   -2.2864   -3.1529 H   0  0  0  0  0  0  0  0  0  0  0  0
    2.6324   -0.7608   -3.8723 H   0  0  0  0  0  0  0  0  0  0  0  0
    3.6068   -4.2345   -3.5874 H   0  0  0  0  0  0  0  0  0  0  0  0
    5.0138   -4.0346   -4.5948 H   0  0  0  0  0  0  0  0  0  0  0  0
    6.1390   -2.6535   -2.8725 H   0  0  0  0  0  0  0  0  0  0  0  0
    5.7211   -4.1966   -2.2212 H   0  0  0  0  0  0  0  0  0  0  0  0
    2.1852   -4.1562    1.6474 H   0  0  0  0  0  0  0  0  0  0  0  0
    1.0759   -4.8506   -0.4841 H   0  0  0  0  0  0  0  0  0  0  0  0
    2.1085   -6.2296   -0.6453 H   0  0  0  0  0  0  0  0  0  0  0  0
    0.5578   -7.8226    2.1973 H   0  0  0  0  0  0  0  0  0  0  0  0
    1.7182   -8.0928    0.8831 H   0  0  0  0  0  0  0  0  0  0  0  0
    3.3867   -6.8658    4.4047 H   0  0  0  0  0  0  0  0  0  0  0  0
    0.3696   -9.2612    7.3852 H   0  0  0  0  0  0  0  0  0  0  0  0
    0.1201  -10.9995    5.2821 H   0  0  0  0  0  0  0  0  0  0  0  0
    1.1792  -11.2399    3.0836 H   0  0  0  0  0  0  0  0  0  0  0  0
    2.5128  -10.1151    2.6501 H   0  0  0  0  0  0  0  0  0  0  0  0
    0.7761   -9.7243    2.2128 H   0  0  0  0  0  0  0  0  0  0  0  0
    3.9260   -5.3630    2.7216 H   0  0  0  0  0  0  0  0  0  0  0  0
    2.7052   -2.8218   -0.5776 H   0  0  0  0  0  0  0  0  0  0  0  0
    1.7471   -7.3097    6.4628 H   0  0  0  0  0  0  0  0  0  0  0  0
  1  2  1  0
  1 25  1  0
  1 26  1  0
  1 27  1  0
  2 24  1  0
  2  3  1  0
  2 28  1  6
  3  4  1  0
  3 29  1  0
  3 30  1  0
  4  5  1  0
  4 12  1  0
  4 31  1  1
  5  6  1  0
  5 32  1  0
  5 54  1  0
  6 11  1  0
  6  7  1  0
  6 33  1  0
  7  8  1  0
  7 34  1  0
  7 35  1  0
  8  9  1  0
  8 36  1  0
  8 37  1  0
  9 10  1  0
 10 11  1  0
 10 38  1  0
 10 39  1  0
 11 40  1  0
 11 41  1  0
 12 24  1  0
 12 13  1  0
 12 42  1  1
 13 14  1  0
 13 43  1  0
 13 44  1  0
 14 15  1  0
 15 16  1  0
 15 45  1  0
 15 46  1  0
 16 17  2  3
 16 24  1  0
 17 18  1  0
 17 47  1  0
 18 22  1  0
 18 19  2  0
 19 20  1  0
 19 55  1  0
 20 21  2  0
 20 48  1  0
 21 22  1  0
 21 49  1  0
 22 23  1  0
 23 50  1  0
 23 51  1  0
 23 52  1  0
 24 53  1  1
M  CHG  2   5   1  19   1
M  END
>  <i_m_ct_stereo_status>  (1) 
1

>  <s_m_source_file>  (1) 
/var/tmp/pbs.5076255.sched01/tmpbdos_d33/0hajo06zg.sdf

>  <i_m_source_file_index>  (1) 
2

>  <i_lp_mmshare_version>  (1) 
48012

>  <i_f3d_flags>  (1) 
0

>  <s_epik_input>  (1) 
W0NIM11uMVtjSF1bY0hdbmMxL1tDSF09QyhcW0NIMl1PW0NIMl0yKVtDQEhdKFtDQEhdMjMpW0NASF0oW0NIM10pW0NIMl1bQ0BIXTNbTkhdW0NIXTRbQ0gyXVtDSDJdT1tDSDJdW0NIMl00

>  <s_epik_cmdline>  (1) 
J2VwaWtfcHl0aG9uJywgJy1waHQnLCAnMi4wJywgJy1waCcsICc3LjAnLCAnLXRuJywgJzgnLCAnLW1hJywgJzIwMCcsICctaW1hZScsICc8aW5maWxlLm1hZT4nLCAnLW9tYWUnLCAnPG91dGZpbGUubWFlPic=

>  <r_epik_Ionization_Penalty>  (1) 
0.0233663

>  <r_epik_Ionization_Penalty_Charging>  (1) 
0.00230109

>  <r_epik_Ionization_Penalty_Neutral>  (1) 
0.0210652

>  <r_epik_State_Penalty>  (1) 
0.0184624

>  <r_epik_Charging_Adjusted_Penalty>  (1) 
0.0207635

>  <i_epik_Tot_Q>  (1) 
2

>  <i_epik_Tot_abs_Q>  (1) 
2

>  <s_lp_Force_Field>  (1) 
OPLS3e

>  <r_lp_Energy>  (1) 
36.1184

>  <b_lp_Chiralities_Consistent>  (1) 
1

>  <s_lp_Variant>  (1) 
1:0-1

>  <s_i_glide_gridfile>  (1) 
pfpi4k_grid

>  <i_i_glide_lignum>  (1) 
2

>  <i_i_glide_rotatable_bonds>  (1) 
3

>  <r_i_docking_score>  (1) 
-5.02098

>  <r_i_glide_ligand_efficiency>  (1) 
-0.209208

>  <r_i_glide_ligand_efficiency_sa>  (1) 
-0.603459

>  <r_i_glide_ligand_efficiency_ln>  (1) 
-1.20175

>  <r_i_glide_gscore>  (1) 
-5.02098

>  <r_i_glide_lipo>  (1) 
-0.739454

>  <r_i_glide_hbond>  (1) 
-0.48

>  <r_i_glide_metal>  (1) 
-0

>  <r_i_glide_rewards>  (1) 
-1.13544

>  <r_i_glide_evdw>  (1) 
-23.2923

>  <r_i_glide_ecoul>  (1) 
-13.1129

>  <r_i_glide_erotb>  (1) 
0.508482

>  <r_i_glide_esite>  (1) 
-0.0430278

>  <r_i_glide_emodel>  (1) 
-47.8287

>  <r_i_glide_energy>  (1) 
-36.4051

>  <r_i_glide_einternal>  (1) 
3.54928

>  <r_i_glide_intrahb_reward>  (1) 
-0

>  <i_i_glide_confnum>  (1) 
2

>  <i_i_glide_posenum>  (1) 
16

>  <r_i_glide_eff_state_penalty>  (1) 
0

>  <ligand_id>  (1) 
1

>  <original_smiles>  (1) 
CC1CC(NC2CCOCC2)C2COCC(=Cc3nccn3C)C12

>  <smiles>  (1) 
[H]C(=C1C([H])([H])OC([H])([H])C2([H])C1([H])C([H])(C([H])([H])[H])C([H])([H])C2([H])[N+]([H])([H])C1([H])C([H])([H])C([H])([H])OC([H])([H])C1([H])[H])c1n(C([H])([H])[H])c([H])c([H])[n+]1[H]

$$$$
1:0:1
     RDKit          3D

 55 58  0  0  1  0  0  0  0  0999 V2000
    5.6680   -6.4711    2.1214 C   0  0  0  0  0  0  0  0  0  0  0  0
    4.4376   -6.2235    1.2259 C   0  0  2  0  0  0  0  0  0  0  0  0
    4.6934   -5.1781    0.1173 C   0  0  0  0  0  0  0  0  0  0  0  0
    3.6358   -4.0750    0.3098 C   0  0  1  0  0  0  0  0  0  0  0  0
    3.2392   -3.3460   -0.9253 N   0  0  0  0  0  0  0  0  0  0  0  0
    4.2034   -2.3398   -1.4418 C   0  0  0  0  0  0  0  0  0  0  0  0
    3.4897   -1.2418   -2.2596 C   0  0  0  0  0  0  0  0  0  0  0  0
    2.9678   -1.7889   -3.5956 C   0  0  0  0  0  0  0  0  0  0  0  0
    4.0483   -2.3554   -4.3212 O   0  0  0  0  0  0  0  0  0  0  0  0
    4.6634   -3.4534   -3.6620 C   0  0  0  0  0  0  0  0  0  0  0  0
    5.2824   -2.9761   -2.3409 C   0  0  0  0  0  0  0  0  0  0  0  0
    2.4666   -4.7829    1.0152 C   0  0  1  0  0  0  0  0  0  0  0  0
    1.5757   -5.6210    0.0774 C   0  0  0  0  0  0  0  0  0  0  0  0
    0.6784   -6.4076    0.8461 O   0  0  0  0  0  0  0  0  0  0  0  0
    1.3491   -7.4118    1.6104 C   0  0  0  0  0  0  0  0  0  0  0  0
    2.3149   -6.7871    2.6188 C   0  0  0  0  0  0  0  0  0  0  0  0
    2.3570   -7.0453    3.9479 C   0  0  0  0  0  0  0  0  0  0  0  0
    1.6213   -8.0520    4.7582 C   0  0  0  0  0  0  0  0  0  0  0  0
    0.9864   -9.1322    4.2958 N   0  0  0  0  0  0  0  0  0  0  0  0
    0.4137   -9.8112    5.3408 C   0  0  0  0  0  0  0  0  0  0  0  0
    0.6942   -9.1063    6.4790 C   0  0  0  0  0  0  0  0  0  0  0  0
    1.4397   -8.0119    6.0866 N   0  0  0  0  0  0  0  0  0  0  0  0
    1.9631   -6.9818    6.9767 C   0  0  0  0  0  0  0  0  0  0  0  0
    3.2085   -5.7011    2.0068 C   0  0  1  0  0  0  0  0  0  0  0  0
    5.9944   -5.5655    2.6330 H   0  0  0  0  0  0  0  0  0  0  0  0
    6.5165   -6.8415    1.5452 H   0  0  0  0  0  0  0  0  0  0  0  0
    5.4545   -7.2180    2.8848 H   0  0  0  0  0  0  0  0  0  0  0  0
    4.1893   -7.1684    0.7329 H   0  0  0  0  0  0  0  0  0  0  0  0
    5.6968   -4.7631    0.1938 H   0  0  0  0  0  0  0  0  0  0  0  0
    4.6280   -5.6536   -0.8675 H   0  0  0  0  0  0  0  0  0  0  0  0
    4.0369   -3.3475    1.0221 H   0  0  0  0  0  0  0  0  0  0  0  0
    3.0088   -4.0148   -1.6514 H   0  0  0  0  0  0  0  0  0  0  0  0
    4.6798   -1.8336   -0.6016 H   0  0  0  0  0  0  0  0  0  0  0  0
    2.6758   -0.7778   -1.7014 H   0  0  0  0  0  0  0  0  0  0  0  0
    4.1907   -0.4269   -2.4638 H   0  0  0  0  0  0  0  0  0  0  0  0
    2.1817   -2.5241   -3.4283 H   0  0  0  0  0  0  0  0  0  0  0  0
    2.5321   -0.9855   -4.1912 H   0  0  0  0  0  0  0  0  0  0  0  0
    3.9398   -4.2499   -3.4969 H   0  0  0  0  0  0  0  0  0  0  0  0
    5.4351   -3.8681   -4.3073 H   0  0  0  0  0  0  0  0  0  0  0  0
    6.0576   -2.2385   -2.5510 H   0  0  0  0  0  0  0  0  0  0  0  0
    5.8157   -3.7939   -1.8595 H   0  0  0  0  0  0  0  0  0  0  0  0
    1.8444   -4.0690    1.5616 H   0  0  0  0  0  0  0  0  0  0  0  0
    1.0240   -4.9996   -0.6170 H   0  0  0  0  0  0  0  0  0  0  0  0
    2.1700   -6.2398   -0.5712 H   0  0  0  0  0  0  0  0  0  0  0  0
    0.5907   -8.0176    2.0966 H   0  0  0  0  0  0  0  0  0  0  0  0
    1.9003   -8.0779    0.9453 H   0  0  0  0  0  0  0  0  0  0  0  0
    3.0877   -6.4856    4.5102 H   0  0  0  0  0  0  0  0  0  0  0  0
   -0.1457  -10.7196    5.2192 H   0  0  0  0  0  0  0  0  0  0  0  0
    0.4214   -9.3281    7.4996 H   0  0  0  0  0  0  0  0  0  0  0  0
    1.5453   -7.1418    7.9706 H   0  0  0  0  0  0  0  0  0  0  0  0
    1.6680   -5.9936    6.6140 H   0  0  0  0  0  0  0  0  0  0  0  0
    3.0518   -7.0721    7.0206 H   0  0  0  0  0  0  0  0  0  0  0  0
    3.5791   -5.0692    2.8183 H   0  0  0  0  0  0  0  0  0  0  0  0
    2.4079   -2.8161   -0.6983 H   0  0  0  0  0  0  0  0  0  0  0  0
    0.9527   -9.4211    3.3304 H   0  0  0  0  0  0  0  0  0  0  0  0
  1  2  1  0
  1 25  1  0
  1 26  1  0
  1 27  1  0
  2 24  1  0
  2  3  1  0
  2 28  1  6
  3  4  1  0
  3 29  1  0
  3 30  1  0
  4  5  1  0
  4 12  1  0
  4 31  1  1
  5  6  1  0
  5 32  1  0
  5 54  1  0
  6 11  1  0
  6  7  1  0
  6 33  1  0
  7  8  1  0
  7 34  1  0
  7 35  1  0
  8  9  1  0
  8 36  1  0
  8 37  1  0
  9 10  1  0
 10 11  1  0
 10 38  1  0
 10 39  1  0
 11 40  1  0
 11 41  1  0
 12 24  1  0
 12 13  1  0
 12 42  1  1
 13 14  1  0
 13 43  1  0
 13 44  1  0
 14 15  1  0
 15 16  1  0
 15 45  1  0
 15 46  1  0
 16 17  2  3
 16 24  1  0
 17 18  1  0
 17 47  1  0
 18 22  1  0
 18 19  2  0
 19 20  1  0
 19 55  1  0
 20 21  2  0
 20 48  1  0
 21 22  1  0
 21 49  1  0
 22 23  1  0
 23 50  1  0
 23 51  1  0
 23 52  1  0
 24 53  1  1
M  CHG  2   5   1  19   1
M  END
>  <i_m_ct_stereo_status>  (2) 
1

>  <s_m_source_file>  (2) 
/var/tmp/pbs.5076255.sched01/tmpbdos_d33/0hajo06zg.sdf

>  <i_m_source_file_index>  (2) 
2

>  <i_lp_mmshare_version>  (2) 
48012

>  <i_f3d_flags>  (2) 
0

>  <s_epik_input>  (2) 
W0NIM11uMVtjSF1bY0hdbmMxL1tDSF09QyhcW0NIMl1PW0NIMl0yKVtDQEhdKFtDQEhdMjMpW0NASF0oW0NIM10pW0NIMl1bQ0BIXTNbTkhdW0NIXTRbQ0gyXVtDSDJdT1tDSDJdW0NIMl00

>  <s_epik_cmdline>  (2) 
J2VwaWtfcHl0aG9uJywgJy1waHQnLCAnMi4wJywgJy1waCcsICc3LjAnLCAnLXRuJywgJzgnLCAnLW1hJywgJzIwMCcsICctaW1hZScsICc8aW5maWxlLm1hZT4nLCAnLW9tYWUnLCAnPG91dGZpbGUubWFlPic=

>  <r_epik_Ionization_Penalty>  (2) 
0.0233663

>  <r_epik_Ionization_Penalty_Charging>  (2) 
0.00230109

>  <r_epik_Ionization_Penalty_Neutral>  (2) 
0.0210652

>  <r_epik_State_Penalty>  (2) 
0.0184624

>  <r_epik_Charging_Adjusted_Penalty>  (2) 
0.0207635

>  <i_epik_Tot_Q>  (2) 
2

>  <i_epik_Tot_abs_Q>  (2) 
2

>  <s_lp_Force_Field>  (2) 
OPLS3e

>  <r_lp_Energy>  (2) 
36.1184

>  <b_lp_Chiralities_Consistent>  (2) 
1

>  <s_lp_Variant>  (2) 
1:0-1

>  <s_i_glide_gridfile>  (2) 
pfpi4k_grid

>  <i_i_glide_lignum>  (2) 
2

>  <i_i_glide_rotatable_bonds>  (2) 
3

>  <r_i_docking_score>  (2) 
-4.84016

>  <r_i_glide_ligand_efficiency>  (2) 
-0.201673

>  <r_i_glide_ligand_efficiency_sa>  (2) 
-0.581727

>  <r_i_glide_ligand_efficiency_ln>  (2) 
-1.15847

>  <r_i_glide_gscore>  (2) 
-4.84016

>  <r_i_glide_lipo>  (2) 
-0.718068

>  <r_i_glide_hbond>  (2) 
-0.48

>  <r_i_glide_metal>  (2) 
-0

>  <r_i_glide_rewards>  (2) 
-1.13544

>  <r_i_glide_evdw>  (2) 
-20.5642

>  <r_i_glide_ecoul>  (2) 
-12.9241

>  <r_i_glide_erotb>  (2) 
0.508482

>  <r_i_glide_esite>  (2) 
-0.0483002

>  <r_i_glide_emodel>  (2) 
-46.3067

>  <r_i_glide_energy>  (2) 
-33.4883

>  <r_i_glide_einternal>  (2) 
1.05404

>  <r_i_glide_intrahb_reward>  (2) 
-0

>  <i_i_glide_confnum>  (2) 
4

>  <i_i_glide_posenum>  (2) 
23

>  <r_i_glide_eff_state_penalty>  (2) 
0

>  <ligand_id>  (2) 
1

>  <original_smiles>  (2) 
CC1CC(NC2CCOCC2)C2COCC(=Cc3nccn3C)C12

>  <smiles>  (2) 
[H]C(=C1C([H])([H])OC([H])([H])C2([H])C1([H])C([H])(C([H])([H])[H])C([H])([H])C2([H])[N+]([H])([H])C1([H])C([H])([H])C([H])([H])OC([H])([H])C1([H])[H])c1n(C([H])([H])[H])c([H])c([H])[n+]1[H]

$$$$
1:0:2
     RDKit          3D

 55 58  0  0  1  0  0  0  0  0999 V2000
    5.9320   -6.9666    1.6790 C   0  0  0  0  0  0  0  0  0  0  0  0
    4.6398   -6.5508    0.9540 C   0  0  2  0  0  0  0  0  0  0  0  0
    4.8707   -5.4645   -0.1212 C   0  0  0  0  0  0  0  0  0  0  0  0
    3.9584   -4.2799    0.2539 C   0  0  1  0  0  0  0  0  0  0  0  0
    3.5011   -3.4438   -0.8891 N   0  0  0  0  0  0  0  0  0  0  0  0
    4.5121   -2.5474   -1.5149 C   0  0  0  0  0  0  0  0  0  0  0  0
    3.8434   -1.3041   -2.1383 C   0  0  0  0  0  0  0  0  0  0  0  0
    3.0394   -1.6759   -3.3941 C   0  0  0  0  0  0  0  0  0  0  0  0
    3.8900   -2.3375   -4.3219 O   0  0  0  0  0  0  0  0  0  0  0  0
    4.4367   -3.5556   -3.8315 C   0  0  0  0  0  0  0  0  0  0  0  0
    5.3235   -3.2650   -2.6112 C   0  0  0  0  0  0  0  0  0  0  0  0
    2.8111   -4.9215    1.0586 C   0  0  1  0  0  0  0  0  0  0  0  0
    1.7401   -5.6099    0.1822 C   0  0  0  0  0  0  0  0  0  0  0  0
    0.8575   -6.3605    1.0017 O   0  0  0  0  0  0  0  0  0  0  0  0
    1.5103   -7.4621    1.6313 C   0  0  0  0  0  0  0  0  0  0  0  0
    2.6381   -6.9951    2.5527 C   0  0  0  0  0  0  0  0  0  0  0  0
    2.8193   -7.3667    3.8463 C   0  0  0  0  0  0  0  0  0  0  0  0
    2.0646   -8.3324    4.6918 C   0  0  0  0  0  0  0  0  0  0  0  0
    1.0870   -9.1503    4.2860 N   0  0  0  0  0  0  0  0  0  0  0  0
    0.6236   -9.8844    5.3477 C   0  0  0  0  0  0  0  0  0  0  0  0
    1.3527   -9.5015    6.4439 C   0  0  0  0  0  0  0  0  0  0  0  0
    2.2327   -8.5302    6.0140 N   0  0  0  0  0  0  0  0  0  0  0  0
    3.2105   -7.8395    6.8492 C   0  0  0  0  0  0  0  0  0  0  0  0
    3.5648   -5.9658    1.9050 C   0  0  1  0  0  0  0  0  0  0  0  0
    6.4022   -6.1301    2.1952 H   0  0  0  0  0  0  0  0  0  0  0  0
    6.6694   -7.3744    0.9885 H   0  0  0  0  0  0  0  0  0  0  0  0
    5.7324   -7.7390    2.4207 H   0  0  0  0  0  0  0  0  0  0  0  0
    4.2410   -7.4285    0.4445 H   0  0  0  0  0  0  0  0  0  0  0  0
    5.9098   -5.1431   -0.1505 H   0  0  0  0  0  0  0  0  0  0  0  0
    4.6400   -5.8676   -1.1084 H   0  0  0  0  0  0  0  0  0  0  0  0
    4.5083   -3.6408    0.9439 H   0  0  0  0  0  0  0  0  0  0  0  0
    3.0818   -4.0408   -1.5912 H   0  0  0  0  0  0  0  0  0  0  0  0
    5.1866   -2.1845   -0.7397 H   0  0  0  0  0  0  0  0  0  0  0  0
    3.2137   -0.7842   -1.4148 H   0  0  0  0  0  0  0  0  0  0  0  0
    4.6167   -0.5912   -2.4215 H   0  0  0  0  0  0  0  0  0  0  0  0
    2.1884   -2.3057   -3.1324 H   0  0  0  0  0  0  0  0  0  0  0  0
    2.6337   -0.7789   -3.8633 H   0  0  0  0  0  0  0  0  0  0  0  0
    3.6349   -4.2476   -3.5780 H   0  0  0  0  0  0  0  0  0  0  0  0
    5.0229   -4.0421   -4.6102 H   0  0  0  0  0  0  0  0  0  0  0  0
    6.1574   -2.6353   -2.9132 H   0  0  0  0  0  0  0  0  0  0  0  0
    5.7892   -4.1847   -2.2623 H   0  0  0  0  0  0  0  0  0  0  0  0
    2.3171   -4.1849    1.6983 H   0  0  0  0  0  0  0  0  0  0  0  0
    1.1603   -4.8867   -0.3881 H   0  0  0  0  0  0  0  0  0  0  0  0
    2.1696   -6.2503   -0.5713 H   0  0  0  0  0  0  0  0  0  0  0  0
    0.7375   -8.0174    2.1453 H   0  0  0  0  0  0  0  0  0  0  0  0
    1.9255   -8.1409    0.8792 H   0  0  0  0  0  0  0  0  0  0  0  0
    3.6626   -6.9120    4.3430 H   0  0  0  0  0  0  0  0  0  0  0  0
   -0.1566  -10.6332    5.2570 H   0  0  0  0  0  0  0  0  0  0  0  0
    1.3055   -9.8921    7.4549 H   0  0  0  0  0  0  0  0  0  0  0  0
    3.0233   -8.1218    7.8888 H   0  0  0  0  0  0  0  0  0  0  0  0
    3.0911   -6.7606    6.7386 H   0  0  0  0  0  0  0  0  0  0  0  0
    4.2121   -8.1585    6.5569 H   0  0  0  0  0  0  0  0  0  0  0  0
    4.0853   -5.4207    2.6939 H   0  0  0  0  0  0  0  0  0  0  0  0
    2.7815   -2.8362   -0.5219 H   0  0  0  0  0  0  0  0  0  0  0  0
    0.7562   -9.2355    3.3367 H   0  0  0  0  0  0  0  0  0  0  0  0
  1  2  1  0
  1 25  1  0
  1 26  1  0
  1 27  1  0
  2 24  1  0
  2  3  1  0
  2 28  1  6
  3  4  1  0
  3 29  1  0
  3 30  1  0
  4  5  1  0
  4 12  1  0
  4 31  1  1
  5  6  1  0
  5 32  1  0
  5 54  1  0
  6 11  1  0
  6  7  1  0
  6 33  1  0
  7  8  1  0
  7 34  1  0
  7 35  1  0
  8  9  1  0
  8 36  1  0
  8 37  1  0
  9 10  1  0
 10 11  1  0
 10 38  1  0
 10 39  1  0
 11 40  1  0
 11 41  1  0
 12 24  1  0
 12 13  1  0
 12 42  1  1
 13 14  1  0
 13 43  1  0
 13 44  1  0
 14 15  1  0
 15 16  1  0
 15 45  1  0
 15 46  1  0
 16 17  2  3
 16 24  1  0
 17 18  1  0
 17 47  1  0
 18 22  1  0
 18 19  2  0
 19 20  1  0
 19 55  1  0
 20 21  2  0
 20 48  1  0
 21 22  1  0
 21 49  1  0
 22 23  1  0
 23 50  1  0
 23 51  1  0
 23 52  1  0
 24 53  1  1
M  CHG  2   5   1  19   1
M  END
>  <i_m_ct_stereo_status>  (3) 
1

>  <s_m_source_file>  (3) 
/var/tmp/pbs.5076255.sched01/tmpbdos_d33/0hajo06zg.sdf

>  <i_m_source_file_index>  (3) 
2

>  <i_lp_mmshare_version>  (3) 
48012

>  <i_f3d_flags>  (3) 
0

>  <s_epik_input>  (3) 
W0NIM11uMVtjSF1bY0hdbmMxL1tDSF09QyhcW0NIMl1PW0NIMl0yKVtDQEhdKFtDQEhdMjMpW0NASF0oW0NIM10pW0NIMl1bQ0BIXTNbTkhdW0NIXTRbQ0gyXVtDSDJdT1tDSDJdW0NIMl00

>  <s_epik_cmdline>  (3) 
J2VwaWtfcHl0aG9uJywgJy1waHQnLCAnMi4wJywgJy1waCcsICc3LjAnLCAnLXRuJywgJzgnLCAnLW1hJywgJzIwMCcsICctaW1hZScsICc8aW5maWxlLm1hZT4nLCAnLW9tYWUnLCAnPG91dGZpbGUubWFlPic=

>  <r_epik_Ionization_Penalty>  (3) 
0.0233663

>  <r_epik_Ionization_Penalty_Charging>  (3) 
0.00230109

>  <r_epik_Ionization_Penalty_Neutral>  (3) 
0.0210652

>  <r_epik_State_Penalty>  (3) 
0.0184624

>  <r_epik_Charging_Adjusted_Penalty>  (3) 
0.0207635

>  <i_epik_Tot_Q>  (3) 
2

>  <i_epik_Tot_abs_Q>  (3) 
2

>  <s_lp_Force_Field>  (3) 
OPLS3e

>  <r_lp_Energy>  (3) 
36.1184

>  <b_lp_Chiralities_Consistent>  (3) 
1

>  <s_lp_Variant>  (3) 
1:0-1

>  <s_i_glide_gridfile>  (3) 
pfpi4k_grid

>  <i_i_glide_lignum>  (3) 
2

>  <i_i_glide_rotatable_bonds>  (3) 
3

>  <r_i_docking_score>  (3) 
-4.80372

>  <r_i_glide_ligand_efficiency>  (3) 
-0.200155

>  <r_i_glide_ligand_efficiency_sa>  (3) 
-0.577347

>  <r_i_glide_ligand_efficiency_ln>  (3) 
-1.14975

>  <r_i_glide_gscore>  (3) 
-4.80372

>  <r_i_glide_lipo>  (3) 
-0.648457

>  <r_i_glide_hbond>  (3) 
-0.48

>  <r_i_glide_metal>  (3) 
-0

>  <r_i_glide_rewards>  (3) 
-1.13544

>  <r_i_glide_evdw>  (3) 
-21.1719

>  <r_i_glide_ecoul>  (3) 
-12.9669

>  <r_i_glide_erotb>  (3) 
0.508482

>  <r_i_glide_esite>  (3) 
-0.0446786

>  <r_i_glide_emodel>  (3) 
-47.2744

>  <r_i_glide_energy>  (3) 
-34.1387

>  <r_i_glide_einternal>  (3) 
0.273337

>  <r_i_glide_intrahb_reward>  (3) 
-0

>  <i_i_glide_confnum>  (3) 
2

>  <i_i_glide_posenum>  (3) 
1

>  <r_i_glide_eff_state_penalty>  (3) 
0

>  <ligand_id>  (3) 
1

>  <original_smiles>  (3) 
CC1CC(NC2CCOCC2)C2COCC(=Cc3nccn3C)C12

>  <smiles>  (3) 
[H]C(=C1C([H])([H])OC([H])([H])C2([H])C1([H])C([H])(C([H])([H])[H])C([H])([H])C2([H])[N+]([H])([H])C1([H])C([H])([H])C([H])([H])OC([H])([H])C1([H])[H])c1n(C([H])([H])[H])c([H])c([H])[n+]1[H]

$$$$
1:1:0
     RDKit          3D

 55 58  0  0  1  0  0  0  0  0999 V2000
    2.0307   -5.9508    3.7252 C   0  0  0  0  0  0  0  0  0  0  0  0
    3.2262   -5.7584    2.7732 C   0  0  2  0  0  0  0  0  0  0  0  0
    3.0365   -4.5978    1.7644 C   0  0  0  0  0  0  0  0  0  0  0  0
    3.2660   -5.1993    0.3652 C   0  0  1  0  0  0  0  0  0  0  0  0
    3.8006   -4.2626   -0.6571 N   0  0  0  0  0  0  0  0  0  0  0  0
    2.9683   -3.0908   -1.0172 C   0  0  0  0  0  0  0  0  0  0  0  0
    2.1986   -3.3455   -2.3262 C   0  0  0  0  0  0  0  0  0  0  0  0
    3.1409   -3.3659   -3.5464 C   0  0  0  0  0  0  0  0  0  0  0  0
    3.8961   -2.1613   -3.6133 O   0  0  0  0  0  0  0  0  0  0  0  0
    4.7152   -1.9475   -2.4687 C   0  0  0  0  0  0  0  0  0  0  0  0
    3.8490   -1.8455   -1.1997 C   0  0  0  0  0  0  0  0  0  0  0  0
    4.1535   -6.4356    0.6174 C   0  0  1  0  0  0  0  0  0  0  0  0
    5.6552   -6.1230    0.8053 C   0  0  0  0  0  0  0  0  0  0  0  0
    6.3313   -7.2800    1.2790 O   0  0  0  0  0  0  0  0  0  0  0  0
    5.8997   -7.6856    2.5733 C   0  0  0  0  0  0  0  0  0  0  0  0
    4.4248   -8.0661    2.5681 C   0  0  0  0  0  0  0  0  0  0  0  0
    4.0337   -9.2710    3.0594 C   0  0  0  0  0  0  0  0  0  0  0  0
    2.6934   -9.9057    3.1296 C   0  0  0  0  0  0  0  0  0  0  0  0
    1.5858   -9.4754    2.5151 N   0  0  0  0  0  0  0  0  0  0  0  0
    0.5282  -10.2805    2.8477 C   0  0  0  0  0  0  0  0  0  0  0  0
    1.0128  -11.2408    3.7005 C   0  0  0  0  0  0  0  0  0  0  0  0
    2.3563  -10.9859    3.8582 N   0  0  0  0  0  0  0  0  0  0  0  0
    3.2743  -11.7604    4.6970 C   0  0  0  0  0  0  0  0  0  0  0  0
    3.5328   -7.0037    1.9072 C   0  0  1  0  0  0  0  0  0  0  0  0
    1.1130   -6.1985    3.1935 H   0  0  0  0  0  0  0  0  0  0  0  0
    1.8402   -5.0466    4.3032 H   0  0  0  0  0  0  0  0  0  0  0  0
    2.2203   -6.7501    4.4418 H   0  0  0  0  0  0  0  0  0  0  0  0
    4.0983   -5.5185    3.3844 H   0  0  0  0  0  0  0  0  0  0  0  0
    2.0408   -4.1615    1.8303 H   0  0  0  0  0  0  0  0  0  0  0  0
    3.7435   -3.7936    1.9806 H   0  0  0  0  0  0  0  0  0  0  0  0
    2.3073   -5.5562   -0.0125 H   0  0  0  0  0  0  0  0  0  0  0  0
    4.7167   -3.9513   -0.3771 H   0  0  0  0  0  0  0  0  0  0  0  0
    2.2527   -2.8790   -0.2218 H   0  0  0  0  0  0  0  0  0  0  0  0
    1.6080   -4.2547   -2.2660 H   0  0  0  0  0  0  0  0  0  0  0  0
    1.4666   -2.5519   -2.4736 H   0  0  0  0  0  0  0  0  0  0  0  0
    3.8213   -4.2162   -3.5097 H   0  0  0  0  0  0  0  0  0  0  0  0
    2.5565   -3.4640   -4.4604 H   0  0  0  0  0  0  0  0  0  0  0  0
    5.4438   -2.7529   -2.3775 H   0  0  0  0  0  0  0  0  0  0  0  0
    5.2777   -1.0248   -2.6035 H   0  0  0  0  0  0  0  0  0  0  0  0
    3.2003   -0.9708   -1.2826 H   0  0  0  0  0  0  0  0  0  0  0  0
    4.4695   -1.6759   -0.3171 H   0  0  0  0  0  0  0  0  0  0  0  0
    4.0723   -7.1579   -0.1957 H   0  0  0  0  0  0  0  0  0  0  0  0
    6.0970   -5.8468   -0.1525 H   0  0  0  0  0  0  0  0  0  0  0  0
    5.8311   -5.2869    1.4860 H   0  0  0  0  0  0  0  0  0  0  0  0
    6.5166   -8.5247    2.9009 H   0  0  0  0  0  0  0  0  0  0  0  0
    6.0737   -6.8753    3.2828 H   0  0  0  0  0  0  0  0  0  0  0  0
    4.8234   -9.8970    3.4444 H   0  0  0  0  0  0  0  0  0  0  0  0
   -0.4681  -10.1236    2.4591 H   0  0  0  0  0  0  0  0  0  0  0  0
    0.5060  -12.0612    4.1950 H   0  0  0  0  0  0  0  0  0  0  0  0
    2.7369  -12.6300    5.0868 H   0  0  0  0  0  0  0  0  0  0  0  0
    3.6042  -11.1368    5.5307 H   0  0  0  0  0  0  0  0  0  0  0  0
    4.1236  -12.0984    4.0985 H   0  0  0  0  0  0  0  0  0  0  0  0
    2.5850   -7.4307    1.6051 H   0  0  0  0  0  0  0  0  0  0  0  0
    3.8865   -4.8152   -1.5033 H   0  0  0  0  0  0  0  0  0  0  0  0
    1.5483   -8.6889    1.8867 H   0  0  0  0  0  0  0  0  0  0  0  0
  1  2  1  0
  1 25  1  0
  1 26  1  0
  1 27  1  0
  2 24  1  0
  2  3  1  0
  2 28  1  1
  3  4  1  0
  3 29  1  0
  3 30  1  0
  4  5  1  0
  4 12  1  0
  4 31  1  6
  5  6  1  0
  5 32  1  0
  5 54  1  0
  6 11  1  0
  6  7  1  0
  6 33  1  0
  7  8  1  0
  7 34  1  0
  7 35  1  0
  8  9  1  0
  8 36  1  0
  8 37  1  0
  9 10  1  0
 10 11  1  0
 10 38  1  0
 10 39  1  0
 11 40  1  0
 11 41  1  0
 12 24  1  0
 12 13  1  0
 12 42  1  6
 13 14  1  0
 13 43  1  0
 13 44  1  0
 14 15  1  0
 15 16  1  0
 15 45  1  0
 15 46  1  0
 16 17  2  3
 16 24  1  0
 17 18  1  0
 17 47  1  0
 18 22  1  0
 18 19  2  0
 19 20  1  0
 19 55  1  0
 20 21  2  0
 20 48  1  0
 21 22  1  0
 21 49  1  0
 22 23  1  0
 23 50  1  0
 23 51  1  0
 23 52  1  0
 24 53  1  6
M  CHG  2   5   1  19   1
M  END
>  <i_m_ct_stereo_status>  (4) 
1

>  <s_m_source_file>  (4) 
/var/tmp/pbs.5076255.sched01/tmpbdos_d33/0hajo06zg.sdf

>  <i_m_source_file_index>  (4) 
3

>  <i_lp_mmshare_version>  (4) 
48012

>  <i_f3d_flags>  (4) 
0

>  <s_epik_input>  (4) 
W0NIM11uMVtjSF1bY0hdbmMxL1tDSF09QyhcW0NIMl1PW0NIMl0yKVtDQEhdKFtDQEhdMjMpW0NASF0oW0NIM10pW0NIMl1bQ0BIXTNbTkhdW0NIXTRbQ0gyXVtDSDJdT1tDSDJdW0NIMl00

>  <s_epik_cmdline>  (4) 
J2VwaWtfcHl0aG9uJywgJy1waHQnLCAnMi4wJywgJy1waCcsICc3LjAnLCAnLXRuJywgJzgnLCAnLW1hJywgJzIwMCcsICctaW1hZScsICc8aW5maWxlLm1hZT4nLCAnLW9tYWUnLCAnPG91dGZpbGUubWFlPic=

>  <r_epik_Ionization_Penalty>  (4) 
0.0233663

>  <r_epik_Ionization_Penalty_Charging>  (4) 
0.00230109

>  <r_epik_Ionization_Penalty_Neutral>  (4) 
0.0210652

>  <r_epik_State_Penalty>  (4) 
0.0184624

>  <r_epik_Charging_Adjusted_Penalty>  (4) 
0.0207635

>  <i_epik_Tot_Q>  (4) 
2

>  <i_epik_Tot_abs_Q>  (4) 
2

>  <s_lp_Force_Field>  (4) 
OPLS3e

>  <r_lp_Energy>  (4) 
36.5301

>  <b_lp_Chiralities_Consistent>  (4) 
1

>  <s_lp_Variant>  (4) 
1:0-2

>  <s_i_glide_gridfile>  (4) 
pfpi4k_grid

>  <i_i_glide_lignum>  (4) 
3

>  <i_i_glide_rotatable_bonds>  (4) 
3

>  <r_i_docking_score>  (4) 
-4.38191

>  <r_i_glide_ligand_efficiency>  (4) 
-0.18258

>  <r_i_glide_ligand_efficiency_sa>  (4) 
-0.526651

>  <r_i_glide_ligand_efficiency_ln>  (4) 
-1.04879

>  <r_i_glide_gscore>  (4) 
-4.38191

>  <r_i_glide_lipo>  (4) 
-1.01929

>  <r_i_glide_hbond>  (4) 
0

>  <r_i_glide_metal>  (4) 
-0

>  <r_i_glide_rewards>  (4) 
-1.13544

>  <r_i_glide_evdw>  (4) 
-24.3114

>  <r_i_glide_ecoul>  (4) 
-9.82675

>  <r_i_glide_erotb>  (4) 
0.508482

>  <r_i_glide_esite>  (4) 
-0.046072

>  <r_i_glide_emodel>  (4) 
-45.1269

>  <r_i_glide_energy>  (4) 
-34.1381

>  <r_i_glide_einternal>  (4) 
1.53912

>  <r_i_glide_intrahb_reward>  (4) 
-0

>  <i_i_glide_confnum>  (4) 
3

>  <i_i_glide_posenum>  (4) 
24

>  <r_i_glide_eff_state_penalty>  (4) 
0

>  <ligand_id>  (4) 
1

>  <original_smiles>  (4) 
CC1CC(NC2CCOCC2)C2COCC(=Cc3nccn3C)C12

>  <smiles>  (4) 
[H]C(=C1C([H])([H])OC([H])([H])C2([H])C1([H])C([H])(C([H])([H])[H])C([H])([H])C2([H])[N+]([H])([H])C1([H])C([H])([H])C([H])([H])OC([H])([H])C1([H])[H])c1n(C([H])([H])[H])c([H])c([H])[n+]1[H]

$$$$
1:1:1
     RDKit          3D

 55 58  0  0  1  0  0  0  0  0999 V2000
    2.1344   -5.5248    3.8002 C   0  0  0  0  0  0  0  0  0  0  0  0
    3.2994   -5.4047    2.8026 C   0  0  2  0  0  0  0  0  0  0  0  0
    3.1079   -4.2737    1.7585 C   0  0  0  0  0  0  0  0  0  0  0  0
    3.2749   -4.9340    0.3762 C   0  0  1  0  0  0  0  0  0  0  0  0
    3.8071   -4.0526   -0.6898 N   0  0  0  0  0  0  0  0  0  0  0  0
    2.9562   -2.9133   -1.1212 C   0  0  0  0  0  0  0  0  0  0  0  0
    2.2321   -3.2405   -2.4415 C   0  0  0  0  0  0  0  0  0  0  0  0
    3.2110   -3.2815   -3.6331 C   0  0  0  0  0  0  0  0  0  0  0  0
    3.9296   -2.0553   -3.7264 O   0  0  0  0  0  0  0  0  0  0  0  0
    4.7058   -1.7672   -2.5674 C   0  0  0  0  0  0  0  0  0  0  0  0
    3.8007   -1.6459   -1.3295 C   0  0  0  0  0  0  0  0  0  0  0  0
    4.1345   -6.1859    0.6479 C   0  0  1  0  0  0  0  0  0  0  0  0
    5.6503   -5.8967    0.7781 C   0  0  0  0  0  0  0  0  0  0  0  0
    6.3282   -7.0434    1.2778 O   0  0  0  0  0  0  0  0  0  0  0  0
    5.9261   -7.3923    2.5925 C   0  0  0  0  0  0  0  0  0  0  0  0
    4.4459   -7.7370    2.6523 C   0  0  0  0  0  0  0  0  0  0  0  0
    4.0381   -8.8932    3.2288 C   0  0  0  0  0  0  0  0  0  0  0  0
    2.6800   -9.4609    3.3539 C   0  0  0  0  0  0  0  0  0  0  0  0
    1.7670   -9.5537    2.3815 N   0  0  0  0  0  0  0  0  0  0  0  0
    0.6362  -10.1544    2.8781 C   0  0  0  0  0  0  0  0  0  0  0  0
    0.8785  -10.4338    4.2008 C   0  0  0  0  0  0  0  0  0  0  0  0
    2.1591  -10.0043    4.4648 N   0  0  0  0  0  0  0  0  0  0  0  0
    2.8556  -10.0979    5.7512 C   0  0  0  0  0  0  0  0  0  0  0  0
    3.5419   -6.6957    1.9803 C   0  0  1  0  0  0  0  0  0  0  0  0
    1.1963   -5.7687    3.3043 H   0  0  0  0  0  0  0  0  0  0  0  0
    1.9870   -4.5932    4.3472 H   0  0  0  0  0  0  0  0  0  0  0  0
    2.3297   -6.3029    4.5389 H   0  0  0  0  0  0  0  0  0  0  0  0
    4.1992   -5.1644    3.3725 H   0  0  0  0  0  0  0  0  0  0  0  0
    2.1289   -3.8052    1.8382 H   0  0  0  0  0  0  0  0  0  0  0  0
    3.8398   -3.4808    1.9216 H   0  0  0  0  0  0  0  0  0  0  0  0
    2.2981   -5.2784    0.0449 H   0  0  0  0  0  0  0  0  0  0  0  0
    4.7095   -3.7040   -0.4118 H   0  0  0  0  0  0  0  0  0  0  0  0
    2.2190   -2.6922   -0.3486 H   0  0  0  0  0  0  0  0  0  0  0  0
    1.6747   -4.1741   -2.3505 H   0  0  0  0  0  0  0  0  0  0  0  0
    1.4849   -2.4742   -2.6473 H   0  0  0  0  0  0  0  0  0  0  0  0
    3.9127   -4.1086   -3.5357 H   0  0  0  0  0  0  0  0  0  0  0  0
    2.6623   -3.4401   -4.5613 H   0  0  0  0  0  0  0  0  0  0  0  0
    5.4579   -2.5424   -2.4214 H   0  0  0  0  0  0  0  0  0  0  0  0
    5.2366   -0.8284   -2.7168 H   0  0  0  0  0  0  0  0  0  0  0  0
    3.1227   -0.8015   -1.4727 H   0  0  0  0  0  0  0  0  0  0  0  0
    4.3837   -1.4146   -0.4352 H   0  0  0  0  0  0  0  0  0  0  0  0
    4.0065   -6.9334   -0.1363 H   0  0  0  0  0  0  0  0  0  0  0  0
    6.0750   -5.6740   -0.1997 H   0  0  0  0  0  0  0  0  0  0  0  0
    5.8698   -5.0374    1.4161 H   0  0  0  0  0  0  0  0  0  0  0  0
    6.5331   -8.2337    2.9347 H   0  0  0  0  0  0  0  0  0  0  0  0
    6.1340   -6.5612    3.2704 H   0  0  0  0  0  0  0  0  0  0  0  0
    4.8072   -9.5394    3.6154 H   0  0  0  0  0  0  0  0  0  0  0  0
   -0.2409  -10.3434    2.2752 H   0  0  0  0  0  0  0  0  0  0  0  0
    0.2446  -10.9012    4.9459 H   0  0  0  0  0  0  0  0  0  0  0  0
    2.2171  -10.6467    6.4517 H   0  0  0  0  0  0  0  0  0  0  0  0
    3.0323   -9.0868    6.1247 H   0  0  0  0  0  0  0  0  0  0  0  0
    3.7991  -10.6352    5.6251 H   0  0  0  0  0  0  0  0  0  0  0  0
    2.5735   -7.1416    1.7684 H   0  0  0  0  0  0  0  0  0  0  0  0
    3.9200   -4.6408   -1.5059 H   0  0  0  0  0  0  0  0  0  0  0  0
    1.9149   -9.2895    1.4190 H   0  0  0  0  0  0  0  0  0  0  0  0
  1  2  1  0
  1 25  1  0
  1 26  1  0
  1 27  1  0
  2 24  1  0
  2  3  1  0
  2 28  1  1
  3  4  1  0
  3 29  1  0
  3 30  1  0
  4  5  1  0
  4 12  1  0
  4 31  1  6
  5  6  1  0
  5 32  1  0
  5 54  1  0
  6 11  1  0
  6  7  1  0
  6 33  1  0
  7  8  1  0
  7 34  1  0
  7 35  1  0
  8  9  1  0
  8 36  1  0
  8 37  1  0
  9 10  1  0
 10 11  1  0
 10 38  1  0
 10 39  1  0
 11 40  1  0
 11 41  1  0
 12 24  1  0
 12 13  1  0
 12 42  1  6
 13 14  1  0
 13 43  1  0
 13 44  1  0
 14 15  1  0
 15 16  1  0
 15 45  1  0
 15 46  1  0
 16 17  2  3
 16 24  1  0
 17 18  1  0
 17 47  1  0
 18 22  1  0
 18 19  2  0
 19 20  1  0
 19 55  1  0
 20 21  2  0
 20 48  1  0
 21 22  1  0
 21 49  1  0
 22 23  1  0
 23 50  1  0
 23 51  1  0
 23 52  1  0
 24 53  1  6
M  CHG  2   5   1  19   1
M  END
>  <i_m_ct_stereo_status>  (5) 
1

>  <s_m_source_file>  (5) 
/var/tmp/pbs.5076255.sched01/tmpbdos_d33/0hajo06zg.sdf

>  <i_m_source_file_index>  (5) 
3

>  <i_lp_mmshare_version>  (5) 
48012

>  <i_f3d_flags>  (5) 
0

>  <s_epik_input>  (5) 
W0NIM11uMVtjSF1bY0hdbmMxL1tDSF09QyhcW0NIMl1PW0NIMl0yKVtDQEhdKFtDQEhdMjMpW0NASF0oW0NIM10pW0NIMl1bQ0BIXTNbTkhdW0NIXTRbQ0gyXVtDSDJdT1tDSDJdW0NIMl00

>  <s_epik_cmdline>  (5) 
J2VwaWtfcHl0aG9uJywgJy1waHQnLCAnMi4wJywgJy1waCcsICc3LjAnLCAnLXRuJywgJzgnLCAnLW1hJywgJzIwMCcsICctaW1hZScsICc8aW5maWxlLm1hZT4nLCAnLW9tYWUnLCAnPG91dGZpbGUubWFlPic=

>  <r_epik_Ionization_Penalty>  (5) 
0.0233663

>  <r_epik_Ionization_Penalty_Charging>  (5) 
0.00230109

>  <r_epik_Ionization_Penalty_Neutral>  (5) 
0.0210652

>  <r_epik_State_Penalty>  (5) 
0.0184624

>  <r_epik_Charging_Adjusted_Penalty>  (5) 
0.0207635

>  <i_epik_Tot_Q>  (5) 
2

>  <i_epik_Tot_abs_Q>  (5) 
2

>  <s_lp_Force_Field>  (5) 
OPLS3e

>  <r_lp_Energy>  (5) 
36.5301

>  <b_lp_Chiralities_Consistent>  (5) 
1

>  <s_lp_Variant>  (5) 
1:0-2

>  <s_i_glide_gridfile>  (5) 
pfpi4k_grid

>  <i_i_glide_lignum>  (5) 
3

>  <i_i_glide_rotatable_bonds>  (5) 
3

>  <r_i_docking_score>  (5) 
-4.12354

>  <r_i_glide_ligand_efficiency>  (5) 
-0.171814

>  <r_i_glide_ligand_efficiency_sa>  (5) 
-0.495598

>  <r_i_glide_ligand_efficiency_ln>  (5) 
-0.986953

>  <r_i_glide_gscore>  (5) 
-4.12354

>  <r_i_glide_lipo>  (5) 
-0.748409

>  <r_i_glide_hbond>  (5) 
0

>  <r_i_glide_metal>  (5) 
-0

>  <r_i_glide_rewards>  (5) 
-1.13544

>  <r_i_glide_evdw>  (5) 
-22.5122

>  <r_i_glide_ecoul>  (5) 
-10.4823

>  <r_i_glide_erotb>  (5) 
0.508482

>  <r_i_glide_esite>  (5) 
-0.0502258

>  <r_i_glide_emodel>  (5) 
-41.4822

>  <r_i_glide_energy>  (5) 
-32.9944

>  <r_i_glide_einternal>  (5) 
5.05926

>  <r_i_glide_intrahb_reward>  (5) 
-0

>  <i_i_glide_confnum>  (5) 
2

>  <i_i_glide_posenum>  (5) 
29

>  <r_i_glide_eff_state_penalty>  (5) 
0

>  <ligand_id>  (5) 
1

>  <original_smiles>  (5) 
CC1CC(NC2CCOCC2)C2COCC(=Cc3nccn3C)C12

>  <smiles>  (5) 
[H]C(=C1C([H])([H])OC([H])([H])C2([H])C1([H])C([H])(C([H])([H])[H])C([H])([H])C2([H])[N+]([H])([H])C1([H])C([H])([H])C([H])([H])OC([H])([H])C1([H])[H])c1n(C([H])([H])[H])c([H])c([H])[n+]1[H]

$$$$
1:1:2
     RDKit          3D

 55 58  0  0  1  0  0  0  0  0999 V2000
    3.0937   -5.2443    4.3737 C   0  0  0  0  0  0  0  0  0  0  0  0
    3.7965   -5.5014    3.0326 C   0  0  2  0  0  0  0  0  0  0  0  0
    3.8558   -4.2549    2.1131 C   0  0  0  0  0  0  0  0  0  0  0  0
    3.2454   -4.6794    0.7688 C   0  0  1  0  0  0  0  0  0  0  0  0
    3.7610   -3.9811   -0.4350 N   0  0  0  0  0  0  0  0  0  0  0  0
    3.2672   -2.5958   -0.6641 C   0  0  0  0  0  0  0  0  0  0  0  0
    3.2957   -2.2372   -2.1644 C   0  0  0  0  0  0  0  0  0  0  0  0
    4.7384   -2.0666   -2.6708 C   0  0  0  0  0  0  0  0  0  0  0  0
    5.4147   -1.0872   -1.8875 O   0  0  0  0  0  0  0  0  0  0  0  0
    5.5084   -1.4278   -0.5074 C   0  0  0  0  0  0  0  0  0  0  0  0
    4.1022   -1.5484    0.1009 C   0  0  0  0  0  0  0  0  0  0  0  0
    3.4372   -6.1976    0.7466 C   0  0  1  0  0  0  0  0  0  0  0  0
    4.8522   -6.6544    0.3192 C   0  0  0  0  0  0  0  0  0  0  0  0
    4.9908   -8.0505    0.5382 O   0  0  0  0  0  0  0  0  0  0  0  0
    4.9195   -8.3971    1.9133 C   0  0  0  0  0  0  0  0  0  0  0  0
    3.5668   -8.0363    2.5007 C   0  0  0  0  0  0  0  0  0  0  0  0
    2.8610   -8.9622    3.1898 C   0  0  0  0  0  0  0  0  0  0  0  0
    1.5215   -8.8602    3.7875 C   0  0  0  0  0  0  0  0  0  0  0  0
    0.4308   -8.3571    3.1971 N   0  0  0  0  0  0  0  0  0  0  0  0
   -0.6330   -8.4580    4.0623 C   0  0  0  0  0  0  0  0  0  0  0  0
   -0.1616   -9.0491    5.2059 C   0  0  0  0  0  0  0  0  0  0  0  0
    1.1739   -9.2961    5.0030 N   0  0  0  0  0  0  0  0  0  0  0  0
    2.0891   -9.9298    5.9541 C   0  0  0  0  0  0  0  0  0  0  0  0
    3.1173   -6.6047    2.1946 C   0  0  1  0  0  0  0  0  0  0  0  0
    2.0543   -4.9509    4.2393 H   0  0  0  0  0  0  0  0  0  0  0  0
    3.5911   -4.4512    4.9286 H   0  0  0  0  0  0  0  0  0  0  0  0
    3.1091   -6.1343    4.9995 H   0  0  0  0  0  0  0  0  0  0  0  0
    4.8274   -5.7925    3.2413 H   0  0  0  0  0  0  0  0  0  0  0  0
    3.2911   -3.4236    2.5319 H   0  0  0  0  0  0  0  0  0  0  0  0
    4.8904   -3.9148    2.0075 H   0  0  0  0  0  0  0  0  0  0  0  0
    2.1726   -4.5051    0.8175 H   0  0  0  0  0  0  0  0  0  0  0  0
    4.7682   -3.9814   -0.4286 H   0  0  0  0  0  0  0  0  0  0  0  0
    2.2268   -2.5523   -0.3336 H   0  0  0  0  0  0  0  0  0  0  0  0
    2.7511   -2.9729   -2.7624 H   0  0  0  0  0  0  0  0  0  0  0  0
    2.7614   -1.2928   -2.3075 H   0  0  0  0  0  0  0  0  0  0  0  0
    5.2716   -3.0151   -2.6339 H   0  0  0  0  0  0  0  0  0  0  0  0
    4.7352   -1.7469   -3.7121 H   0  0  0  0  0  0  0  0  0  0  0  0
    6.0599   -2.3615   -0.3921 H   0  0  0  0  0  0  0  0  0  0  0  0
    6.0783   -0.6601    0.0158 H   0  0  0  0  0  0  0  0  0  0  0  0
    3.6011   -0.5793    0.0402 H   0  0  0  0  0  0  0  0  0  0  0  0
    4.1691   -1.7607    1.1671 H   0  0  0  0  0  0  0  0  0  0  0  0
    2.7058   -6.6427    0.0813 H   0  0  0  0  0  0  0  0  0  0  0  0
    4.9910   -6.4776   -0.7450 H   0  0  0  0  0  0  0  0  0  0  0  0
    5.6519   -6.1106    0.8314 H   0  0  0  0  0  0  0  0  0  0  0  0
    5.1161   -9.4639    2.0229 H   0  0  0  0  0  0  0  0  0  0  0  0
    5.6992   -7.8712    2.4627 H   0  0  0  0  0  0  0  0  0  0  0  0
    3.3024   -9.9415    3.2810 H   0  0  0  0  0  0  0  0  0  0  0  0
   -1.6391   -8.1458    3.8204 H   0  0  0  0  0  0  0  0  0  0  0  0
   -0.6894   -9.3348    6.1093 H   0  0  0  0  0  0  0  0  0  0  0  0
    1.5123  -10.2460    6.8275 H   0  0  0  0  0  0  0  0  0  0  0  0
    2.8397   -9.1931    6.2502 H   0  0  0  0  0  0  0  0  0  0  0  0
    2.5567  -10.8069    5.4959 H   0  0  0  0  0  0  0  0  0  0  0  0
    2.0411   -6.5193    2.3315 H   0  0  0  0  0  0  0  0  0  0  0  0
    3.4566   -4.5356   -1.2262 H   0  0  0  0  0  0  0  0  0  0  0  0
    0.3988   -8.0540    2.2358 H   0  0  0  0  0  0  0  0  0  0  0  0
  1  2  1  0
  1 25  1  0
  1 26  1  0
  1 27  1  0
  2 24  1  0
  2  3  1  0
  2 28  1  1
  3  4  1  0
  3 29  1  0
  3 30  1  0
  4  5  1  0
  4 12  1  0
  4 31  1  1
  5  6  1  0
  5 32  1  0
  5 54  1  0
  6 11  1  0
  6  7  1  0
  6 33  1  0
  7  8  1  0
  7 34  1  0
  7 35  1  0
  8  9  1  0
  8 36  1  0
  8 37  1  0
  9 10  1  0
 10 11  1  0
 10 38  1  0
 10 39  1  0
 11 40  1  0
 11 41  1  0
 12 24  1  0
 12 13  1  0
 12 42  1  6
 13 14  1  0
 13 43  1  0
 13 44  1  0
 14 15  1  0
 15 16  1  0
 15 45  1  0
 15 46  1  0
 16 17  2  3
 16 24  1  0
 17 18  1  0
 17 47  1  0
 18 22  1  0
 18 19  2  0
 19 20  1  0
 19 55  1  0
 20 21  2  0
 20 48  1  0
 21 22  1  0
 21 49  1  0
 22 23  1  0
 23 50  1  0
 23 51  1  0
 23 52  1  0
 24 53  1  6
M  CHG  2   5   1  19   1
M  END
>  <i_m_ct_stereo_status>  (6) 
1

>  <s_m_source_file>  (6) 
/var/tmp/pbs.5076255.sched01/tmpbdos_d33/0hajo06zg.sdf

>  <i_m_source_file_index>  (6) 
3

>  <i_lp_mmshare_version>  (6) 
48012

>  <i_f3d_flags>  (6) 
0

>  <s_epik_input>  (6) 
W0NIM11uMVtjSF1bY0hdbmMxL1tDSF09QyhcW0NIMl1PW0NIMl0yKVtDQEhdKFtDQEhdMjMpW0NASF0oW0NIM10pW0NIMl1bQ0BIXTNbTkhdW0NIXTRbQ0gyXVtDSDJdT1tDSDJdW0NIMl00

>  <s_epik_cmdline>  (6) 
J2VwaWtfcHl0aG9uJywgJy1waHQnLCAnMi4wJywgJy1waCcsICc3LjAnLCAnLXRuJywgJzgnLCAnLW1hJywgJzIwMCcsICctaW1hZScsICc8aW5maWxlLm1hZT4nLCAnLW9tYWUnLCAnPG91dGZpbGUubWFlPic=

>  <r_epik_Ionization_Penalty>  (6) 
0.0233663

>  <r_epik_Ionization_Penalty_Charging>  (6) 
0.00230109

>  <r_epik_Ionization_Penalty_Neutral>  (6) 
0.0210652

>  <r_epik_State_Penalty>  (6) 
0.0184624

>  <r_epik_Charging_Adjusted_Penalty>  (6) 
0.0207635

>  <i_epik_Tot_Q>  (6) 
2

>  <i_epik_Tot_abs_Q>  (6) 
2

>  <s_lp_Force_Field>  (6) 
OPLS3e

>  <r_lp_Energy>  (6) 
36.5301

>  <b_lp_Chiralities_Consistent>  (6) 
1

>  <s_lp_Variant>  (6) 
1:0-2

>  <s_i_glide_gridfile>  (6) 
pfpi4k_grid

>  <i_i_glide_lignum>  (6) 
3

>  <i_i_glide_rotatable_bonds>  (6) 
3

>  <r_i_docking_score>  (6) 
-3.20528

>  <r_i_glide_ligand_efficiency>  (6) 
-0.133553

>  <r_i_glide_ligand_efficiency_sa>  (6) 
-0.385234

>  <r_i_glide_ligand_efficiency_ln>  (6) 
-0.76717

>  <r_i_glide_gscore>  (6) 
-3.20528

>  <r_i_glide_lipo>  (6) 
-0.235688

>  <r_i_glide_hbond>  (6) 
-0.00724897

>  <r_i_glide_metal>  (6) 
-0

>  <r_i_glide_rewards>  (6) 
-1.13544

>  <r_i_glide_evdw>  (6) 
-18.7537

>  <r_i_glide_ecoul>  (6) 
-8.75101

>  <r_i_glide_erotb>  (6) 
0.508482

>  <r_i_glide_esite>  (6) 
-0.0850445

>  <r_i_glide_emodel>  (6) 
-33.9905

>  <r_i_glide_energy>  (6) 
-27.5047

>  <r_i_glide_einternal>  (6) 
4.14169

>  <r_i_glide_intrahb_reward>  (6) 
-0

>  <i_i_glide_confnum>  (6) 
2

>  <i_i_glide_posenum>  (6) 
21

>  <r_i_glide_eff_state_penalty>  (6) 
0

>  <ligand_id>  (6) 
1

>  <original_smiles>  (6) 
CC1CC(NC2CCOCC2)C2COCC(=Cc3nccn3C)C12

>  <smiles>  (6) 
[H]C(=C1C([H])([H])OC([H])([H])C2([H])C1([H])C([H])(C([H])([H])[H])C([H])([H])C2([H])[N+]([H])([H])C1([H])C([H])([H])C([H])([H])OC([H])([H])C1([H])[H])c1n(C([H])([H])[H])c([H])c([H])[n+]1[H]

$$$$
1:2:0
     RDKit          3D

 54 57  0  0  1  0  0  0  0  0999 V2000
    5.6614   -6.7698    2.0068 C   0  0  0  0  0  0  0  0  0  0  0  0
    4.4487   -6.4070    1.1284 C   0  0  2  0  0  0  0  0  0  0  0  0
    4.7643   -5.3611    0.0370 C   0  0  0  0  0  0  0  0  0  0  0  0
    3.7918   -4.1872    0.2807 C   0  0  1  0  0  0  0  0  0  0  0  0
    3.4197   -3.4285   -0.9333 N   0  0  0  0  0  0  0  0  0  0  0  0
    4.4615   -2.5230   -1.4897 C   0  0  0  0  0  0  0  0  0  0  0  0
    3.8275   -1.2662   -2.1164 C   0  0  0  0  0  0  0  0  0  0  0  0
    3.0874   -1.6006   -3.4201 C   0  0  0  0  0  0  0  0  0  0  0  0
    3.9827   -2.2443   -4.3166 O   0  0  0  0  0  0  0  0  0  0  0  0
    4.4987   -3.4773   -3.8285 C   0  0  0  0  0  0  0  0  0  0  0  0
    5.3217   -3.2295   -2.5528 C   0  0  0  0  0  0  0  0  0  0  0  0
    2.5780   -4.8171    0.9813 C   0  0  1  0  0  0  0  0  0  0  0  0
    1.6021   -5.5694    0.0423 C   0  0  0  0  0  0  0  0  0  0  0  0
    0.6491   -6.2707    0.8201 O   0  0  0  0  0  0  0  0  0  0  0  0
    1.2551   -7.3203    1.5657 C   0  0  0  0  0  0  0  0  0  0  0  0
    2.3084   -6.8035    2.5340 C   0  0  0  0  0  0  0  0  0  0  0  0
    2.3562   -7.1393    3.8402 C   0  0  0  0  0  0  0  0  0  0  0  0
    1.5405   -8.1254    4.5431 C   0  0  0  0  0  0  0  0  0  0  0  0
    0.8738   -7.8194    5.6573 N   0  0  0  0  0  0  0  0  0  0  0  0
    0.2812   -9.0139    6.0753 C   0  0  0  0  0  0  0  0  0  0  0  0
    0.6191  -10.0070    5.1914 C   0  0  0  0  0  0  0  0  0  0  0  0
    1.4362   -9.4408    4.2095 N   0  0  0  0  0  0  0  0  0  0  0  0
    2.0665  -10.1801    3.1336 C   0  0  0  0  0  0  0  0  0  0  0  0
    3.2768   -5.7941    1.9355 C   0  0  1  0  0  0  0  0  0  0  0  0
    6.0591   -5.9069    2.5401 H   0  0  0  0  0  0  0  0  0  0  0  0
    6.4739   -7.1906    1.4162 H   0  0  0  0  0  0  0  0  0  0  0  0
    5.3993   -7.5176    2.7549 H   0  0  0  0  0  0  0  0  0  0  0  0
    4.1160   -7.3181    0.6296 H   0  0  0  0  0  0  0  0  0  0  0  0
    5.7921   -5.0101    0.0951 H   0  0  0  0  0  0  0  0  0  0  0  0
    4.6477   -5.8130   -0.9499 H   0  0  0  0  0  0  0  0  0  0  0  0
    4.2527   -3.5131    1.0054 H   0  0  0  0  0  0  0  0  0  0  0  0
    3.0904   -4.0813   -1.6390 H   0  0  0  0  0  0  0  0  0  0  0  0
    5.1054   -2.1664   -0.6844 H   0  0  0  0  0  0  0  0  0  0  0  0
    3.1664   -0.7578   -1.4161 H   0  0  0  0  0  0  0  0  0  0  0  0
    4.6130   -0.5496   -2.3443 H   0  0  0  0  0  0  0  0  0  0  0  0
    2.2196   -2.2327   -3.2203 H   0  0  0  0  0  0  0  0  0  0  0  0
    2.7069   -0.6910   -3.8868 H   0  0  0  0  0  0  0  0  0  0  0  0
    3.6790   -4.1705   -3.6394 H   0  0  0  0  0  0  0  0  0  0  0  0
    5.1179   -3.9448   -4.5916 H   0  0  0  0  0  0  0  0  0  0  0  0
    6.1769   -2.6043   -2.7940 H   0  0  0  0  0  0  0  0  0  0  0  0
    5.7571   -4.1605   -2.1935 H   0  0  0  0  0  0  0  0  0  0  0  0
    2.0090   -4.0749    1.5585 H   0  0  0  0  0  0  0  0  0  0  0  0
    1.0661   -4.9020   -0.6315 H   0  0  0  0  0  0  0  0  0  0  0  0
    2.1229   -6.2544   -0.6178 H   0  0  0  0  0  0  0  0  0  0  0  0
    0.4794   -7.8644    2.0981 H   0  0  0  0  0  0  0  0  0  0  0  0
    1.7494   -8.0121    0.8815 H   0  0  0  0  0  0  0  0  0  0  0  0
    3.1122   -6.6701    4.4620 H   0  0  0  0  0  0  0  0  0  0  0  0
   -0.3516   -9.0770    6.9445 H   0  0  0  0  0  0  0  0  0  0  0  0
    0.3406  -11.0456    5.1967 H   0  0  0  0  0  0  0  0  0  0  0  0
    1.8927  -11.2548    3.2748 H   0  0  0  0  0  0  0  0  0  0  0  0
    3.1398   -9.9612    3.1121 H   0  0  0  0  0  0  0  0  0  0  0  0
    1.6197   -9.9464    2.1698 H   0  0  0  0  0  0  0  0  0  0  0  0
    3.7009   -5.2224    2.7592 H   0  0  0  0  0  0  0  0  0  0  0  0
    2.6521   -2.8332   -0.6528 H   0  0  0  0  0  0  0  0  0  0  0  0
  1  2  1  0
  1 25  1  0
  1 26  1  0
  1 27  1  0
  2 24  1  0
  2  3  1  0
  2 28  1  6
  3  4  1  0
  3 29  1  0
  3 30  1  0
  4  5  1  0
  4 12  1  0
  4 31  1  1
  5  6  1  0
  5 32  1  0
  5 54  1  0
  6 11  1  0
  6  7  1  0
  6 33  1  0
  7  8  1  0
  7 34  1  0
  7 35  1  0
  8  9  1  0
  8 36  1  0
  8 37  1  0
  9 10  1  0
 10 11  1  0
 10 38  1  0
 10 39  1  0
 11 40  1  0
 11 41  1  0
 12 24  1  0
 12 13  1  0
 12 42  1  1
 13 14  1  0
 13 43  1  0
 13 44  1  0
 14 15  1  0
 15 16  1  0
 15 45  1  0
 15 46  1  0
 16 17  2  3
 16 24  1  0
 17 18  1  0
 17 47  1  0
 18 22  1  0
 18 19  2  0
 19 20  1  0
 20 21  2  0
 20 48  1  0
 21 22  1  0
 21 49  1  0
 22 23  1  0
 23 50  1  0
 23 51  1  0
 23 52  1  0
 24 53  1  1
M  CHG  1   5   1
M  END
>  <i_m_ct_stereo_status>  (7) 
1

>  <s_m_source_file>  (7) 
/var/tmp/pbs.5076255.sched01/tmpbdos_d33/0hajo06zg.sdf

>  <i_m_source_file_index>  (7) 
4

>  <i_lp_mmshare_version>  (7) 
48012

>  <i_f3d_flags>  (7) 
0

>  <s_epik_input>  (7) 
W0NIM11uMVtjSF1bY0hdbmMxL1tDSF09QyhcW0NIMl1PW0NIMl0yKVtDQEhdKFtDQEhdMjMpW0NASF0oW0NIM10pW0NIMl1bQ0BIXTNbTkhdW0NIXTRbQ0gyXVtDSDJdT1tDSDJdW0NIMl00

>  <s_epik_cmdline>  (7) 
J2VwaWtfcHl0aG9uJywgJy1waHQnLCAnMi4wJywgJy1waCcsICc3LjAnLCAnLXRuJywgJzgnLCAnLW1hJywgJzIwMCcsICctaW1hZScsICc8aW5maWxlLm1hZT4nLCAnLW9tYWUnLCAnPG91dGZpbGUubWFlPic=

>  <r_epik_Ionization_Penalty>  (7) 
1.98938

>  <r_epik_Ionization_Penalty_Charging>  (7) 
1.98938

>  <r_epik_Ionization_Penalty_Neutral>  (7) 
1.74801e-12

>  <r_epik_State_Penalty>  (7) 
2.11676

>  <r_epik_Charging_Adjusted_Penalty>  (7) 
4.10613

>  <i_epik_Tot_Q>  (7) 
1

>  <i_epik_Tot_abs_Q>  (7) 
1

>  <s_lp_Force_Field>  (7) 
OPLS3e

>  <r_lp_Energy>  (7) 
28.6142

>  <b_lp_Chiralities_Consistent>  (7) 
1

>  <s_lp_Variant>  (7) 
1:0-3

>  <s_i_glide_gridfile>  (7) 
pfpi4k_grid

>  <i_i_glide_lignum>  (7) 
4

>  <i_i_glide_rotatable_bonds>  (7) 
3

>  <r_i_docking_score>  (7) 
-4.72366

>  <r_i_glide_ligand_efficiency>  (7) 
-0.196819

>  <r_i_glide_ligand_efficiency_sa>  (7) 
-0.567725

>  <r_i_glide_ligand_efficiency_ln>  (7) 
-1.13059

>  <r_i_glide_gscore>  (7) 
-4.72366

>  <r_i_glide_lipo>  (7) 
-0.684852

>  <r_i_glide_hbond>  (7) 
-0.48

>  <r_i_glide_metal>  (7) 
-0

>  <r_i_glide_rewards>  (7) 
-1.14232

>  <r_i_glide_evdw>  (7) 
-24.2482

>  <r_i_glide_ecoul>  (7) 
-11.2476

>  <r_i_glide_erotb>  (7) 
0.511212

>  <r_i_glide_esite>  (7) 
-0.0281603

>  <r_i_glide_emodel>  (7) 
-44.6187

>  <r_i_glide_energy>  (7) 
-35.4958

>  <r_i_glide_einternal>  (7) 
4.7924

>  <r_i_glide_intrahb_reward>  (7) 
-0

>  <i_i_glide_confnum>  (7) 
4

>  <i_i_glide_posenum>  (7) 
37

>  <r_i_glide_eff_state_penalty>  (7) 
0

>  <ligand_id>  (7) 
1

>  <original_smiles>  (7) 
CC1CC(NC2CCOCC2)C2COCC(=Cc3nccn3C)C12

>  <smiles>  (7) 
[H]C(=C1C([H])([H])OC([H])([H])C2([H])C1([H])C([H])(C([H])([H])[H])C([H])([H])C2([H])[N+]([H])([H])C1([H])C([H])([H])C([H])([H])OC([H])([H])C1([H])[H])c1nc([H])c([H])n1C([H])([H])[H]

$$$$
1:2:1
     RDKit          3D

 54 57  0  0  1  0  0  0  0  0999 V2000
    5.8080   -5.2680    2.5258 C   0  0  0  0  0  0  0  0  0  0  0  0
    4.6459   -5.2761    1.5174 C   0  0  2  0  0  0  0  0  0  0  0  0
    4.8066   -4.2353    0.4002 C   0  0  0  0  0  0  0  0  0  0  0  0
    3.5615   -3.3207    0.4120 C   0  0  1  0  0  0  0  0  0  0  0  0
    3.1570   -2.6867   -0.8813 N   0  0  0  0  0  0  0  0  0  0  0  0
    4.1333   -1.7663   -1.5290 C   0  0  0  0  0  0  0  0  0  0  0  0
    3.4405   -0.9219   -2.6270 C   0  0  0  0  0  0  0  0  0  0  0  0
    3.0527   -1.7903   -3.8304 C   0  0  0  0  0  0  0  0  0  0  0  0
    4.2078   -2.4540   -4.3195 O   0  0  0  0  0  0  0  0  0  0  0  0
    4.8185   -3.3314   -3.3890 C   0  0  0  0  0  0  0  0  0  0  0  0
    5.3207   -2.5131   -2.1883 C   0  0  0  0  0  0  0  0  0  0  0  0
    2.4916   -4.2201    1.0509 C   0  0  1  0  0  0  0  0  0  0  0  0
    1.8357   -5.2269    0.0645 C   0  0  0  0  0  0  0  0  0  0  0  0
    1.0313   -6.1527    0.7754 O   0  0  0  0  0  0  0  0  0  0  0  0
    1.7995   -6.9899    1.6415 C   0  0  0  0  0  0  0  0  0  0  0  0
    2.5281   -6.1694    2.7054 C   0  0  0  0  0  0  0  0  0  0  0  0
    2.5352   -6.3997    4.0477 C   0  0  0  0  0  0  0  0  0  0  0  0
    1.8830   -7.4678    4.8222 C   0  0  0  0  0  0  0  0  0  0  0  0
    0.9809   -8.3311    4.3562 N   0  0  0  0  0  0  0  0  0  0  0  0
    0.6801   -9.1730    5.4226 C   0  0  0  0  0  0  0  0  0  0  0  0
    1.4136   -8.7864    6.5193 C   0  0  0  0  0  0  0  0  0  0  0  0
    2.1747   -7.6921    6.1225 N   0  0  0  0  0  0  0  0  0  0  0  0
    3.1043   -6.9603    6.9679 C   0  0  0  0  0  0  0  0  0  0  0  0
    3.2768   -4.9607    2.1464 C   0  0  1  0  0  0  0  0  0  0  0  0
    5.9090   -4.3019    3.0191 H   0  0  0  0  0  0  0  0  0  0  0  0
    6.7556   -5.4834    2.0332 H   0  0  0  0  0  0  0  0  0  0  0  0
    5.6663   -6.0245    3.2973 H   0  0  0  0  0  0  0  0  0  0  0  0
    4.6138   -6.2605    1.0483 H   0  0  0  0  0  0  0  0  0  0  0  0
    5.7074   -3.6444    0.5648 H   0  0  0  0  0  0  0  0  0  0  0  0
    4.9050   -4.7859   -0.5369 H   0  0  0  0  0  0  0  0  0  0  0  0
    3.7497   -2.5060    1.1119 H   0  0  0  0  0  0  0  0  0  0  0  0
    2.8966   -3.4005   -1.5455 H   0  0  0  0  0  0  0  0  0  0  0  0
    4.5028   -1.0862   -0.7610 H   0  0  0  0  0  0  0  0  0  0  0  0
    2.5468   -0.4080   -2.2821 H   0  0  0  0  0  0  0  0  0  0  0  0
    4.1280   -0.1435   -2.9563 H   0  0  0  0  0  0  0  0  0  0  0  0
    2.2811   -2.5167   -3.5580 H   0  0  0  0  0  0  0  0  0  0  0  0
    2.6387   -1.1648   -4.6220 H   0  0  0  0  0  0  0  0  0  0  0  0
    4.1086   -4.1055   -3.0801 H   0  0  0  0  0  0  0  0  0  0  0  0
    5.6531   -3.8476   -3.8636 H   0  0  0  0  0  0  0  0  0  0  0  0
    6.0422   -1.7826   -2.5328 H   0  0  0  0  0  0  0  0  0  0  0  0
    5.9045   -3.1504   -1.5336 H   0  0  0  0  0  0  0  0  0  0  0  0
    1.7548   -3.5890    1.5388 H   0  0  0  0  0  0  0  0  0  0  0  0
    1.2140   -4.7285   -0.6862 H   0  0  0  0  0  0  0  0  0  0  0  0
    2.5883   -5.7849   -0.4837 H   0  0  0  0  0  0  0  0  0  0  0  0
    1.1095   -7.7237    2.0420 H   0  0  0  0  0  0  0  0  0  0  0  0
    2.5353   -7.5570    1.0650 H   0  0  0  0  0  0  0  0  0  0  0  0
    3.1008   -5.6817    4.6239 H   0  0  0  0  0  0  0  0  0  0  0  0
   -0.0169   -9.9872    5.3218 H   0  0  0  0  0  0  0  0  0  0  0  0
    1.4613   -9.2072    7.5118 H   0  0  0  0  0  0  0  0  0  0  0  0
    3.0186   -7.3094    7.9993 H   0  0  0  0  0  0  0  0  0  0  0  0
    2.8802   -5.8916    6.9449 H   0  0  0  0  0  0  0  0  0  0  0  0
    4.1259   -7.1218    6.6199 H   0  0  0  0  0  0  0  0  0  0  0  0
    3.4376   -4.2414    2.9491 H   0  0  0  0  0  0  0  0  0  0  0  0
    2.3222   -2.1289   -0.7059 H   0  0  0  0  0  0  0  0  0  0  0  0
  1  2  1  0
  1 25  1  0
  1 26  1  0
  1 27  1  0
  2 24  1  0
  2  3  1  0
  2 28  1  6
  3  4  1  0
  3 29  1  0
  3 30  1  0
  4  5  1  0
  4 12  1  0
  4 31  1  1
  5  6  1  0
  5 32  1  0
  5 54  1  0
  6 11  1  0
  6  7  1  0
  6 33  1  0
  7  8  1  0
  7 34  1  0
  7 35  1  0
  8  9  1  0
  8 36  1  0
  8 37  1  0
  9 10  1  0
 10 11  1  0
 10 38  1  0
 10 39  1  0
 11 40  1  0
 11 41  1  0
 12 24  1  0
 12 13  1  0
 12 42  1  1
 13 14  1  0
 13 43  1  0
 13 44  1  0
 14 15  1  0
 15 16  1  0
 15 45  1  0
 15 46  1  0
 16 17  2  3
 16 24  1  0
 17 18  1  0
 17 47  1  0
 18 22  1  0
 18 19  2  0
 19 20  1  0
 20 21  2  0
 20 48  1  0
 21 22  1  0
 21 49  1  0
 22 23  1  0
 23 50  1  0
 23 51  1  0
 23 52  1  0
 24 53  1  1
M  CHG  1   5   1
M  END
>  <i_m_ct_stereo_status>  (8) 
1

>  <s_m_source_file>  (8) 
/var/tmp/pbs.5076255.sched01/tmpbdos_d33/0hajo06zg.sdf

>  <i_m_source_file_index>  (8) 
4

>  <i_lp_mmshare_version>  (8) 
48012

>  <i_f3d_flags>  (8) 
0

>  <s_epik_input>  (8) 
W0NIM11uMVtjSF1bY0hdbmMxL1tDSF09QyhcW0NIMl1PW0NIMl0yKVtDQEhdKFtDQEhdMjMpW0NASF0oW0NIM10pW0NIMl1bQ0BIXTNbTkhdW0NIXTRbQ0gyXVtDSDJdT1tDSDJdW0NIMl00

>  <s_epik_cmdline>  (8) 
J2VwaWtfcHl0aG9uJywgJy1waHQnLCAnMi4wJywgJy1waCcsICc3LjAnLCAnLXRuJywgJzgnLCAnLW1hJywgJzIwMCcsICctaW1hZScsICc8aW5maWxlLm1hZT4nLCAnLW9tYWUnLCAnPG91dGZpbGUubWFlPic=

>  <r_epik_Ionization_Penalty>  (8) 
1.98938

>  <r_epik_Ionization_Penalty_Charging>  (8) 
1.98938

>  <r_epik_Ionization_Penalty_Neutral>  (8) 
1.74801e-12

>  <r_epik_State_Penalty>  (8) 
2.11676

>  <r_epik_Charging_Adjusted_Penalty>  (8) 
4.10613

>  <i_epik_Tot_Q>  (8) 
1

>  <i_epik_Tot_abs_Q>  (8) 
1

>  <s_lp_Force_Field>  (8) 
OPLS3e

>  <r_lp_Energy>  (8) 
28.6142

>  <b_lp_Chiralities_Consistent>  (8) 
1

>  <s_lp_Variant>  (8) 
1:0-3

>  <s_i_glide_gridfile>  (8) 
pfpi4k_grid

>  <i_i_glide_lignum>  (8) 
4

>  <i_i_glide_rotatable_bonds>  (8) 
3

>  <r_i_docking_score>  (8) 
-4.56918

>  <r_i_glide_ligand_efficiency>  (8) 
-0.190383

>  <r_i_glide_ligand_efficiency_sa>  (8) 
-0.549158

>  <r_i_glide_ligand_efficiency_ln>  (8) 
-1.09361

>  <r_i_glide_gscore>  (8) 
-4.56918

>  <r_i_glide_lipo>  (8) 
-0.53798

>  <r_i_glide_hbond>  (8) 
-0.68

>  <r_i_glide_metal>  (8) 
-0

>  <r_i_glide_rewards>  (8) 
-1.14232

>  <r_i_glide_evdw>  (8) 
-18.5632

>  <r_i_glide_ecoul>  (8) 
-11.6194

>  <r_i_glide_erotb>  (8) 
0.511212

>  <r_i_glide_esite>  (8) 
-0.0490296

>  <r_i_glide_emodel>  (8) 
-40.4718

>  <r_i_glide_energy>  (8) 
-30.1826

>  <r_i_glide_einternal>  (8) 
0.99962

>  <r_i_glide_intrahb_reward>  (8) 
-0

>  <i_i_glide_confnum>  (8) 
2

>  <i_i_glide_posenum>  (8) 
27

>  <r_i_glide_eff_state_penalty>  (8) 
0

>  <ligand_id>  (8) 
1

>  <original_smiles>  (8) 
CC1CC(NC2CCOCC2)C2COCC(=Cc3nccn3C)C12

>  <smiles>  (8) 
[H]C(=C1C([H])([H])OC([H])([H])C2([H])C1([H])C([H])(C([H])([H])[H])C([H])([H])C2([H])[N+]([H])([H])C1([H])C([H])([H])C([H])([H])OC([H])([H])C1([H])[H])c1nc([H])c([H])n1C([H])([H])[H]

$$$$
1:2:2
     RDKit          3D

 54 57  0  0  1  0  0  0  0  0999 V2000
    5.5960   -6.3823    2.0502 C   0  0  0  0  0  0  0  0  0  0  0  0
    4.3781   -6.1567    1.1419 C   0  0  2  0  0  0  0  0  0  0  0  0
    4.6866   -5.2505   -0.0677 C   0  0  0  0  0  0  0  0  0  0  0  0
    3.6830   -4.0875    0.0110 C   0  0  1  0  0  0  0  0  0  0  0  0
    3.2896   -3.4666   -1.2709 N   0  0  0  0  0  0  0  0  0  0  0  0
    4.3121   -3.3367   -2.3420 C   0  0  0  0  0  0  0  0  0  0  0  0
    5.3623   -2.2646   -2.0037 C   0  0  0  0  0  0  0  0  0  0  0  0
    4.7520   -0.8601   -2.1329 C   0  0  0  0  0  0  0  0  0  0  0  0
    4.2154   -0.6759   -3.4367 O   0  0  0  0  0  0  0  0  0  0  0  0
    3.1415   -1.5548   -3.7339 C   0  0  0  0  0  0  0  0  0  0  0  0
    3.6546   -3.0017   -3.6928 C   0  0  0  0  0  0  0  0  0  0  0  0
    2.4745   -4.6420    0.7960 C   0  0  1  0  0  0  0  0  0  0  0  0
    1.5331   -5.5216   -0.0645 C   0  0  0  0  0  0  0  0  0  0  0  0
    0.6239   -6.2326    0.7468 O   0  0  0  0  0  0  0  0  0  0  0  0
    1.2579   -7.1815    1.6150 C   0  0  0  0  0  0  0  0  0  0  0  0
    2.2373   -6.4924    2.5625 C   0  0  0  0  0  0  0  0  0  0  0  0
    2.3284   -6.6523    3.9134 C   0  0  0  0  0  0  0  0  0  0  0  0
    1.5196   -7.4902    4.8204 C   0  0  0  0  0  0  0  0  0  0  0  0
    0.3582   -8.0753    4.5106 N   0  0  0  0  0  0  0  0  0  0  0  0
    0.0046   -8.8090    5.6409 C   0  0  0  0  0  0  0  0  0  0  0  0
    0.9476   -8.6318    6.6139 C   0  0  0  0  0  0  0  0  0  0  0  0
    1.9114   -7.7767    6.0699 N   0  0  0  0  0  0  0  0  0  0  0  0
    3.1029   -7.3254    6.7673 C   0  0  0  0  0  0  0  0  0  0  0  0
    3.1795   -5.5031    1.8679 C   0  0  1  0  0  0  0  0  0  0  0  0
    5.9636   -5.4476    2.4730 H   0  0  0  0  0  0  0  0  0  0  0  0
    6.4139   -6.8422    1.4973 H   0  0  0  0  0  0  0  0  0  0  0  0
    5.3443   -7.0478    2.8745 H   0  0  0  0  0  0  0  0  0  0  0  0
    4.0618   -7.1222    0.7396 H   0  0  0  0  0  0  0  0  0  0  0  0
    5.7021   -4.8594   -0.0420 H   0  0  0  0  0  0  0  0  0  0  0  0
    4.6070   -5.8537   -0.9751 H   0  0  0  0  0  0  0  0  0  0  0  0
    4.1570   -3.3164    0.6237 H   0  0  0  0  0  0  0  0  0  0  0  0
    2.5302   -4.0197   -1.6464 H   0  0  0  0  0  0  0  0  0  0  0  0
    4.8315   -4.2788   -2.5374 H   0  0  0  0  0  0  0  0  0  0  0  0
    5.8070   -2.4096   -1.0155 H   0  0  0  0  0  0  0  0  0  0  0  0
    6.1873   -2.3645   -2.7122 H   0  0  0  0  0  0  0  0  0  0  0  0
    3.9830   -0.6829   -1.3808 H   0  0  0  0  0  0  0  0  0  0  0  0
    5.5328   -0.1242   -1.9737 H   0  0  0  0  0  0  0  0  0  0  0  0
    2.3336   -1.4188   -3.0189 H   0  0  0  0  0  0  0  0  0  0  0  0
    2.7571   -1.3090   -4.7230 H   0  0  0  0  0  0  0  0  0  0  0  0
    4.4146   -3.1352   -4.4654 H   0  0  0  0  0  0  0  0  0  0  0  0
    2.8550   -3.7108   -3.9281 H   0  0  0  0  0  0  0  0  0  0  0  0
    1.8928   -3.8442    1.2782 H   0  0  0  0  0  0  0  0  0  0  0  0
    0.9700   -4.9228   -0.7761 H   0  0  0  0  0  0  0  0  0  0  0  0
    2.0953   -6.2364   -0.6588 H   0  0  0  0  0  0  0  0  0  0  0  0
    0.4586   -7.7156    2.1146 H   0  0  0  0  0  0  0  0  0  0  0  0
    1.7948   -7.9254    1.0262 H   0  0  0  0  0  0  0  0  0  0  0  0
    3.1193   -6.0620    4.3667 H   0  0  0  0  0  0  0  0  0  0  0  0
   -0.8833   -9.4300    5.6721 H   0  0  0  0  0  0  0  0  0  0  0  0
    1.0181   -9.0578    7.6108 H   0  0  0  0  0  0  0  0  0  0  0  0
    3.0643   -7.6424    7.8128 H   0  0  0  0  0  0  0  0  0  0  0  0
    3.1772   -6.2357    6.7365 H   0  0  0  0  0  0  0  0  0  0  0  0
    3.9830   -7.7562    6.2891 H   0  0  0  0  0  0  0  0  0  0  0  0
    3.5816   -4.8025    2.6092 H   0  0  0  0  0  0  0  0  0  0  0  0
    2.9247   -2.5476   -1.0485 H   0  0  0  0  0  0  0  0  0  0  0  0
  1  2  1  0
  1 25  1  0
  1 26  1  0
  1 27  1  0
  2 24  1  0
  2  3  1  0
  2 28  1  6
  3  4  1  0
  3 29  1  0
  3 30  1  0
  4  5  1  0
  4 12  1  0
  4 31  1  1
  5  6  1  0
  5 32  1  0
  5 54  1  0
  6 11  1  0
  6  7  1  0
  6 33  1  0
  7  8  1  0
  7 34  1  0
  7 35  1  0
  8  9  1  0
  8 36  1  0
  8 37  1  0
  9 10  1  0
 10 11  1  0
 10 38  1  0
 10 39  1  0
 11 40  1  0
 11 41  1  0
 12 24  1  0
 12 13  1  0
 12 42  1  1
 13 14  1  0
 13 43  1  0
 13 44  1  0
 14 15  1  0
 15 16  1  0
 15 45  1  0
 15 46  1  0
 16 17  2  3
 16 24  1  0
 17 18  1  0
 17 47  1  0
 18 22  1  0
 18 19  2  0
 19 20  1  0
 20 21  2  0
 20 48  1  0
 21 22  1  0
 21 49  1  0
 22 23  1  0
 23 50  1  0
 23 51  1  0
 23 52  1  0
 24 53  1  1
M  CHG  1   5   1
M  END
>  <i_m_ct_stereo_status>  (9) 
1

>  <s_m_source_file>  (9) 
/var/tmp/pbs.5076255.sched01/tmpbdos_d33/0hajo06zg.sdf

>  <i_m_source_file_index>  (9) 
4

>  <i_lp_mmshare_version>  (9) 
48012

>  <i_f3d_flags>  (9) 
0

>  <s_epik_input>  (9) 
W0NIM11uMVtjSF1bY0hdbmMxL1tDSF09QyhcW0NIMl1PW0NIMl0yKVtDQEhdKFtDQEhdMjMpW0NASF0oW0NIM10pW0NIMl1bQ0BIXTNbTkhdW0NIXTRbQ0gyXVtDSDJdT1tDSDJdW0NIMl00

>  <s_epik_cmdline>  (9) 
J2VwaWtfcHl0aG9uJywgJy1waHQnLCAnMi4wJywgJy1waCcsICc3LjAnLCAnLXRuJywgJzgnLCAnLW1hJywgJzIwMCcsICctaW1hZScsICc8aW5maWxlLm1hZT4nLCAnLW9tYWUnLCAnPG91dGZpbGUubWFlPic=

>  <r_epik_Ionization_Penalty>  (9) 
1.98938

>  <r_epik_Ionization_Penalty_Charging>  (9) 
1.98938

>  <r_epik_Ionization_Penalty_Neutral>  (9) 
1.74801e-12

>  <r_epik_State_Penalty>  (9) 
2.11676

>  <r_epik_Charging_Adjusted_Penalty>  (9) 
4.10613

>  <i_epik_Tot_Q>  (9) 
1

>  <i_epik_Tot_abs_Q>  (9) 
1

>  <s_lp_Force_Field>  (9) 
OPLS3e

>  <r_lp_Energy>  (9) 
28.6142

>  <b_lp_Chiralities_Consistent>  (9) 
1

>  <s_lp_Variant>  (9) 
1:0-3

>  <s_i_glide_gridfile>  (9) 
pfpi4k_grid

>  <i_i_glide_lignum>  (9) 
4

>  <i_i_glide_rotatable_bonds>  (9) 
3

>  <r_i_docking_score>  (9) 
-3.69474

>  <r_i_glide_ligand_efficiency>  (9) 
-0.153948

>  <r_i_glide_ligand_efficiency_sa>  (9) 
-0.444062

>  <r_i_glide_ligand_efficiency_ln>  (9) 
-0.884321

>  <r_i_glide_gscore>  (9) 
-3.69474

>  <r_i_glide_lipo>  (9) 
-0.504842

>  <r_i_glide_hbond>  (9) 
-0.16

>  <r_i_glide_metal>  (9) 
-0

>  <r_i_glide_rewards>  (9) 
-1.14232

>  <r_i_glide_evdw>  (9) 
-21.37

>  <r_i_glide_ecoul>  (9) 
-8.78127

>  <r_i_glide_erotb>  (9) 
0.511212

>  <r_i_glide_esite>  (9) 
-0.0131032

>  <r_i_glide_emodel>  (9) 
-37.494

>  <r_i_glide_energy>  (9) 
-30.1513

>  <r_i_glide_einternal>  (9) 
2.91286

>  <r_i_glide_intrahb_reward>  (9) 
-0

>  <i_i_glide_confnum>  (9) 
2

>  <i_i_glide_posenum>  (9) 
23

>  <r_i_glide_eff_state_penalty>  (9) 
0

>  <ligand_id>  (9) 
1

>  <original_smiles>  (9) 
CC1CC(NC2CCOCC2)C2COCC(=Cc3nccn3C)C12

>  <smiles>  (9) 
[H]C(=C1C([H])([H])OC([H])([H])C2([H])C1([H])C([H])(C([H])([H])[H])C([H])([H])C2([H])[N+]([H])([H])C1([H])C([H])([H])C([H])([H])OC([H])([H])C1([H])[H])c1nc([H])c([H])n1C([H])([H])[H]

$$$$
1:3:0
     RDKit          3D

 54 57  0  0  1  0  0  0  0  0999 V2000
    6.2512   -6.0421    2.4137 C   0  0  0  0  0  0  0  0  0  0  0  0
    4.9791   -5.8906    1.5569 C   0  0  2  0  0  0  0  0  0  0  0  0
    5.2055   -5.0842    0.2502 C   0  0  0  0  0  0  0  0  0  0  0  0
    4.1891   -3.9280    0.2871 C   0  0  1  0  0  0  0  0  0  0  0  0
    3.7325   -3.4389   -1.0314 N   0  0  0  0  0  0  0  0  0  0  0  0
    4.7532   -2.8200   -1.9096 C   0  0  0  0  0  0  0  0  0  0  0  0
    4.5247   -1.2961   -2.0451 C   0  0  0  0  0  0  0  0  0  0  0  0
    3.2732   -0.9942   -2.8867 C   0  0  0  0  0  0  0  0  0  0  0  0
    3.4003   -1.6290   -4.1520 O   0  0  0  0  0  0  0  0  0  0  0  0
    3.4380   -3.0465   -4.0594 C   0  0  0  0  0  0  0  0  0  0  0  0
    4.7115   -3.4623   -3.3066 C   0  0  0  0  0  0  0  0  0  0  0  0
    3.0462   -4.4399    1.1805 C   0  0  1  0  0  0  0  0  0  0  0  0
    2.0641   -5.4104    0.4769 C   0  0  0  0  0  0  0  0  0  0  0  0
    1.2021   -6.0168    1.4319 O   0  0  0  0  0  0  0  0  0  0  0  0
    1.9180   -6.8504    2.3462 C   0  0  0  0  0  0  0  0  0  0  0  0
    2.9311   -6.0448    3.1602 C   0  0  0  0  0  0  0  0  0  0  0  0
    2.9171   -6.1149    4.5147 C   0  0  0  0  0  0  0  0  0  0  0  0
    3.7528   -5.4237    5.5101 C   0  0  0  0  0  0  0  0  0  0  0  0
    4.6764   -4.4954    5.2457 N   0  0  0  0  0  0  0  0  0  0  0  0
    5.2039   -4.1328    6.4784 C   0  0  0  0  0  0  0  0  0  0  0  0
    4.5894   -4.8614    7.4681 C   0  0  0  0  0  0  0  0  0  0  0  0
    3.6584   -5.6793    6.8317 N   0  0  0  0  0  0  0  0  0  0  0  0
    2.7821   -6.6195    7.5106 C   0  0  0  0  0  0  0  0  0  0  0  0
    3.8285   -5.1579    2.2917 C   0  0  1  0  0  0  0  0  0  0  0  0
    6.6323   -5.0807    2.7574 H   0  0  0  0  0  0  0  0  0  0  0  0
    7.0500   -6.5359    1.8598 H   0  0  0  0  0  0  0  0  0  0  0  0
    6.0553   -6.6463    3.2991 H   0  0  0  0  0  0  0  0  0  0  0  0
    4.6512   -6.8918    1.2684 H   0  0  0  0  0  0  0  0  0  0  0  0
    6.2212   -4.6938    0.1840 H   0  0  0  0  0  0  0  0  0  0  0  0
    5.0598   -5.7262   -0.6219 H   0  0  0  0  0  0  0  0  0  0  0  0
    4.6559   -3.0892    0.7995 H   0  0  0  0  0  0  0  0  0  0  0  0
    3.2943   -4.2022   -1.5265 H   0  0  0  0  0  0  0  0  0  0  0  0
    5.7514   -2.9786   -1.4968 H   0  0  0  0  0  0  0  0  0  0  0  0
    4.4676   -0.8079   -1.0684 H   0  0  0  0  0  0  0  0  0  0  0  0
    5.3841   -0.8526   -2.5493 H   0  0  0  0  0  0  0  0  0  0  0  0
    2.3777   -1.3404   -2.3737 H   0  0  0  0  0  0  0  0  0  0  0  0
    3.1595    0.0780   -3.0432 H   0  0  0  0  0  0  0  0  0  0  0  0
    2.5393   -3.4344   -3.5783 H   0  0  0  0  0  0  0  0  0  0  0  0
    3.4491   -3.4480   -5.0618 H   0  0  0  0  0  0  0  0  0  0  0  0
    5.5794   -3.1250   -3.8712 H   0  0  0  0  0  0  0  0  0  0  0  0
    4.7986   -4.5504   -3.2497 H   0  0  0  0  0  0  0  0  0  0  0  0
    2.4719   -3.6140    1.6069 H   0  0  0  0  0  0  0  0  0  0  0  0
    1.4386   -4.8708   -0.2347 H   0  0  0  0  0  0  0  0  0  0  0  0
    2.5823   -6.1858   -0.0886 H   0  0  0  0  0  0  0  0  0  0  0  0
    1.2059   -7.3422    3.0111 H   0  0  0  0  0  0  0  0  0  0  0  0
    2.4337   -7.6428    1.7967 H   0  0  0  0  0  0  0  0  0  0  0  0
    2.1725   -6.7862    4.9177 H   0  0  0  0  0  0  0  0  0  0  0  0
    5.9859   -3.3912    6.5610 H   0  0  0  0  0  0  0  0  0  0  0  0
    4.7436   -4.8668    8.5377 H   0  0  0  0  0  0  0  0  0  0  0  0
    2.8989   -6.5271    8.5946 H   0  0  0  0  0  0  0  0  0  0  0  0
    3.0365   -7.6386    7.2157 H   0  0  0  0  0  0  0  0  0  0  0  0
    1.7380   -6.4243    7.2578 H   0  0  0  0  0  0  0  0  0  0  0  0
    4.2730   -4.3564    2.8724 H   0  0  0  0  0  0  0  0  0  0  0  0
    3.0294   -2.7363   -0.8604 H   0  0  0  0  0  0  0  0  0  0  0  0
  1  2  1  0
  1 25  1  0
  1 26  1  0
  1 27  1  0
  2 24  1  0
  2  3  1  0
  2 28  1  6
  3  4  1  0
  3 29  1  0
  3 30  1  0
  4  5  1  0
  4 12  1  0
  4 31  1  1
  5  6  1  0
  5 32  1  0
  5 54  1  0
  6 11  1  0
  6  7  1  0
  6 33  1  0
  7  8  1  0
  7 34  1  0
  7 35  1  0
  8  9  1  0
  8 36  1  0
  8 37  1  0
  9 10  1  0
 10 11  1  0
 10 38  1  0
 10 39  1  0
 11 40  1  0
 11 41  1  0
 12 24  1  0
 12 13  1  0
 12 42  1  1
 13 14  1  0
 13 43  1  0
 13 44  1  0
 14 15  1  0
 15 16  1  0
 15 45  1  0
 15 46  1  0
 16 17  2  3
 16 24  1  0
 17 18  1  0
 17 47  1  0
 18 22  1  0
 18 19  2  0
 19 20  1  0
 20 21  2  0
 20 48  1  0
 21 22  1  0
 21 49  1  0
 22 23  1  0
 23 50  1  0
 23 51  1  0
 23 52  1  0
 24 53  1  1
M  CHG  1   5   1
M  END
>  <i_m_ct_stereo_status>  (10) 
1

>  <s_m_source_file>  (10) 
/var/tmp/pbs.5076255.sched01/tmpbdos_d33/0hajo06zg.sdf

>  <i_m_source_file_index>  (10) 
5

>  <i_lp_mmshare_version>  (10) 
48012

>  <i_f3d_flags>  (10) 
0

>  <s_epik_input>  (10) 
W0NIM11uMVtjSF1bY0hdbmMxL1tDSF09QyhcW0NIMl1PW0NIMl0yKVtDQEhdKFtDQEhdMjMpW0NASF0oW0NIM10pW0NIMl1bQ0BIXTNbTkhdW0NIXTRbQ0gyXVtDSDJdT1tDSDJdW0NIMl00

>  <s_epik_cmdline>  (10) 
J2VwaWtfcHl0aG9uJywgJy1waHQnLCAnMi4wJywgJy1waCcsICc3LjAnLCAnLXRuJywgJzgnLCAnLW1hJywgJzIwMCcsICctaW1hZScsICc8aW5maWxlLm1hZT4nLCAnLW9tYWUnLCAnPG91dGZpbGUubWFlPic=

>  <r_epik_Ionization_Penalty>  (10) 
1.98938

>  <r_epik_Ionization_Penalty_Charging>  (10) 
1.98938

>  <r_epik_Ionization_Penalty_Neutral>  (10) 
1.74801e-12

>  <r_epik_State_Penalty>  (10) 
2.11676

>  <r_epik_Charging_Adjusted_Penalty>  (10) 
4.10613

>  <i_epik_Tot_Q>  (10) 
1

>  <i_epik_Tot_abs_Q>  (10) 
1

>  <s_lp_Force_Field>  (10) 
OPLS3e

>  <r_lp_Energy>  (10) 
27.7362

>  <b_lp_Chiralities_Consistent>  (10) 
1

>  <s_lp_Variant>  (10) 
1:0-4

>  <s_i_glide_gridfile>  (10) 
pfpi4k_grid

>  <i_i_glide_lignum>  (10) 
5

>  <i_i_glide_rotatable_bonds>  (10) 
3

>  <r_i_docking_score>  (10) 
-3.23959

>  <r_i_glide_ligand_efficiency>  (10) 
-0.134983

>  <r_i_glide_ligand_efficiency_sa>  (10) 
-0.389358

>  <r_i_glide_ligand_efficiency_ln>  (10) 
-0.775382

>  <r_i_glide_gscore>  (10) 
-3.23959

>  <r_i_glide_lipo>  (10) 
-0.373654

>  <r_i_glide_hbond>  (10) 
-0.274554

>  <r_i_glide_metal>  (10) 
-0

>  <r_i_glide_rewards>  (10) 
-1.14232

>  <r_i_glide_evdw>  (10) 
-18.5243

>  <r_i_glide_ecoul>  (10) 
-6.89375

>  <r_i_glide_erotb>  (10) 
0.511212

>  <r_i_glide_esite>  (10) 
0

>  <r_i_glide_emodel>  (10) 
-30.6625

>  <r_i_glide_energy>  (10) 
-25.4181

>  <r_i_glide_einternal>  (10) 
1.35729

>  <r_i_glide_intrahb_reward>  (10) 
-0

>  <i_i_glide_confnum>  (10) 
4

>  <i_i_glide_posenum>  (10) 
38

>  <r_i_glide_eff_state_penalty>  (10) 
0

>  <ligand_id>  (10) 
1

>  <original_smiles>  (10) 
CC1CC(NC2CCOCC2)C2COCC(=Cc3nccn3C)C12

>  <smiles>  (10) 
[H]C(=C1C([H])([H])OC([H])([H])C2([H])C1([H])C([H])(C([H])([H])[H])C([H])([H])C2([H])[N+]([H])([H])C1([H])C([H])([H])C([H])([H])OC([H])([H])C1([H])[H])c1nc([H])c([H])n1C([H])([H])[H]

$$$$
1:3:1
     RDKit          3D

 54 57  0  0  1  0  0  0  0  0999 V2000
    5.7849   -5.8161    2.9942 C   0  0  0  0  0  0  0  0  0  0  0  0
    4.6347   -5.8506    1.9684 C   0  0  2  0  0  0  0  0  0  0  0  0
    5.0174   -5.2601    0.5850 C   0  0  0  0  0  0  0  0  0  0  0  0
    3.9882   -4.1446    0.3065 C   0  0  1  0  0  0  0  0  0  0  0  0
    3.7026   -3.8658   -1.1205 N   0  0  0  0  0  0  0  0  0  0  0  0
    4.8343   -3.4174   -1.9629 C   0  0  0  0  0  0  0  0  0  0  0  0
    5.1402   -1.9269   -1.7309 C   0  0  0  0  0  0  0  0  0  0  0  0
    4.0138   -1.0466   -2.3027 C   0  0  0  0  0  0  0  0  0  0  0  0
    3.8486   -1.3266   -3.6876 O   0  0  0  0  0  0  0  0  0  0  0  0
    3.4292   -2.6609   -3.9386 C   0  0  0  0  0  0  0  0  0  0  0  0
    4.5202   -3.6305   -3.4589 C   0  0  0  0  0  0  0  0  0  0  0  0
    2.7452   -4.5464    1.1187 C   0  0  1  0  0  0  0  0  0  0  0  0
    1.8739   -5.6468    0.4656 C   0  0  0  0  0  0  0  0  0  0  0  0
    0.9092   -6.1364    1.3894 O   0  0  0  0  0  0  0  0  0  0  0  0
    1.5118   -6.7817    2.5120 C   0  0  0  0  0  0  0  0  0  0  0  0
    2.3946   -5.8167    3.3012 C   0  0  0  0  0  0  0  0  0  0  0  0
    2.1988   -5.6606    4.6354 C   0  0  0  0  0  0  0  0  0  0  0  0
    2.8899   -4.7885    5.6008 C   0  0  0  0  0  0  0  0  0  0  0  0
    3.8746   -3.9334    5.3151 N   0  0  0  0  0  0  0  0  0  0  0  0
    4.2110   -3.3305    6.5213 C   0  0  0  0  0  0  0  0  0  0  0  0
    3.4182   -3.8460    7.5197 C   0  0  0  0  0  0  0  0  0  0  0  0
    2.5742   -4.7722    6.9130 N   0  0  0  0  0  0  0  0  0  0  0  0
    1.5667   -5.5562    7.6087 C   0  0  0  0  0  0  0  0  0  0  0  0
    3.3861   -5.0513    2.4203 C   0  0  1  0  0  0  0  0  0  0  0  0
    6.1063   -4.7993    3.2196 H   0  0  0  0  0  0  0  0  0  0  0  0
    6.6562   -6.3656    2.6371 H   0  0  0  0  0  0  0  0  0  0  0  0
    5.4840   -6.2742    3.9364 H   0  0  0  0  0  0  0  0  0  0  0  0
    4.3624   -6.8963    1.8141 H   0  0  0  0  0  0  0  0  0  0  0  0
    6.0274   -4.8490    0.5853 H   0  0  0  0  0  0  0  0  0  0  0  0
    5.0009   -6.0433   -0.1778 H   0  0  0  0  0  0  0  0  0  0  0  0
    4.3725   -3.2298    0.7555 H   0  0  0  0  0  0  0  0  0  0  0  0
    3.3481   -4.7204   -1.5411 H   0  0  0  0  0  0  0  0  0  0  0  0
    5.7175   -4.0160   -1.7378 H   0  0  0  0  0  0  0  0  0  0  0  0
    5.3035   -1.7062   -0.6758 H   0  0  0  0  0  0  0  0  0  0  0  0
    6.0733   -1.6818   -2.2362 H   0  0  0  0  0  0  0  0  0  0  0  0
    3.0747   -1.2110   -1.7713 H   0  0  0  0  0  0  0  0  0  0  0  0
    4.2606    0.0077   -2.1838 H   0  0  0  0  0  0  0  0  0  0  0  0
    2.4731   -2.8707   -3.4599 H   0  0  0  0  0  0  0  0  0  0  0  0
    3.2792   -2.7902   -5.0054 H   0  0  0  0  0  0  0  0  0  0  0  0
    5.4310   -3.4536   -4.0306 H   0  0  0  0  0  0  0  0  0  0  0  0
    4.2470   -4.6574   -3.6854 H   0  0  0  0  0  0  0  0  0  0  0  0
    2.1213   -3.6758    1.3271 H   0  0  0  0  0  0  0  0  0  0  0  0
    1.3367   -5.2472   -0.3949 H   0  0  0  0  0  0  0  0  0  0  0  0
    2.4829   -6.4734    0.1024 H   0  0  0  0  0  0  0  0  0  0  0  0
    0.7259   -7.1827    3.1541 H   0  0  0  0  0  0  0  0  0  0  0  0
    2.1069   -7.6338    2.1739 H   0  0  0  0  0  0  0  0  0  0  0  0
    1.4174   -6.2822    5.0485 H   0  0  0  0  0  0  0  0  0  0  0  0
    4.9931   -2.5885    6.5830 H   0  0  0  0  0  0  0  0  0  0  0  0
    3.3975   -3.6364    8.5793 H   0  0  0  0  0  0  0  0  0  0  0  0
    1.5098   -5.2467    8.6558 H   0  0  0  0  0  0  0  0  0  0  0  0
    1.8301   -6.6142    7.5683 H   0  0  0  0  0  0  0  0  0  0  0  0
    0.5862   -5.4129    7.1511 H   0  0  0  0  0  0  0  0  0  0  0  0
    3.7365   -4.1503    2.9123 H   0  0  0  0  0  0  0  0  0  0  0  0
    2.9833   -3.1591   -1.1720 H   0  0  0  0  0  0  0  0  0  0  0  0
  1  2  1  0
  1 25  1  0
  1 26  1  0
  1 27  1  0
  2 24  1  0
  2  3  1  0
  2 28  1  6
  3  4  1  0
  3 29  1  0
  3 30  1  0
  4  5  1  0
  4 12  1  0
  4 31  1  1
  5  6  1  0
  5 32  1  0
  5 54  1  0
  6 11  1  0
  6  7  1  0
  6 33  1  0
  7  8  1  0
  7 34  1  0
  7 35  1  0
  8  9  1  0
  8 36  1  0
  8 37  1  0
  9 10  1  0
 10 11  1  0
 10 38  1  0
 10 39  1  0
 11 40  1  0
 11 41  1  0
 12 24  1  0
 12 13  1  0
 12 42  1  1
 13 14  1  0
 13 43  1  0
 13 44  1  0
 14 15  1  0
 15 16  1  0
 15 45  1  0
 15 46  1  0
 16 17  2  3
 16 24  1  0
 17 18  1  0
 17 47  1  0
 18 22  1  0
 18 19  2  0
 19 20  1  0
 20 21  2  0
 20 48  1  0
 21 22  1  0
 21 49  1  0
 22 23  1  0
 23 50  1  0
 23 51  1  0
 23 52  1  0
 24 53  1  1
M  CHG  1   5   1
M  END
>  <i_m_ct_stereo_status>  (11) 
1

>  <s_m_source_file>  (11) 
/var/tmp/pbs.5076255.sched01/tmpbdos_d33/0hajo06zg.sdf

>  <i_m_source_file_index>  (11) 
5

>  <i_lp_mmshare_version>  (11) 
48012

>  <i_f3d_flags>  (11) 
0

>  <s_epik_input>  (11) 
W0NIM11uMVtjSF1bY0hdbmMxL1tDSF09QyhcW0NIMl1PW0NIMl0yKVtDQEhdKFtDQEhdMjMpW0NASF0oW0NIM10pW0NIMl1bQ0BIXTNbTkhdW0NIXTRbQ0gyXVtDSDJdT1tDSDJdW0NIMl00

>  <s_epik_cmdline>  (11) 
J2VwaWtfcHl0aG9uJywgJy1waHQnLCAnMi4wJywgJy1waCcsICc3LjAnLCAnLXRuJywgJzgnLCAnLW1hJywgJzIwMCcsICctaW1hZScsICc8aW5maWxlLm1hZT4nLCAnLW9tYWUnLCAnPG91dGZpbGUubWFlPic=

>  <r_epik_Ionization_Penalty>  (11) 
1.98938

>  <r_epik_Ionization_Penalty_Charging>  (11) 
1.98938

>  <r_epik_Ionization_Penalty_Neutral>  (11) 
1.74801e-12

>  <r_epik_State_Penalty>  (11) 
2.11676

>  <r_epik_Charging_Adjusted_Penalty>  (11) 
4.10613

>  <i_epik_Tot_Q>  (11) 
1

>  <i_epik_Tot_abs_Q>  (11) 
1

>  <s_lp_Force_Field>  (11) 
OPLS3e

>  <r_lp_Energy>  (11) 
27.7362

>  <b_lp_Chiralities_Consistent>  (11) 
1

>  <s_lp_Variant>  (11) 
1:0-4

>  <s_i_glide_gridfile>  (11) 
pfpi4k_grid

>  <i_i_glide_lignum>  (11) 
5

>  <i_i_glide_rotatable_bonds>  (11) 
3

>  <r_i_docking_score>  (11) 
-3.23574

>  <r_i_glide_ligand_efficiency>  (11) 
-0.134822

>  <r_i_glide_ligand_efficiency_sa>  (11) 
-0.388895

>  <r_i_glide_ligand_efficiency_ln>  (11) 
-0.774461

>  <r_i_glide_gscore>  (11) 
-3.23574

>  <r_i_glide_lipo>  (11) 
-0.34735

>  <r_i_glide_hbond>  (11) 
-0.16

>  <r_i_glide_metal>  (11) 
-0

>  <r_i_glide_rewards>  (11) 
-1.14232

>  <r_i_glide_evdw>  (11) 
-17.9789

>  <r_i_glide_ecoul>  (11) 
-7.87557

>  <r_i_glide_erotb>  (11) 
0.511212

>  <r_i_glide_esite>  (11) 
-0.0170035

>  <r_i_glide_emodel>  (11) 
-31.7307

>  <r_i_glide_energy>  (11) 
-25.8545

>  <r_i_glide_einternal>  (11) 
0.143551

>  <r_i_glide_intrahb_reward>  (11) 
-0

>  <i_i_glide_confnum>  (11) 
4

>  <i_i_glide_posenum>  (11) 
30

>  <r_i_glide_eff_state_penalty>  (11) 
0

>  <ligand_id>  (11) 
1

>  <original_smiles>  (11) 
CC1CC(NC2CCOCC2)C2COCC(=Cc3nccn3C)C12

>  <smiles>  (11) 
[H]C(=C1C([H])([H])OC([H])([H])C2([H])C1([H])C([H])(C([H])([H])[H])C([H])([H])C2([H])[N+]([H])([H])C1([H])C([H])([H])C([H])([H])OC([H])([H])C1([H])[H])c1nc([H])c([H])n1C([H])([H])[H]

$$$$
1:3:2
     RDKit          3D

 54 57  0  0  1  0  0  0  0  0999 V2000
    2.0076   -2.3432    5.2397 C   0  0  0  0  0  0  0  0  0  0  0  0
    2.0802   -1.0837    4.3596 C   0  0  2  0  0  0  0  0  0  0  0  0
    0.9244   -0.0845    4.6101 C   0  0  0  0  0  0  0  0  0  0  0  0
    0.2591    0.1597    3.2449 C   0  0  1  0  0  0  0  0  0  0  0  0
   -0.3913    1.4797    3.0437 N   0  0  0  0  0  0  0  0  0  0  0  0
   -1.6401    1.7197    3.8197 C   0  0  0  0  0  0  0  0  0  0  0  0
   -2.5707    2.7039    3.0835 C   0  0  0  0  0  0  0  0  0  0  0  0
   -1.9879    4.1252    3.0893 C   0  0  0  0  0  0  0  0  0  0  0  0
   -1.7542    4.5383    4.4300 O   0  0  0  0  0  0  0  0  0  0  0  0
   -0.8107    3.7227    5.1177 C   0  0  0  0  0  0  0  0  0  0  0  0
   -1.3542    2.2881    5.2221 C   0  0  0  0  0  0  0  0  0  0  0  0
    1.3703   -0.1405    2.2341 C   0  0  1  0  0  0  0  0  0  0  0  0
    2.3842    1.0116    2.0232 C   0  0  0  0  0  0  0  0  0  0  0  0
    3.4980    0.5435    1.2766 O   0  0  0  0  0  0  0  0  0  0  0  0
    4.2407   -0.4530    1.9549 C   0  0  0  0  0  0  0  0  0  0  0  0
    3.3949   -1.6956    2.1974 C   0  0  0  0  0  0  0  0  0  0  0  0
    3.8237   -2.9011    1.7545 C   0  0  0  0  0  0  0  0  0  0  0  0
    3.1902   -4.2253    1.8652 C   0  0  0  0  0  0  0  0  0  0  0  0
    2.1623   -4.5367    2.6568 N   0  0  0  0  0  0  0  0  0  0  0  0
    1.9014   -5.8868    2.4278 C   0  0  0  0  0  0  0  0  0  0  0  0
    2.7774   -6.3482    1.4741 C   0  0  0  0  0  0  0  0  0  0  0  0
    3.5895   -5.2770    1.1171 N   0  0  0  0  0  0  0  0  0  0  0  0
    4.6565   -5.3268    0.1350 C   0  0  0  0  0  0  0  0  0  0  0  0
    2.0402   -1.3840    2.8446 C   0  0  1  0  0  0  0  0  0  0  0  0
    1.1103   -2.9285    5.0427 H   0  0  0  0  0  0  0  0  0  0  0  0
    2.0147   -2.0922    6.2999 H   0  0  0  0  0  0  0  0  0  0  0  0
    2.8632   -2.9924    5.0608 H   0  0  0  0  0  0  0  0  0  0  0  0
    3.0093   -0.5648    4.6004 H   0  0  0  0  0  0  0  0  0  0  0  0
    0.1964   -0.4836    5.3152 H   0  0  0  0  0  0  0  0  0  0  0  0
    1.3290    0.8329    5.0415 H   0  0  0  0  0  0  0  0  0  0  0  0
   -0.5018   -0.6096    3.1225 H   0  0  0  0  0  0  0  0  0  0  0  0
    0.2662    2.2282    3.2102 H   0  0  0  0  0  0  0  0  0  0  0  0
   -2.1800    0.7779    3.9318 H   0  0  0  0  0  0  0  0  0  0  0  0
   -2.7729    2.3722    2.0663 H   0  0  0  0  0  0  0  0  0  0  0  0
   -3.5428    2.7286    3.5795 H   0  0  0  0  0  0  0  0  0  0  0  0
   -1.0607    4.1559    2.5229 H   0  0  0  0  0  0  0  0  0  0  0  0
   -2.6711    4.8252    2.6093 H   0  0  0  0  0  0  0  0  0  0  0  0
    0.1549    3.7362    4.6036 H   0  0  0  0  0  0  0  0  0  0  0  0
   -0.6391    4.1295    6.1144 H   0  0  0  0  0  0  0  0  0  0  0  0
   -2.2793    2.2992    5.8014 H   0  0  0  0  0  0  0  0  0  0  0  0
   -0.6706    1.6683    5.7983 H   0  0  0  0  0  0  0  0  0  0  0  0
    0.9323   -0.3957    1.2829 H   0  0  0  0  0  0  0  0  0  0  0  0
    1.9204    1.8114    1.4487 H   0  0  0  0  0  0  0  0  0  0  0  0
    2.7263    1.4465    2.9671 H   0  0  0  0  0  0  0  0  0  0  0  0
    5.1088   -0.7077    1.3462 H   0  0  0  0  0  0  0  0  0  0  0  0
    4.6184   -0.0608    2.9026 H   0  0  0  0  0  0  0  0  0  0  0  0
    4.8011   -2.8922    1.2863 H   0  0  0  0  0  0  0  0  0  0  0  0
    1.1196   -6.4129    2.9567 H   0  0  0  0  0  0  0  0  0  0  0  0
    2.8868   -7.3306    1.0396 H   0  0  0  0  0  0  0  0  0  0  0  0
    4.6618   -6.3016   -0.3572 H   0  0  0  0  0  0  0  0  0  0  0  0
    5.6225   -5.1711    0.6211 H   0  0  0  0  0  0  0  0  0  0  0  0
    4.5108   -4.5582   -0.6269 H   0  0  0  0  0  0  0  0  0  0  0  0
    1.3430   -2.1993    2.6746 H   0  0  0  0  0  0  0  0  0  0  0  0
   -0.6377    1.5201    2.0619 H   0  0  0  0  0  0  0  0  0  0  0  0
  1  2  1  0
  1 25  1  0
  1 26  1  0
  1 27  1  0
  2 24  1  0
  2  3  1  0
  2 28  1  6
  3  4  1  0
  3 29  1  0
  3 30  1  0
  4  5  1  0
  4 12  1  0
  4 31  1  6
  5  6  1  0
  5 32  1  0
  5 54  1  0
  6 11  1  0
  6  7  1  0
  6 33  1  0
  7  8  1  0
  7 34  1  0
  7 35  1  0
  8  9  1  0
  8 36  1  0
  8 37  1  0
  9 10  1  0
 10 11  1  0
 10 38  1  0
 10 39  1  0
 11 40  1  0
 11 41  1  0
 12 24  1  0
 12 13  1  0
 12 42  1  6
 13 14  1  0
 13 43  1  0
 13 44  1  0
 14 15  1  0
 15 16  1  0
 15 45  1  0
 15 46  1  0
 16 17  2  3
 16 24  1  0
 17 18  1  0
 17 47  1  0
 18 22  1  0
 18 19  2  0
 19 20  1  0
 20 21  2  0
 20 48  1  0
 21 22  1  0
 21 49  1  0
 22 23  1  0
 23 50  1  0
 23 51  1  0
 23 52  1  0
 24 53  1  1
M  CHG  1   5   1
M  END
>  <i_m_ct_stereo_status>  (12) 
1

>  <s_m_source_file>  (12) 
/var/tmp/pbs.5076255.sched01/tmpbdos_d33/0hajo06zg.sdf

>  <i_m_source_file_index>  (12) 
5

>  <i_lp_mmshare_version>  (12) 
48012

>  <i_f3d_flags>  (12) 
0

>  <s_epik_input>  (12) 
W0NIM11uMVtjSF1bY0hdbmMxL1tDSF09QyhcW0NIMl1PW0NIMl0yKVtDQEhdKFtDQEhdMjMpW0NASF0oW0NIM10pW0NIMl1bQ0BIXTNbTkhdW0NIXTRbQ0gyXVtDSDJdT1tDSDJdW0NIMl00

>  <s_epik_cmdline>  (12) 
J2VwaWtfcHl0aG9uJywgJy1waHQnLCAnMi4wJywgJy1waCcsICc3LjAnLCAnLXRuJywgJzgnLCAnLW1hJywgJzIwMCcsICctaW1hZScsICc8aW5maWxlLm1hZT4nLCAnLW9tYWUnLCAnPG91dGZpbGUubWFlPic=

>  <r_epik_Ionization_Penalty>  (12) 
1.98938

>  <r_epik_Ionization_Penalty_Charging>  (12) 
1.98938

>  <r_epik_Ionization_Penalty_Neutral>  (12) 
1.74801e-12

>  <r_epik_State_Penalty>  (12) 
2.11676

>  <r_epik_Charging_Adjusted_Penalty>  (12) 
4.10613

>  <i_epik_Tot_Q>  (12) 
1

>  <i_epik_Tot_abs_Q>  (12) 
1

>  <s_lp_Force_Field>  (12) 
OPLS3e

>  <r_lp_Energy>  (12) 
27.7362

>  <b_lp_Chiralities_Consistent>  (12) 
1

>  <s_lp_Variant>  (12) 
1:0-4

>  <s_i_glide_gridfile>  (12) 
pfpi4k_grid

>  <i_i_glide_lignum>  (12) 
5

>  <i_i_glide_rotatable_bonds>  (12) 
3

>  <r_i_docking_score>  (12) 
-2.58525

>  <r_i_glide_ligand_efficiency>  (12) 
-0.107719

>  <r_i_glide_ligand_efficiency_sa>  (12) 
-0.310715

>  <r_i_glide_ligand_efficiency_ln>  (12) 
-0.61877

>  <r_i_glide_gscore>  (12) 
-2.58525

>  <r_i_glide_lipo>  (12) 
-0.107616

>  <r_i_glide_hbond>  (12) 
-0.103008

>  <r_i_glide_metal>  (12) 
-0

>  <r_i_glide_rewards>  (12) 
-1.14775

>  <r_i_glide_evdw>  (12) 
-18.7398

>  <r_i_glide_ecoul>  (12) 
-5.05585

>  <r_i_glide_erotb>  (12) 
0.511212

>  <r_i_glide_esite>  (12) 
-0.0427192

>  <r_i_glide_emodel>  (12) 
-28.2478

>  <r_i_glide_energy>  (12) 
-23.7957

>  <r_i_glide_einternal>  (12) 
0.576603

>  <r_i_glide_intrahb_reward>  (12) 
-0

>  <i_i_glide_confnum>  (12) 
5

>  <i_i_glide_posenum>  (12) 
4

>  <r_i_glide_eff_state_penalty>  (12) 
0

>  <ligand_id>  (12) 
1

>  <original_smiles>  (12) 
CC1CC(NC2CCOCC2)C2COCC(=Cc3nccn3C)C12

>  <smiles>  (12) 
[H]C(=C1C([H])([H])OC([H])([H])C2([H])C1([H])C([H])(C([H])([H])[H])C([H])([H])C2([H])[N+]([H])([H])C1([H])C([H])([H])C([H])([H])OC([H])([H])C1([H])[H])c1nc([H])c([H])n1C([H])([H])[H]

$$$$
3:0:0
     RDKit          3D

 15 16  0  0  1  0  0  0  0  0999 V2000
    3.0084    0.4549   -5.1421 C   0  0  0  0  0  0  0  0  0  0  0  0
    3.4649    0.1429   -3.7849 N   0  0  0  0  0  0  0  0  0  0  0  0
    3.8926   -1.1581   -3.4420 C   0  0  0  0  0  0  0  0  0  0  0  0
    3.8417   -2.1646   -4.3233 N   0  0  0  0  0  0  0  0  0  0  0  0
    4.5650   -3.5186   -3.5675 S   0  0  0  0  0  0  0  0  0  0  0  0
    4.8576   -2.7165   -2.0489 C   0  0  0  0  0  0  0  0  0  0  0  0
    5.3381   -2.8182   -0.8458 N   0  0  0  0  0  0  0  0  0  0  0  0
    5.1232   -1.5536   -0.3219 C   0  0  0  0  0  0  0  0  0  0  0  0
    4.6002   -0.6607   -1.1640 N   0  0  0  0  0  0  0  0  0  0  0  0
    4.4190   -1.4587   -2.2230 N   0  0  0  0  0  0  0  0  0  0  0  0
    2.6627    1.4811   -5.1789 H   0  0  0  0  0  0  0  0  0  0  0  0
    2.1696   -0.1499   -5.4686 H   0  0  0  0  0  0  0  0  0  0  0  0
    3.7952    0.3754   -5.8846 H   0  0  0  0  0  0  0  0  0  0  0  0
    5.3982   -1.2682    0.6860 H   0  0  0  0  0  0  0  0  0  0  0  0
    3.3334    0.8510   -3.0650 H   0  0  0  0  0  0  0  0  0  0  0  0
  1  2  1  0
  1 11  1  0
  1 12  1  0
  1 13  1  0
  2  3  1  0
  2 15  1  0
  3 10  1  0
  3  4  2  0
  4  5  1  0
  5  6  1  0
  6 10  1  0
  6  7  2  0
  7  8  1  0
  8  9  2  0
  8 14  1  0
  9 10  1  0
M  END
>  <i_m_ct_stereo_status>  (13) 
1

>  <s_m_source_file>  (13) 
/var/tmp/pbs.5076255.sched01/tmpbdos_d33/0hajo06zg.sdf

>  <i_m_source_file_index>  (13) 
7

>  <i_lp_mmshare_version>  (13) 
48012

>  <i_f3d_flags>  (13) 
0

>  <s_epik_input>  (13) 
W0NIM10vTj1jKFxbbkhdczEpbihjMTIpbltjSF1uMg==

>  <s_epik_cmdline>  (13) 
J2VwaWtfcHl0aG9uJywgJy1waHQnLCAnMi4wJywgJy1waCcsICc3LjAnLCAnLXRuJywgJzgnLCAnLW1hJywgJzIwMCcsICctaW1hZScsICc8aW5maWxlLm1hZT4nLCAnLW9tYWUnLCAnPG91dGZpbGUubWFlPic=

>  <r_epik_Ionization_Penalty>  (13) 
0.0069277

>  <r_epik_Ionization_Penalty_Charging>  (13) 
0

>  <r_epik_Ionization_Penalty_Neutral>  (13) 
0.0069277

>  <r_epik_State_Penalty>  (13) 
0.00513983

>  <r_epik_Charging_Adjusted_Penalty>  (13) 
0.00513983

>  <i_epik_Tot_Q>  (13) 
0

>  <i_epik_Tot_abs_Q>  (13) 
0

>  <s_lp_Force_Field>  (13) 
OPLS3e

>  <r_lp_Energy>  (13) 
7.3675

>  <b_lp_Chiralities_Consistent>  (13) 
1

>  <s_lp_Variant>  (13) 
3:0-1

>  <s_i_glide_gridfile>  (13) 
pfpi4k_grid

>  <i_i_glide_lignum>  (13) 
7

>  <i_i_glide_rotatable_bonds>  (13) 
1

>  <r_i_docking_score>  (13) 
-4.95475

>  <r_i_glide_ligand_efficiency>  (13) 
-0.495475

>  <r_i_glide_ligand_efficiency_sa>  (13) 
-1.06747

>  <r_i_glide_ligand_efficiency_ln>  (13) 
-1.50027

>  <r_i_glide_gscore>  (13) 
-4.95475

>  <r_i_glide_lipo>  (13) 
-0.284036

>  <r_i_glide_hbond>  (13) 
-0.546522

>  <r_i_glide_metal>  (13) 
-0

>  <r_i_glide_rewards>  (13) 
-2.56065

>  <r_i_glide_evdw>  (13) 
-20.7944

>  <r_i_glide_ecoul>  (13) 
-3.13984

>  <r_i_glide_erotb>  (13) 
0

>  <r_i_glide_esite>  (13) 
-0.0528515

>  <r_i_glide_emodel>  (13) 
-31.1679

>  <r_i_glide_energy>  (13) 
-23.9343

>  <r_i_glide_einternal>  (13) 
0.107939

>  <r_i_glide_intrahb_reward>  (13) 
-0

>  <i_i_glide_confnum>  (13) 
2

>  <i_i_glide_posenum>  (13) 
33

>  <r_i_glide_eff_state_penalty>  (13) 
0

>  <ligand_id>  (13) 
3

>  <original_smiles>  (13) 
CN=c1[nH]sc2ncnn12

>  <smiles>  (13) 
[H]c1nc2snc(N([H])C([H])([H])[H])n2n1

$$$$
3:0:1
     RDKit          3D

 15 16  0  0  1  0  0  0  0  0999 V2000
    0.6267    0.9780    1.8207 C   0  0  0  0  0  0  0  0  0  0  0  0
   -0.0162    2.1431    2.4006 N   0  0  0  0  0  0  0  0  0  0  0  0
   -0.7901    2.1343    3.5661 C   0  0  0  0  0  0  0  0  0  0  0  0
   -1.3139    3.2940    3.9704 N   0  0  0  0  0  0  0  0  0  0  0  0
   -2.1567    2.9824    5.4280 S   0  0  0  0  0  0  0  0  0  0  0  0
   -1.7816    1.2689    5.4560 C   0  0  0  0  0  0  0  0  0  0  0  0
   -1.9492    0.1326    6.0846 N   0  0  0  0  0  0  0  0  0  0  0  0
   -1.2748   -0.7665    5.2835 C   0  0  0  0  0  0  0  0  0  0  0  0
   -0.6948   -0.2510    4.1968 N   0  0  0  0  0  0  0  0  0  0  0  0
   -1.0434    1.0436    4.3478 N   0  0  0  0  0  0  0  0  0  0  0  0
    1.1272    1.2629    0.8973 H   0  0  0  0  0  0  0  0  0  0  0  0
   -0.0889    0.1970    1.5593 H   0  0  0  0  0  0  0  0  0  0  0  0
    1.3827    0.5747    2.4977 H   0  0  0  0  0  0  0  0  0  0  0  0
   -1.2075   -1.8220    5.5150 H   0  0  0  0  0  0  0  0  0  0  0  0
    0.0365    3.0294    1.8830 H   0  0  0  0  0  0  0  0  0  0  0  0
  1  2  1  0
  1 11  1  0
  1 12  1  0
  1 13  1  0
  2  3  1  0
  2 15  1  0
  3 10  1  0
  3  4  2  0
  4  5  1  0
  5  6  1  0
  6 10  1  0
  6  7  2  0
  7  8  1  0
  8  9  2  0
  8 14  1  0
  9 10  1  0
M  END
>  <i_m_ct_stereo_status>  (14) 
1

>  <s_m_source_file>  (14) 
/var/tmp/pbs.5076255.sched01/tmpbdos_d33/0hajo06zg.sdf

>  <i_m_source_file_index>  (14) 
7

>  <i_lp_mmshare_version>  (14) 
48012

>  <i_f3d_flags>  (14) 
0

>  <s_epik_input>  (14) 
W0NIM10vTj1jKFxbbkhdczEpbihjMTIpbltjSF1uMg==

>  <s_epik_cmdline>  (14) 
J2VwaWtfcHl0aG9uJywgJy1waHQnLCAnMi4wJywgJy1waCcsICc3LjAnLCAnLXRuJywgJzgnLCAnLW1hJywgJzIwMCcsICctaW1hZScsICc8aW5maWxlLm1hZT4nLCAnLW9tYWUnLCAnPG91dGZpbGUubWFlPic=

>  <r_epik_Ionization_Penalty>  (14) 
0.0069277

>  <r_epik_Ionization_Penalty_Charging>  (14) 
0

>  <r_epik_Ionization_Penalty_Neutral>  (14) 
0.0069277

>  <r_epik_State_Penalty>  (14) 
0.00513983

>  <r_epik_Charging_Adjusted_Penalty>  (14) 
0.00513983

>  <i_epik_Tot_Q>  (14) 
0

>  <i_epik_Tot_abs_Q>  (14) 
0

>  <s_lp_Force_Field>  (14) 
OPLS3e

>  <r_lp_Energy>  (14) 
7.3675

>  <b_lp_Chiralities_Consistent>  (14) 
1

>  <s_lp_Variant>  (14) 
3:0-1

>  <s_i_glide_gridfile>  (14) 
pfpi4k_grid

>  <i_i_glide_lignum>  (14) 
7

>  <i_i_glide_rotatable_bonds>  (14) 
1

>  <r_i_docking_score>  (14) 
-4.27665

>  <r_i_glide_ligand_efficiency>  (14) 
-0.427665

>  <r_i_glide_ligand_efficiency_sa>  (14) 
-0.921377

>  <r_i_glide_ligand_efficiency_ln>  (14) 
-1.29494

>  <r_i_glide_gscore>  (14) 
-4.27665

>  <r_i_glide_lipo>  (14) 
-0.0056592

>  <r_i_glide_hbond>  (14) 
-0.32

>  <r_i_glide_metal>  (14) 
-0

>  <r_i_glide_rewards>  (14) 
-2.25

>  <r_i_glide_evdw>  (14) 
-13.7838

>  <r_i_glide_ecoul>  (14) 
-5.17416

>  <r_i_glide_erotb>  (14) 
0

>  <r_i_glide_esite>  (14) 
-0.235679

>  <r_i_glide_emodel>  (14) 
-24.1763

>  <r_i_glide_energy>  (14) 
-18.958

>  <r_i_glide_einternal>  (14) 
2.28088

>  <r_i_glide_intrahb_reward>  (14) 
-0

>  <i_i_glide_confnum>  (14) 
2

>  <i_i_glide_posenum>  (14) 
2

>  <r_i_glide_eff_state_penalty>  (14) 
0

>  <ligand_id>  (14) 
3

>  <original_smiles>  (14) 
CN=c1[nH]sc2ncnn12

>  <smiles>  (14) 
[H]c1nc2snc(N([H])C([H])([H])[H])n2n1

$$$$
3:0:2
     RDKit          3D

 15 16  0  0  1  0  0  0  0  0999 V2000
    3.2190    0.6618   -5.2176 C   0  0  0  0  0  0  0  0  0  0  0  0
    3.8854    0.2132   -3.9955 N   0  0  0  0  0  0  0  0  0  0  0  0
    3.5744   -1.0258   -3.4336 C   0  0  0  0  0  0  0  0  0  0  0  0
    2.6190   -1.7935   -3.9355 N   0  0  0  0  0  0  0  0  0  0  0  0
    2.4923   -3.1759   -2.9720 S   0  0  0  0  0  0  0  0  0  0  0  0
    3.8099   -2.7451   -1.9256 C   0  0  0  0  0  0  0  0  0  0  0  0
    4.5477   -3.0901   -0.9106 N   0  0  0  0  0  0  0  0  0  0  0  0
    5.4046   -2.0178   -0.7768 C   0  0  0  0  0  0  0  0  0  0  0  0
    5.2642   -1.0405   -1.6776 N   0  0  0  0  0  0  0  0  0  0  0  0
    4.2310   -1.5411   -2.3692 N   0  0  0  0  0  0  0  0  0  0  0  0
    3.5720    1.6510   -5.4884 H   0  0  0  0  0  0  0  0  0  0  0  0
    2.1372    0.7383   -5.1119 H   0  0  0  0  0  0  0  0  0  0  0  0
    3.4173    0.0117   -6.0705 H   0  0  0  0  0  0  0  0  0  0  0  0
    6.1664   -1.9436   -0.0033 H   0  0  0  0  0  0  0  0  0  0  0  0
    4.5309    0.8206   -3.5048 H   0  0  0  0  0  0  0  0  0  0  0  0
  1  2  1  0
  1 11  1  0
  1 12  1  0
  1 13  1  0
  2  3  1  0
  2 15  1  0
  3 10  1  0
  3  4  2  0
  4  5  1  0
  5  6  1  0
  6 10  1  0
  6  7  2  0
  7  8  1  0
  8  9  2  0
  8 14  1  0
  9 10  1  0
M  END
>  <i_m_ct_stereo_status>  (15) 
1

>  <s_m_source_file>  (15) 
/var/tmp/pbs.5076255.sched01/tmpbdos_d33/0hajo06zg.sdf

>  <i_m_source_file_index>  (15) 
7

>  <i_lp_mmshare_version>  (15) 
48012

>  <i_f3d_flags>  (15) 
0

>  <s_epik_input>  (15) 
W0NIM10vTj1jKFxbbkhdczEpbihjMTIpbltjSF1uMg==

>  <s_epik_cmdline>  (15) 
J2VwaWtfcHl0aG9uJywgJy1waHQnLCAnMi4wJywgJy1waCcsICc3LjAnLCAnLXRuJywgJzgnLCAnLW1hJywgJzIwMCcsICctaW1hZScsICc8aW5maWxlLm1hZT4nLCAnLW9tYWUnLCAnPG91dGZpbGUubWFlPic=

>  <r_epik_Ionization_Penalty>  (15) 
0.0069277

>  <r_epik_Ionization_Penalty_Charging>  (15) 
0

>  <r_epik_Ionization_Penalty_Neutral>  (15) 
0.0069277

>  <r_epik_State_Penalty>  (15) 
0.00513983

>  <r_epik_Charging_Adjusted_Penalty>  (15) 
0.00513983

>  <i_epik_Tot_Q>  (15) 
0

>  <i_epik_Tot_abs_Q>  (15) 
0

>  <s_lp_Force_Field>  (15) 
OPLS3e

>  <r_lp_Energy>  (15) 
7.3675

>  <b_lp_Chiralities_Consistent>  (15) 
1

>  <s_lp_Variant>  (15) 
3:0-1

>  <s_i_glide_gridfile>  (15) 
pfpi4k_grid

>  <i_i_glide_lignum>  (15) 
7

>  <i_i_glide_rotatable_bonds>  (15) 
1

>  <r_i_docking_score>  (15) 
-3.861

>  <r_i_glide_ligand_efficiency>  (15) 
-0.3861

>  <r_i_glide_ligand_efficiency_sa>  (15) 
-0.831828

>  <r_i_glide_ligand_efficiency_ln>  (15) 
-1.16909

>  <r_i_glide_gscore>  (15) 
-3.861

>  <r_i_glide_lipo>  (15) 
-0.317841

>  <r_i_glide_hbond>  (15) 
0

>  <r_i_glide_metal>  (15) 
-0

>  <r_i_glide_rewards>  (15) 
-2.48877

>  <r_i_glide_evdw>  (15) 
-19.6639

>  <r_i_glide_ecoul>  (15) 
0.0474088

>  <r_i_glide_erotb>  (15) 
0

>  <r_i_glide_esite>  (15) 
-0.0783049

>  <r_i_glide_emodel>  (15) 
-25.1914

>  <r_i_glide_energy>  (15) 
-19.6165

>  <r_i_glide_einternal>  (15) 
0.138256

>  <r_i_glide_intrahb_reward>  (15) 
-0

>  <i_i_glide_confnum>  (15) 
1

>  <i_i_glide_posenum>  (15) 
6

>  <r_i_glide_eff_state_penalty>  (15) 
0

>  <ligand_id>  (15) 
3

>  <original_smiles>  (15) 
CN=c1[nH]sc2ncnn12

>  <smiles>  (15) 
[H]c1nc2snc(N([H])C([H])([H])[H])n2n1

$$$$
4:0:0
     RDKit          3D

 79 84  0  0  1  0  0  0  0  0999 V2000
    0.4127   -1.4104    4.2226 C   0  0  0  0  0  0  0  0  0  0  0  0
    1.5089   -1.6158    3.4794 C   0  0  0  0  0  0  0  0  0  0  0  0
    1.6212   -1.0145    2.0883 C   0  0  0  0  0  0  0  0  0  0  0  0
    2.7344   -2.4331    3.9152 C   0  0  2  0  0  0  0  0  0  0  0  0
    2.8241   -3.7939    3.2062 C   0  0  0  0  0  0  0  0  0  0  0  0
    3.5357   -4.7496    4.2025 C   0  0  1  0  0  0  0  0  0  0  0  0
    2.8636   -4.3108    5.5629 C   0  0  1  0  0  0  0  0  0  0  0  0
    3.6951   -4.5840    6.6781 O   0  0  0  0  0  0  0  0  0  0  0  0
    2.8991   -2.7635    5.4157 C   0  0  0  0  0  0  0  0  0  0  0  0
    1.4015   -4.8143    5.8458 C   0  0  0  0  0  0  0  0  0  0  0  0
    0.5615   -4.0385    6.3052 O   0  0  0  0  0  0  0  0  0  0  0  0
    1.0485   -6.2156    5.5641 C   0  0  0  0  0  0  0  0  0  0  0  0
   -0.1587   -6.3827    4.6610 C   0  0  0  0  0  0  0  0  0  0  0  0
    1.9272   -7.1474    5.9924 C   0  0  0  0  0  0  0  0  0  0  0  0
    2.3327   -8.5191    5.4505 C   0  0  2  0  0  0  0  0  0  0  0  0
    1.9499   -9.4448    6.4469 O   0  0  0  0  0  0  0  0  0  0  0  0
    3.9052   -8.4217    5.4053 C   0  0  1  0  0  0  0  0  0  0  0  0
    4.7103   -9.7488    5.3358 C   0  0  0  0  0  0  0  0  0  0  0  0
    4.5161   -7.1555    4.6577 C   0  0  1  0  0  0  0  0  0  0  0  0
    5.9938   -7.2735    4.1394 C   0  0  0  0  0  0  0  0  0  0  0  0
    6.4215   -6.2238    3.0623 C   0  0  1  0  0  0  0  0  0  0  0  0
    7.8295   -6.5346    2.5091 C   0  0  0  0  0  0  0  0  0  0  0  0
    5.3125   -5.9734    1.9801 C   0  0  1  0  0  0  0  0  0  0  0  0
    5.7477   -6.0632    0.6378 O   0  0  0  0  0  0  0  0  0  0  0  0
    4.0873   -6.8244    2.3127 C   0  0  2  0  0  0  0  0  0  0  0  0
    2.7892   -6.4170    2.5862 O   0  0  0  0  0  0  0  0  0  0  0  0
    3.6189   -6.2597    3.7413 C   0  0  2  0  0  0  0  0  0  0  0  0
    3.9752   -8.1738    1.5179 C   0  0  1  0  0  0  0  0  0  0  0  0
    5.2196   -9.0803    1.4409 C   0  0  0  0  0  0  0  0  0  0  0  0
    2.6754   -9.0230    1.6784 C   0  0  0  0  0  0  0  0  0  0  0  0
    2.4545   -9.6715    3.0368 C   0  0  1  0  0  0  0  0  0  0  0  0
    1.7163   -8.8514    4.0728 C   0  0  1  0  0  0  0  0  0  0  0  0
    1.1216  -10.1602    3.5678 C   0  0  0  0  0  0  0  0  0  0  0  0
   -0.1190  -10.1002    2.6955 C   0  0  0  0  0  0  0  0  0  0  0  0
    1.1001  -11.4339    4.4027 C   0  0  0  0  0  0  0  0  0  0  0  0
   -0.4042   -0.8200    3.8353 H   0  0  0  0  0  0  0  0  0  0  0  0
    0.2886   -1.8119    5.2148 H   0  0  0  0  0  0  0  0  0  0  0  0
    2.4747   -0.3393    2.0256 H   0  0  0  0  0  0  0  0  0  0  0  0
    0.7311   -0.4408    1.8299 H   0  0  0  0  0  0  0  0  0  0  0  0
    1.7418   -1.7937    1.3375 H   0  0  0  0  0  0  0  0  0  0  0  0
    3.6043   -1.8354    3.6391 H   0  0  0  0  0  0  0  0  0  0  0  0
    1.8130   -4.1552    2.9996 H   0  0  0  0  0  0  0  0  0  0  0  0
    3.3259   -3.6930    2.2443 H   0  0  0  0  0  0  0  0  0  0  0  0
    4.5670   -4.4086    4.2670 H   0  0  0  0  0  0  0  0  0  0  0  0
    3.7865   -5.5199    6.7663 H   0  0  0  0  0  0  0  0  0  0  0  0
    3.8878   -2.4074    5.7152 H   0  0  0  0  0  0  0  0  0  0  0  0
    2.2215   -2.2311    6.0776 H   0  0  0  0  0  0  0  0  0  0  0  0
   -0.9828   -5.7723    5.0315 H   0  0  0  0  0  0  0  0  0  0  0  0
   -0.5192   -7.4105    4.6527 H   0  0  0  0  0  0  0  0  0  0  0  0
    0.0768   -6.0602    3.6463 H   0  0  0  0  0  0  0  0  0  0  0  0
    2.6336   -6.8054    6.7275 H   0  0  0  0  0  0  0  0  0  0  0  0
    2.1210  -10.3306    6.1550 H   0  0  0  0  0  0  0  0  0  0  0  0
    4.1498   -8.2091    6.4484 H   0  0  0  0  0  0  0  0  0  0  0  0
    4.9573  -10.0893    4.3382 H   0  0  0  0  0  0  0  0  0  0  0  0
    4.1924  -10.5671    5.8354 H   0  0  0  0  0  0  0  0  0  0  0  0
    5.6667   -9.6400    5.8521 H   0  0  0  0  0  0  0  0  0  0  0  0
    4.7001   -6.4975    5.5023 H   0  0  0  0  0  0  0  0  0  0  0  0
    6.6605   -7.1737    4.9956 H   0  0  0  0  0  0  0  0  0  0  0  0
    6.2018   -8.2650    3.7613 H   0  0  0  0  0  0  0  0  0  0  0  0
    6.5435   -5.2827    3.5955 H   0  0  0  0  0  0  0  0  0  0  0  0
    7.8670   -7.4923    1.9927 H   0  0  0  0  0  0  0  0  0  0  0  0
    8.5614   -6.5834    3.3166 H   0  0  0  0  0  0  0  0  0  0  0  0
    8.1697   -5.7683    1.8117 H   0  0  0  0  0  0  0  0  0  0  0  0
    5.0395   -4.9262    2.0590 H   0  0  0  0  0  0  0  0  0  0  0  0
    5.0369   -5.7834    0.0774 H   0  0  0  0  0  0  0  0  0  0  0  0
    3.8791   -7.8283    0.4864 H   0  0  0  0  0  0  0  0  0  0  0  0
    5.4010   -9.6350    2.3515 H   0  0  0  0  0  0  0  0  0  0  0  0
    6.1237   -8.5362    1.1843 H   0  0  0  0  0  0  0  0  0  0  0  0
    5.0889   -9.8347    0.6638 H   0  0  0  0  0  0  0  0  0  0  0  0
    1.8126   -8.4146    1.4061 H   0  0  0  0  0  0  0  0  0  0  0  0
    2.6901   -9.8312    0.9449 H   0  0  0  0  0  0  0  0  0  0  0  0
    3.2350  -10.3738    3.2906 H   0  0  0  0  0  0  0  0  0  0  0  0
    1.2986   -7.9817    3.5971 H   0  0  0  0  0  0  0  0  0  0  0  0
   -1.0200  -10.1285    3.3037 H   0  0  0  0  0  0  0  0  0  0  0  0
   -0.1431  -10.9463    2.0067 H   0  0  0  0  0  0  0  0  0  0  0  0
   -0.1487   -9.1815    2.1097 H   0  0  0  0  0  0  0  0  0  0  0  0
    0.2856  -11.4001    5.1292 H   0  0  0  0  0  0  0  0  0  0  0  0
    2.0395  -11.5781    4.9378 H   0  0  0  0  0  0  0  0  0  0  0  0
    0.9529  -12.3023    3.7622 H   0  0  0  0  0  0  0  0  0  0  0  0
  1  2  2  0
  1 36  1  0
  1 37  1  0
  2  3  1  0
  2  4  1  0
  3 38  1  0
  3 39  1  0
  3 40  1  0
  4  9  1  0
  4  5  1  0
  4 41  1  6
  5  6  1  0
  5 42  1  0
  5 43  1  0
  6 27  1  0
  6  7  1  0
  6 44  1  1
  7  8  1  1
  7  9  1  0
  7 10  1  0
  8 45  1  0
  9 46  1  0
  9 47  1  0
 10 11  2  0
 10 12  1  0
 12 13  1  0
 12 14  2  3
 13 48  1  0
 13 49  1  0
 13 50  1  0
 14 15  1  0
 14 51  1  0
 15 32  1  0
 15 16  1  1
 15 17  1  0
 16 52  1  0
 17 18  1  0
 17 19  1  0
 17 53  1  1
 18 54  1  0
 18 55  1  0
 18 56  1  0
 19 27  1  0
 19 20  1  0
 19 57  1  1
 20 21  1  0
 20 58  1  0
 20 59  1  0
 21 22  1  0
 21 23  1  0
 21 60  1  1
 22 61  1  0
 22 62  1  0
 22 63  1  0
 23 24  1  0
 23 25  1  0
 23 64  1  1
 24 65  1  0
 25 27  1  0
 25 26  1  6
 25 28  1  0
 27 26  1  1
 28 29  1  0
 28 30  1  0
 28 66  1  6
 29 67  1  0
 29 68  1  0
 29 69  1  0
 30 31  1  0
 30 70  1  0
 30 71  1  0
 31 33  1  0
 31 32  1  0
 31 72  1  1
 32 33  1  0
 32 73  1  6
 33 34  1  0
 33 35  1  0
 34 74  1  0
 34 75  1  0
 34 76  1  0
 35 77  1  0
 35 78  1  0
 35 79  1  0
M  END
>  <i_m_ct_stereo_status>  (16) 
1

>  <s_m_source_file>  (16) 
/var/tmp/pbs.5076255.sched01/tmpbdos_d33/0hajo06zg.sdf

>  <i_m_source_file_index>  (16) 
8

>  <i_lp_mmshare_version>  (16) 
48012

>  <i_f3d_flags>  (16) 
0

>  <s_epik_input>  (16) 
W0NIMl09QyhbQ0gzXSlbQ0BIXShbQ0gyXTEpW0NIMl1bQ0BdKFtPSF0pKFtDQEhdMUMyKFtDQF0zNDUpTzQpQyg9TykvQyhbQ0gzXSk9W0NIXS9bQ0BAXShbT0hdKShbQ0BIXTZbQ0BASF0oQzYoW0NIM10pW0NIM10pW0NIMl1bQ0BASF01W0NIM10pW0NAQEhdKFtDSDNdKVtDQEhdMltDSDJdW0NAQEhdKFtDSDNdKVtDQEhdM1tPSF0=

>  <s_epik_cmdline>  (16) 
J2VwaWtfcHl0aG9uJywgJy1waHQnLCAnMi4wJywgJy1waCcsICc3LjAnLCAnLXRuJywgJzgnLCAnLW1hJywgJzIwMCcsICctaW1hZScsICc8aW5maWxlLm1hZT4nLCAnLW9tYWUnLCAnPG91dGZpbGUubWFlPic=

>  <r_lp_tautomer_probability>  (16) 
1

>  <r_epik_Ionization_Penalty>  (16) 
3.32462e-07

>  <r_epik_Ionization_Penalty_Charging>  (16) 
0

>  <r_epik_Ionization_Penalty_Neutral>  (16) 
3.32462e-07

>  <r_epik_State_Penalty>  (16) 
-0

>  <r_epik_Charging_Adjusted_Penalty>  (16) 
0

>  <i_epik_Tot_Q>  (16) 
0

>  <i_epik_Tot_abs_Q>  (16) 
0

>  <s_lp_Force_Field>  (16) 
OPLS3e

>  <r_lp_Energy>  (16) 
142.853

>  <b_lp_Chiralities_Consistent>  (16) 
1

>  <s_lp_Variant>  (16) 
4:0-1

>  <s_i_glide_gridfile>  (16) 
pfpi4k_grid

>  <i_i_glide_lignum>  (16) 
8

>  <i_i_glide_rotatable_bonds>  (16) 
4

>  <r_i_docking_score>  (16) 
-2.06101

>  <r_i_glide_ligand_efficiency>  (16) 
-0.0588861

>  <r_i_glide_ligand_efficiency_sa>  (16) 
-0.19262

>  <r_i_glide_ligand_efficiency_ln>  (16) 
-0.452438

>  <r_i_glide_gscore>  (16) 
-2.06101

>  <r_i_glide_lipo>  (16) 
-0.278559

>  <r_i_glide_hbond>  (16) 
0

>  <r_i_glide_metal>  (16) 
-0

>  <r_i_glide_rewards>  (16) 
-0.104541

>  <r_i_glide_evdw>  (16) 
-28.8307

>  <r_i_glide_ecoul>  (16) 
-2.15224

>  <r_i_glide_erotb>  (16) 
0.0864596

>  <r_i_glide_esite>  (16) 
0

>  <r_i_glide_emodel>  (16) 
-33.8533

>  <r_i_glide_energy>  (16) 
-30.983

>  <r_i_glide_einternal>  (16) 
2.25804

>  <r_i_glide_intrahb_reward>  (16) 
-0

>  <i_i_glide_confnum>  (16) 
4

>  <i_i_glide_posenum>  (16) 
9

>  <r_i_glide_eff_state_penalty>  (16) 
0

>  <ligand_id>  (16) 
4

>  <original_smiles>  (16) 
C=C(C)C1CC2C(O)(C1)C(=O)C(C)=CC1(O)C(C)C3CC(C)C(O)C4(OC324)C(C)CC2C1C2(C)C

>  <smiles>  (16) 
[H]OC1([H])C([H])(C([H])([H])[H])C([H])([H])C2([H])C([H])(C([H])([H])[H])C3(O[H])C([H])=C(C([H])([H])[H])C(=O)C4(O[H])C([H])([H])C([H])(C(=C([H])[H])C([H])([H])[H])C([H])([H])C4([H])C24OC14C([H])(C([H])([H])[H])C([H])([H])C1([H])C3([H])C1(C([H])([H])[H])C([H])([H])[H]

$$$$
4:0:1
     RDKit          3D

 79 84  0  0  1  0  0  0  0  0999 V2000
    1.5312   -0.5560    2.5182 C   0  0  0  0  0  0  0  0  0  0  0  0
    1.5105   -1.5471    3.4206 C   0  0  0  0  0  0  0  0  0  0  0  0
    0.2117   -1.9311    4.0936 C   0  0  0  0  0  0  0  0  0  0  0  0
    2.7710   -2.3403    3.7978 C   0  0  2  0  0  0  0  0  0  0  0  0
    2.8410   -3.7139    3.1136 C   0  0  0  0  0  0  0  0  0  0  0  0
    3.5806   -4.6527    4.1043 C   0  0  1  0  0  0  0  0  0  0  0  0
    2.9495   -4.1956    5.4820 C   0  0  1  0  0  0  0  0  0  0  0  0
    3.8000   -4.4746    6.5832 O   0  0  0  0  0  0  0  0  0  0  0  0
    2.9841   -2.6459    5.3000 C   0  0  0  0  0  0  0  0  0  0  0  0
    1.5048   -4.7107    5.8259 C   0  0  0  0  0  0  0  0  0  0  0  0
    0.6925   -3.9509    6.3567 O   0  0  0  0  0  0  0  0  0  0  0  0
    1.1423   -6.1087    5.5487 C   0  0  0  0  0  0  0  0  0  0  0  0
   -0.0944   -6.2862    4.6877 C   0  0  0  0  0  0  0  0  0  0  0  0
    2.0328   -7.0350    5.9617 C   0  0  0  0  0  0  0  0  0  0  0  0
    2.4207   -8.4120    5.4245 C   0  0  2  0  0  0  0  0  0  0  0  0
    2.0650   -9.3281    6.4373 O   0  0  0  0  0  0  0  0  0  0  0  0
    3.9897   -8.3112    5.3328 C   0  0  1  0  0  0  0  0  0  0  0  0
    4.7949   -9.6369    5.2527 C   0  0  0  0  0  0  0  0  0  0  0  0
    4.5753   -7.0514    4.5571 C   0  0  1  0  0  0  0  0  0  0  0  0
    6.0357   -7.1724    3.9934 C   0  0  0  0  0  0  0  0  0  0  0  0
    6.4296   -6.1346    2.8926 C   0  0  1  0  0  0  0  0  0  0  0  0
    7.8205   -6.4486    2.3000 C   0  0  0  0  0  0  0  0  0  0  0  0
    5.2889   -5.8992    1.8405 C   0  0  1  0  0  0  0  0  0  0  0  0
    5.6848   -6.0015    0.4852 O   0  0  0  0  0  0  0  0  0  0  0  0
    4.0792   -6.7484    2.2244 C   0  0  2  0  0  0  0  0  0  0  0  0
    2.7885   -6.3371    2.5277 O   0  0  0  0  0  0  0  0  0  0  0  0
    3.6504   -6.1670    3.6591 C   0  0  2  0  0  0  0  0  0  0  0  0
    3.9451   -8.1058    1.4495 C   0  0  1  0  0  0  0  0  0  0  0  0
    5.1864   -9.0141    1.3391 C   0  0  0  0  0  0  0  0  0  0  0  0
    2.6513   -8.9544    1.6533 C   0  0  0  0  0  0  0  0  0  0  0  0
    2.4735   -9.5892    3.0224 C   0  0  1  0  0  0  0  0  0  0  0  0
    1.7628   -8.7607    4.0703 C   0  0  1  0  0  0  0  0  0  0  0  0
    1.1598  -10.0763    3.5964 C   0  0  0  0  0  0  0  0  0  0  0  0
   -0.1064  -10.0239    2.7656 C   0  0  0  0  0  0  0  0  0  0  0  0
    1.1634  -11.3453    4.4417 C   0  0  0  0  0  0  0  0  0  0  0  0
    0.6237   -0.0282    2.2602 H   0  0  0  0  0  0  0  0  0  0  0  0
    2.4364   -0.2540    2.0100 H   0  0  0  0  0  0  0  0  0  0  0  0
   -0.0132   -2.9796    3.9071 H   0  0  0  0  0  0  0  0  0  0  0  0
   -0.6189   -1.3407    3.7110 H   0  0  0  0  0  0  0  0  0  0  0  0
    0.2590   -1.7471    5.1621 H   0  0  0  0  0  0  0  0  0  0  0  0
    3.6268   -1.7496    3.4631 H   0  0  0  0  0  0  0  0  0  0  0  0
    1.8288   -4.0825    2.9369 H   0  0  0  0  0  0  0  0  0  0  0  0
    3.3108   -3.6266    2.1339 H   0  0  0  0  0  0  0  0  0  0  0  0
    4.6131   -4.3119    4.1311 H   0  0  0  0  0  0  0  0  0  0  0  0
    4.6668   -4.1463    6.3932 H   0  0  0  0  0  0  0  0  0  0  0  0
    3.9756   -2.2779    5.5726 H   0  0  0  0  0  0  0  0  0  0  0  0
    2.3069   -2.1071    5.9561 H   0  0  0  0  0  0  0  0  0  0  0  0
   -0.9053   -5.6687    5.0780 H   0  0  0  0  0  0  0  0  0  0  0  0
   -0.4584   -7.3146    4.6997 H   0  0  0  0  0  0  0  0  0  0  0  0
    0.1074   -5.9750    3.6614 H   0  0  0  0  0  0  0  0  0  0  0  0
    2.7689   -6.6735    6.6583 H   0  0  0  0  0  0  0  0  0  0  0  0
    2.1922  -10.2171    6.1257 H   0  0  0  0  0  0  0  0  0  0  0  0
    4.2630   -8.0869    6.3663 H   0  0  0  0  0  0  0  0  0  0  0  0
    5.0122   -9.9879    4.2512 H   0  0  0  0  0  0  0  0  0  0  0  0
    4.2928  -10.4495    5.7766 H   0  0  0  0  0  0  0  0  0  0  0  0
    5.7658   -9.5191    5.7401 H   0  0  0  0  0  0  0  0  0  0  0  0
    4.7783   -6.3833    5.3913 H   0  0  0  0  0  0  0  0  0  0  0  0
    6.7287   -7.0614    4.8262 H   0  0  0  0  0  0  0  0  0  0  0  0
    6.2341   -8.1673    3.6200 H   0  0  0  0  0  0  0  0  0  0  0  0
    6.5648   -5.1875    3.4105 H   0  0  0  0  0  0  0  0  0  0  0  0
    7.8442   -7.4120    1.7937 H   0  0  0  0  0  0  0  0  0  0  0  0
    8.5763   -6.4876    3.0861 H   0  0  0  0  0  0  0  0  0  0  0  0
    8.1389   -5.6891    1.5838 H   0  0  0  0  0  0  0  0  0  0  0  0
    5.0130   -4.8520    1.9168 H   0  0  0  0  0  0  0  0  0  0  0  0
    4.9568   -5.7413   -0.0585 H   0  0  0  0  0  0  0  0  0  0  0  0
    3.8190   -7.7657    0.4196 H   0  0  0  0  0  0  0  0  0  0  0  0
    5.3973   -9.5591    2.2484 H   0  0  0  0  0  0  0  0  0  0  0  0
    6.0811   -8.4706    1.0491 H   0  0  0  0  0  0  0  0  0  0  0  0
    5.0322   -9.7745    0.5722 H   0  0  0  0  0  0  0  0  0  0  0  0
    1.7797   -8.3488    1.3982 H   0  0  0  0  0  0  0  0  0  0  0  0
    2.6468   -9.7699    0.9276 H   0  0  0  0  0  0  0  0  0  0  0  0
    3.2630  -10.2878    3.2595 H   0  0  0  0  0  0  0  0  0  0  0  0
    1.3312   -7.8944    3.5997 H   0  0  0  0  0  0  0  0  0  0  0  0
   -0.9795  -10.0442    3.4123 H   0  0  0  0  0  0  0  0  0  0  0  0
   -0.1501  -10.8775    2.0865 H   0  0  0  0  0  0  0  0  0  0  0  0
   -0.1558   -9.1115    2.1706 H   0  0  0  0  0  0  0  0  0  0  0  0
    0.3693  -11.3019    5.1901 H   0  0  0  0  0  0  0  0  0  0  0  0
    2.1178  -11.4789    4.9525 H   0  0  0  0  0  0  0  0  0  0  0  0
    1.0015  -12.2268    3.8195 H   0  0  0  0  0  0  0  0  0  0  0  0
  1  2  2  0
  1 36  1  0
  1 37  1  0
  2  3  1  0
  2  4  1  0
  3 38  1  0
  3 39  1  0
  3 40  1  0
  4  9  1  0
  4  5  1  0
  4 41  1  6
  5  6  1  0
  5 42  1  0
  5 43  1  0
  6 27  1  0
  6  7  1  0
  6 44  1  1
  7  8  1  1
  7  9  1  0
  7 10  1  0
  8 45  1  0
  9 46  1  0
  9 47  1  0
 10 11  2  0
 10 12  1  0
 12 13  1  0
 12 14  2  3
 13 48  1  0
 13 49  1  0
 13 50  1  0
 14 15  1  0
 14 51  1  0
 15 32  1  0
 15 16  1  1
 15 17  1  0
 16 52  1  0
 17 18  1  0
 17 19  1  0
 17 53  1  1
 18 54  1  0
 18 55  1  0
 18 56  1  0
 19 27  1  0
 19 20  1  0
 19 57  1  1
 20 21  1  0
 20 58  1  0
 20 59  1  0
 21 22  1  0
 21 23  1  0
 21 60  1  1
 22 61  1  0
 22 62  1  0
 22 63  1  0
 23 24  1  0
 23 25  1  0
 23 64  1  6
 24 65  1  0
 25 27  1  0
 25 26  1  6
 25 28  1  0
 27 26  1  1
 28 29  1  0
 28 30  1  0
 28 66  1  6
 29 67  1  0
 29 68  1  0
 29 69  1  0
 30 31  1  0
 30 70  1  0
 30 71  1  0
 31 33  1  0
 31 32  1  0
 31 72  1  1
 32 33  1  0
 32 73  1  6
 33 34  1  0
 33 35  1  0
 34 74  1  0
 34 75  1  0
 34 76  1  0
 35 77  1  0
 35 78  1  0
 35 79  1  0
M  END
>  <i_m_ct_stereo_status>  (17) 
1

>  <s_m_source_file>  (17) 
/var/tmp/pbs.5076255.sched01/tmpbdos_d33/0hajo06zg.sdf

>  <i_m_source_file_index>  (17) 
8

>  <i_lp_mmshare_version>  (17) 
48012

>  <i_f3d_flags>  (17) 
0

>  <s_epik_input>  (17) 
W0NIMl09QyhbQ0gzXSlbQ0BIXShbQ0gyXTEpW0NIMl1bQ0BdKFtPSF0pKFtDQEhdMUMyKFtDQF0zNDUpTzQpQyg9TykvQyhbQ0gzXSk9W0NIXS9bQ0BAXShbT0hdKShbQ0BIXTZbQ0BASF0oQzYoW0NIM10pW0NIM10pW0NIMl1bQ0BASF01W0NIM10pW0NAQEhdKFtDSDNdKVtDQEhdMltDSDJdW0NAQEhdKFtDSDNdKVtDQEhdM1tPSF0=

>  <s_epik_cmdline>  (17) 
J2VwaWtfcHl0aG9uJywgJy1waHQnLCAnMi4wJywgJy1waCcsICc3LjAnLCAnLXRuJywgJzgnLCAnLW1hJywgJzIwMCcsICctaW1hZScsICc8aW5maWxlLm1hZT4nLCAnLW9tYWUnLCAnPG91dGZpbGUubWFlPic=

>  <r_lp_tautomer_probability>  (17) 
1

>  <r_epik_Ionization_Penalty>  (17) 
3.32462e-07

>  <r_epik_Ionization_Penalty_Charging>  (17) 
0

>  <r_epik_Ionization_Penalty_Neutral>  (17) 
3.32462e-07

>  <r_epik_State_Penalty>  (17) 
-0

>  <r_epik_Charging_Adjusted_Penalty>  (17) 
0

>  <i_epik_Tot_Q>  (17) 
0

>  <i_epik_Tot_abs_Q>  (17) 
0

>  <s_lp_Force_Field>  (17) 
OPLS3e

>  <r_lp_Energy>  (17) 
142.853

>  <b_lp_Chiralities_Consistent>  (17) 
1

>  <s_lp_Variant>  (17) 
4:0-1

>  <s_i_glide_gridfile>  (17) 
pfpi4k_grid

>  <i_i_glide_lignum>  (17) 
8

>  <i_i_glide_rotatable_bonds>  (17) 
4

>  <r_i_docking_score>  (17) 
-2.04547

>  <r_i_glide_ligand_efficiency>  (17) 
-0.0584421

>  <r_i_glide_ligand_efficiency_sa>  (17) 
-0.191168

>  <r_i_glide_ligand_efficiency_ln>  (17) 
-0.449027

>  <r_i_glide_gscore>  (17) 
-2.04547

>  <r_i_glide_lipo>  (17) 
-0.257311

>  <r_i_glide_hbond>  (17) 
0

>  <r_i_glide_metal>  (17) 
-0

>  <r_i_glide_rewards>  (17) 
-0.104541

>  <r_i_glide_evdw>  (17) 
-28.551

>  <r_i_glide_ecoul>  (17) 
-2.28355

>  <r_i_glide_erotb>  (17) 
0.0864596

>  <r_i_glide_esite>  (17) 
0

>  <r_i_glide_emodel>  (17) 
-33.7882

>  <r_i_glide_energy>  (17) 
-30.8345

>  <r_i_glide_einternal>  (17) 
1.7751

>  <r_i_glide_intrahb_reward>  (17) 
-0

>  <i_i_glide_confnum>  (17) 
5

>  <i_i_glide_posenum>  (17) 
16

>  <r_i_glide_eff_state_penalty>  (17) 
0

>  <ligand_id>  (17) 
4

>  <original_smiles>  (17) 
C=C(C)C1CC2C(O)(C1)C(=O)C(C)=CC1(O)C(C)C3CC(C)C(O)C4(OC324)C(C)CC2C1C2(C)C

>  <smiles>  (17) 
[H]OC1([H])C([H])(C([H])([H])[H])C([H])([H])C2([H])C([H])(C([H])([H])[H])C3(O[H])C([H])=C(C([H])([H])[H])C(=O)C4(O[H])C([H])([H])C([H])(C(=C([H])[H])C([H])([H])[H])C([H])([H])C4([H])C24OC14C([H])(C([H])([H])[H])C([H])([H])C1([H])C3([H])C1(C([H])([H])[H])C([H])([H])[H]

$$$$
4:0:2
     RDKit          3D

 79 84  0  0  1  0  0  0  0  0999 V2000
    0.4535   -1.3956    4.2325 C   0  0  0  0  0  0  0  0  0  0  0  0
    1.5579   -1.5942    3.4995 C   0  0  0  0  0  0  0  0  0  0  0  0
    1.6881   -0.9680    2.1202 C   0  0  0  0  0  0  0  0  0  0  0  0
    2.7737   -2.4261    3.9370 C   0  0  2  0  0  0  0  0  0  0  0  0
    2.8495   -3.7866    3.2269 C   0  0  0  0  0  0  0  0  0  0  0  0
    3.5503   -4.7515    4.2225 C   0  0  1  0  0  0  0  0  0  0  0  0
    2.8814   -4.3078    5.5866 C   0  0  1  0  0  0  0  0  0  0  0  0
    3.6933   -4.6130    6.7111 O   0  0  0  0  0  0  0  0  0  0  0  0
    2.9347   -2.7587    5.4380 C   0  0  0  0  0  0  0  0  0  0  0  0
    1.4152   -4.7953    5.8603 C   0  0  0  0  0  0  0  0  0  0  0  0
    0.5812   -4.0107    6.3152 O   0  0  0  0  0  0  0  0  0  0  0  0
    1.0471   -6.1922    5.5743 C   0  0  0  0  0  0  0  0  0  0  0  0
   -0.1621   -6.3448    4.6720 C   0  0  0  0  0  0  0  0  0  0  0  0
    1.9162   -7.1334    6.0015 C   0  0  0  0  0  0  0  0  0  0  0  0
    2.3041   -8.5100    5.4579 C   0  0  2  0  0  0  0  0  0  0  0  0
    1.9072   -9.4385    6.4478 O   0  0  0  0  0  0  0  0  0  0  0  0
    3.8771   -8.4298    5.4138 C   0  0  1  0  0  0  0  0  0  0  0  0
    4.6678   -9.7649    5.3409 C   0  0  0  0  0  0  0  0  0  0  0  0
    4.5016   -7.1677    4.6707 C   0  0  1  0  0  0  0  0  0  0  0  0
    5.9781   -7.3001    4.1520 C   0  0  0  0  0  0  0  0  0  0  0  0
    6.4186   -6.2535    3.0766 C   0  0  1  0  0  0  0  0  0  0  0  0
    7.8235   -6.5784    2.5232 C   0  0  0  0  0  0  0  0  0  0  0  0
    5.3131   -5.9895    1.9939 C   0  0  1  0  0  0  0  0  0  0  0  0
    5.7488   -6.0818    0.6518 O   0  0  0  0  0  0  0  0  0  0  0  0
    4.0796   -6.8270    2.3253 C   0  0  2  0  0  0  0  0  0  0  0  0
    2.7864   -6.4037    2.5976 O   0  0  0  0  0  0  0  0  0  0  0  0
    3.6156   -6.2609    3.7563 C   0  0  2  0  0  0  0  0  0  0  0  0
    3.9526   -8.1727    1.5256 C   0  0  1  0  0  0  0  0  0  0  0  0
    5.1870   -9.0928    1.4470 C   0  0  0  0  0  0  0  0  0  0  0  0
    2.6436   -9.0085    1.6806 C   0  0  0  0  0  0  0  0  0  0  0  0
    2.4157   -9.6559    3.0401 C   0  0  1  0  0  0  0  0  0  0  0  0
    1.6862   -8.8312    4.0790 C   0  0  1  0  0  0  0  0  0  0  0  0
    1.0769  -10.1311    3.5714 C   0  0  0  0  0  0  0  0  0  0  0  0
   -0.1596  -10.0558    2.6963 C   0  0  0  0  0  0  0  0  0  0  0  0
    1.0406  -11.4091    4.4003 C   0  0  0  0  0  0  0  0  0  0  0  0
   -0.3565   -0.7948    3.8464 H   0  0  0  0  0  0  0  0  0  0  0  0
    0.3167   -1.8131    5.2158 H   0  0  0  0  0  0  0  0  0  0  0  0
    2.5448   -0.2945    2.0803 H   0  0  0  0  0  0  0  0  0  0  0  0
    0.8033   -0.3849    1.8619 H   0  0  0  0  0  0  0  0  0  0  0  0
    1.8144   -1.7328    1.3555 H   0  0  0  0  0  0  0  0  0  0  0  0
    3.6489   -1.8371    3.6600 H   0  0  0  0  0  0  0  0  0  0  0  0
    1.8351   -4.1352    3.0164 H   0  0  0  0  0  0  0  0  0  0  0  0
    3.3510   -3.6889    2.2645 H   0  0  0  0  0  0  0  0  0  0  0  0
    4.5856   -4.4223    4.2824 H   0  0  0  0  0  0  0  0  0  0  0  0
    4.5693   -4.2944    6.5535 H   0  0  0  0  0  0  0  0  0  0  0  0
    3.9250   -2.4082    5.7375 H   0  0  0  0  0  0  0  0  0  0  0  0
    2.2573   -2.2203    6.0948 H   0  0  0  0  0  0  0  0  0  0  0  0
   -0.9793   -5.7252    5.0437 H   0  0  0  0  0  0  0  0  0  0  0  0
   -0.5350   -7.3691    4.6600 H   0  0  0  0  0  0  0  0  0  0  0  0
    0.0764   -6.0226    3.6574 H   0  0  0  0  0  0  0  0  0  0  0  0
    2.6361   -6.7896    6.7239 H   0  0  0  0  0  0  0  0  0  0  0  0
    2.0537  -10.3244    6.1454 H   0  0  0  0  0  0  0  0  0  0  0  0
    4.1226   -8.2214    6.4576 H   0  0  0  0  0  0  0  0  0  0  0  0
    4.9118  -10.1056    4.3426 H   0  0  0  0  0  0  0  0  0  0  0  0
    4.1406  -10.5783    5.8384 H   0  0  0  0  0  0  0  0  0  0  0  0
    5.6248   -9.6669    5.8583 H   0  0  0  0  0  0  0  0  0  0  0  0
    4.6856   -6.5136    5.5189 H   0  0  0  0  0  0  0  0  0  0  0  0
    6.6460   -7.2099    5.0084 H   0  0  0  0  0  0  0  0  0  0  0  0
    6.1751   -8.2926    3.7715 H   0  0  0  0  0  0  0  0  0  0  0  0
    6.5511   -5.3151    3.6111 H   0  0  0  0  0  0  0  0  0  0  0  0
    7.8510   -7.5354    2.0048 H   0  0  0  0  0  0  0  0  0  0  0  0
    8.5545   -6.6369    3.3310 H   0  0  0  0  0  0  0  0  0  0  0  0
    8.1727   -5.8146    1.8275 H   0  0  0  0  0  0  0  0  0  0  0  0
    5.0508   -4.9396    2.0743 H   0  0  0  0  0  0  0  0  0  0  0  0
    5.0407   -5.7971    0.0910 H   0  0  0  0  0  0  0  0  0  0  0  0
    3.8611   -7.8242    0.4940 H   0  0  0  0  0  0  0  0  0  0  0  0
    5.3611   -9.6513    2.3560 H   0  0  0  0  0  0  0  0  0  0  0  0
    6.0975   -8.5580    1.1932 H   0  0  0  0  0  0  0  0  0  0  0  0
    5.0492   -9.8440    0.6677 H   0  0  0  0  0  0  0  0  0  0  0  0
    1.7872   -8.3900    1.4117 H   0  0  0  0  0  0  0  0  0  0  0  0
    2.6502   -9.8163    0.9477 H   0  0  0  0  0  0  0  0  0  0  0  0
    3.1877  -10.3691    3.2936 H   0  0  0  0  0  0  0  0  0  0  0  0
    1.2786   -7.9556    3.6055 H   0  0  0  0  0  0  0  0  0  0  0  0
   -1.0654  -10.0793    3.2985 H   0  0  0  0  0  0  0  0  0  0  0  0
   -0.1790  -10.8995    2.0050 H   0  0  0  0  0  0  0  0  0  0  0  0
   -0.1810   -9.1346    2.1142 H   0  0  0  0  0  0  0  0  0  0  0  0
    0.2255  -11.3685    5.1260 H   0  0  0  0  0  0  0  0  0  0  0  0
    1.9778  -11.5652    4.9358 H   0  0  0  0  0  0  0  0  0  0  0  0
    0.8852  -12.2745    3.7571 H   0  0  0  0  0  0  0  0  0  0  0  0
  1  2  2  0
  1 36  1  0
  1 37  1  0
  2  3  1  0
  2  4  1  0
  3 38  1  0
  3 39  1  0
  3 40  1  0
  4  9  1  0
  4  5  1  0
  4 41  1  6
  5  6  1  0
  5 42  1  0
  5 43  1  0
  6 27  1  0
  6  7  1  0
  6 44  1  1
  7  8  1  1
  7  9  1  0
  7 10  1  0
  8 45  1  0
  9 46  1  0
  9 47  1  0
 10 11  2  0
 10 12  1  0
 12 13  1  0
 12 14  2  3
 13 48  1  0
 13 49  1  0
 13 50  1  0
 14 15  1  0
 14 51  1  0
 15 32  1  0
 15 16  1  1
 15 17  1  0
 16 52  1  0
 17 18  1  0
 17 19  1  0
 17 53  1  1
 18 54  1  0
 18 55  1  0
 18 56  1  0
 19 27  1  0
 19 20  1  0
 19 57  1  1
 20 21  1  0
 20 58  1  0
 20 59  1  0
 21 22  1  0
 21 23  1  0
 21 60  1  1
 22 61  1  0
 22 62  1  0
 22 63  1  0
 23 24  1  0
 23 25  1  0
 23 64  1  1
 24 65  1  0
 25 27  1  0
 25 26  1  6
 25 28  1  0
 27 26  1  1
 28 29  1  0
 28 30  1  0
 28 66  1  6
 29 67  1  0
 29 68  1  0
 29 69  1  0
 30 31  1  0
 30 70  1  0
 30 71  1  0
 31 33  1  0
 31 32  1  0
 31 72  1  1
 32 33  1  0
 32 73  1  6
 33 34  1  0
 33 35  1  0
 34 74  1  0
 34 75  1  0
 34 76  1  0
 35 77  1  0
 35 78  1  0
 35 79  1  0
M  END
>  <i_m_ct_stereo_status>  (18) 
1

>  <s_m_source_file>  (18) 
/var/tmp/pbs.5076255.sched01/tmpbdos_d33/0hajo06zg.sdf

>  <i_m_source_file_index>  (18) 
8

>  <i_lp_mmshare_version>  (18) 
48012

>  <i_f3d_flags>  (18) 
0

>  <s_epik_input>  (18) 
W0NIMl09QyhbQ0gzXSlbQ0BIXShbQ0gyXTEpW0NIMl1bQ0BdKFtPSF0pKFtDQEhdMUMyKFtDQF0zNDUpTzQpQyg9TykvQyhbQ0gzXSk9W0NIXS9bQ0BAXShbT0hdKShbQ0BIXTZbQ0BASF0oQzYoW0NIM10pW0NIM10pW0NIMl1bQ0BASF01W0NIM10pW0NAQEhdKFtDSDNdKVtDQEhdMltDSDJdW0NAQEhdKFtDSDNdKVtDQEhdM1tPSF0=

>  <s_epik_cmdline>  (18) 
J2VwaWtfcHl0aG9uJywgJy1waHQnLCAnMi4wJywgJy1waCcsICc3LjAnLCAnLXRuJywgJzgnLCAnLW1hJywgJzIwMCcsICctaW1hZScsICc8aW5maWxlLm1hZT4nLCAnLW9tYWUnLCAnPG91dGZpbGUubWFlPic=

>  <r_lp_tautomer_probability>  (18) 
1

>  <r_epik_Ionization_Penalty>  (18) 
3.32462e-07

>  <r_epik_Ionization_Penalty_Charging>  (18) 
0

>  <r_epik_Ionization_Penalty_Neutral>  (18) 
3.32462e-07

>  <r_epik_State_Penalty>  (18) 
-0

>  <r_epik_Charging_Adjusted_Penalty>  (18) 
0

>  <i_epik_Tot_Q>  (18) 
0

>  <i_epik_Tot_abs_Q>  (18) 
0

>  <s_lp_Force_Field>  (18) 
OPLS3e

>  <r_lp_Energy>  (18) 
142.853

>  <b_lp_Chiralities_Consistent>  (18) 
1

>  <s_lp_Variant>  (18) 
4:0-1

>  <s_i_glide_gridfile>  (18) 
pfpi4k_grid

>  <i_i_glide_lignum>  (18) 
8

>  <i_i_glide_rotatable_bonds>  (18) 
4

>  <r_i_docking_score>  (18) 
-2.00236

>  <r_i_glide_ligand_efficiency>  (18) 
-0.0572104

>  <r_i_glide_ligand_efficiency_sa>  (18) 
-0.187139

>  <r_i_glide_ligand_efficiency_ln>  (18) 
-0.439563

>  <r_i_glide_gscore>  (18) 
-2.00236

>  <r_i_glide_lipo>  (18) 
-0.235061

>  <r_i_glide_hbond>  (18) 
0

>  <r_i_glide_metal>  (18) 
-0

>  <r_i_glide_rewards>  (18) 
-0.104541

>  <r_i_glide_evdw>  (18) 
-28.8608

>  <r_i_glide_ecoul>  (18) 
-2.04122

>  <r_i_glide_erotb>  (18) 
0.0864596

>  <r_i_glide_esite>  (18) 
0

>  <r_i_glide_emodel>  (18) 
-34.4257

>  <r_i_glide_energy>  (18) 
-30.902

>  <r_i_glide_einternal>  (18) 
0.723476

>  <r_i_glide_intrahb_reward>  (18) 
-0

>  <i_i_glide_confnum>  (18) 
4

>  <i_i_glide_posenum>  (18) 
10

>  <r_i_glide_eff_state_penalty>  (18) 
0

>  <ligand_id>  (18) 
4

>  <original_smiles>  (18) 
C=C(C)C1CC2C(O)(C1)C(=O)C(C)=CC1(O)C(C)C3CC(C)C(O)C4(OC324)C(C)CC2C1C2(C)C

>  <smiles>  (18) 
[H]OC1([H])C([H])(C([H])([H])[H])C([H])([H])C2([H])C([H])(C([H])([H])[H])C3(O[H])C([H])=C(C([H])([H])[H])C(=O)C4(O[H])C([H])([H])C([H])(C(=C([H])[H])C([H])([H])[H])C([H])([H])C4([H])C24OC14C([H])(C([H])([H])[H])C([H])([H])C1([H])C3([H])C1(C([H])([H])[H])C([H])([H])[H]

$$$$
4:1:0
     RDKit          3D

 79 84  0  0  1  0  0  0  0  0999 V2000
    5.3114   -4.6355   -1.2108 C   0  0  0  0  0  0  0  0  0  0  0  0
    6.0682   -4.2002   -0.1849 C   0  0  0  0  0  0  0  0  0  0  0  0
    7.0497   -3.0571   -0.3828 C   0  0  0  0  0  0  0  0  0  0  0  0
    6.0304   -4.8018    1.2245 C   0  0  2  0  0  0  0  0  0  0  0  0
    5.4506   -6.2168    1.3579 C   0  0  0  0  0  0  0  0  0  0  0  0
    5.1819   -6.3961    2.8691 C   0  0  1  0  0  0  0  0  0  0  0  0
    4.6871   -4.9793    3.3099 C   0  0  1  0  0  0  0  0  0  0  0  0
    5.3447   -4.6283    4.5202 O   0  0  0  0  0  0  0  0  0  0  0  0
    5.1955   -3.9878    2.2195 C   0  0  0  0  0  0  0  0  0  0  0  0
    3.1357   -4.9070    3.4579 C   0  0  0  0  0  0  0  0  0  0  0  0
    2.4419   -4.9380    2.4434 O   0  0  0  0  0  0  0  0  0  0  0  0
    2.5187   -4.7453    4.7941 C   0  0  0  0  0  0  0  0  0  0  0  0
    2.5201   -3.3053    5.2832 C   0  0  0  0  0  0  0  0  0  0  0  0
    1.9646   -5.7413    5.5304 C   0  0  0  0  0  0  0  0  0  0  0  0
    1.7657   -7.2576    5.3345 C   0  0  2  0  0  0  0  0  0  0  0  0
    0.8144   -7.6188    6.3197 O   0  0  0  0  0  0  0  0  0  0  0  0
    3.0792   -8.0427    5.7222 C   0  0  1  0  0  0  0  0  0  0  0  0
    2.8595   -9.4550    6.3390 C   0  0  0  0  0  0  0  0  0  0  0  0
    4.3350   -7.8659    4.7809 C   0  0  1  0  0  0  0  0  0  0  0  0
    5.6805   -8.6089    5.1165 C   0  0  0  0  0  0  0  0  0  0  0  0
    6.2645   -9.6273    4.0759 C   0  0  1  0  0  0  0  0  0  0  0  0
    6.4257  -11.0428    4.6671 C   0  0  0  0  0  0  0  0  0  0  0  0
    5.6307   -9.5400    2.6533 C   0  0  1  0  0  0  0  0  0  0  0  0
    5.8977  -10.6640    1.8389 O   0  0  0  0  0  0  0  0  0  0  0  0
    4.1820   -9.0948    2.7550 C   0  0  2  0  0  0  0  0  0  0  0  0
    3.6043   -8.0542    2.0731 O   0  0  0  0  0  0  0  0  0  0  0  0
    4.2326   -7.5748    3.2656 C   0  0  1  0  0  0  0  0  0  0  0  0
    3.1021  -10.2215    2.6715 C   0  0  1  0  0  0  0  0  0  0  0  0
    3.2877  -11.4858    3.5267 C   0  0  0  0  0  0  0  0  0  0  0  0
    1.6107   -9.7947    2.4829 C   0  0  0  0  0  0  0  0  0  0  0  0
    0.9166   -9.1107    3.6512 C   0  0  1  0  0  0  0  0  0  0  0  0
    1.2128   -7.6564    3.9507 C   0  0  1  0  0  0  0  0  0  0  0  0
   -0.1886   -8.0734    3.5041 C   0  0  0  0  0  0  0  0  0  0  0  0
   -0.6629   -7.6315    2.1299 C   0  0  0  0  0  0  0  0  0  0  0  0
   -1.3867   -8.1566    4.4302 C   0  0  0  0  0  0  0  0  0  0  0  0
    5.3906   -4.1787   -2.1854 H   0  0  0  0  0  0  0  0  0  0  0  0
    4.6097   -5.4469   -1.1190 H   0  0  0  0  0  0  0  0  0  0  0  0
    8.0655   -3.3863   -0.1721 H   0  0  0  0  0  0  0  0  0  0  0  0
    6.8139   -2.2198    0.2746 H   0  0  0  0  0  0  0  0  0  0  0  0
    7.0303   -2.6961   -1.4104 H   0  0  0  0  0  0  0  0  0  0  0  0
    7.0592   -4.8357    1.5925 H   0  0  0  0  0  0  0  0  0  0  0  0
    4.5105   -6.2877    0.8171 H   0  0  0  0  0  0  0  0  0  0  0  0
    6.1383   -6.9524    0.9460 H   0  0  0  0  0  0  0  0  0  0  0  0
    6.1580   -6.5851    3.3187 H   0  0  0  0  0  0  0  0  0  0  0  0
    6.2759   -4.7004    4.3873 H   0  0  0  0  0  0  0  0  0  0  0  0
    5.7704   -3.1599    2.6360 H   0  0  0  0  0  0  0  0  0  0  0  0
    4.3640   -3.5296    1.6829 H   0  0  0  0  0  0  0  0  0  0  0  0
    2.1406   -2.6376    4.5094 H   0  0  0  0  0  0  0  0  0  0  0  0
    3.5252   -2.9760    5.5453 H   0  0  0  0  0  0  0  0  0  0  0  0
    1.8946   -3.1767    6.1649 H   0  0  0  0  0  0  0  0  0  0  0  0
    1.5618   -5.4069    6.4754 H   0  0  0  0  0  0  0  0  0  0  0  0
    0.6992   -8.5565    6.2921 H   0  0  0  0  0  0  0  0  0  0  0  0
    3.3998   -7.5307    6.6345 H   0  0  0  0  0  0  0  0  0  0  0  0
    2.1944  -10.0953    5.7770 H   0  0  0  0  0  0  0  0  0  0  0  0
    2.4044   -9.3773    7.3295 H   0  0  0  0  0  0  0  0  0  0  0  0
    3.7869  -10.0045    6.4887 H   0  0  0  0  0  0  0  0  0  0  0  0
    4.5971   -6.8868    5.1737 H   0  0  0  0  0  0  0  0  0  0  0  0
    6.4419   -7.8261    5.2172 H   0  0  0  0  0  0  0  0  0  0  0  0
    5.6573   -9.0382    6.1157 H   0  0  0  0  0  0  0  0  0  0  0  0
    7.3033   -9.3237    3.9328 H   0  0  0  0  0  0  0  0  0  0  0  0
    5.4935  -11.4777    5.0176 H   0  0  0  0  0  0  0  0  0  0  0  0
    7.1025  -11.0340    5.5208 H   0  0  0  0  0  0  0  0  0  0  0  0
    6.8626  -11.7304    3.9425 H   0  0  0  0  0  0  0  0  0  0  0  0
    6.1730   -8.7501    2.1433 H   0  0  0  0  0  0  0  0  0  0  0  0
    5.0941  -10.9970    1.4433 H   0  0  0  0  0  0  0  0  0  0  0  0
    3.2829  -10.6301    1.6778 H   0  0  0  0  0  0  0  0  0  0  0  0
    3.3927  -11.2945    4.5853 H   0  0  0  0  0  0  0  0  0  0  0  0
    4.1606  -12.0565    3.2133 H   0  0  0  0  0  0  0  0  0  0  0  0
    2.4418  -12.1628    3.4053 H   0  0  0  0  0  0  0  0  0  0  0  0
    1.5270   -9.1785    1.5909 H   0  0  0  0  0  0  0  0  0  0  0  0
    1.0123  -10.6774    2.2559 H   0  0  0  0  0  0  0  0  0  0  0  0
    0.6915   -9.8080    4.4536 H   0  0  0  0  0  0  0  0  0  0  0  0
    1.7107   -7.1272    3.1589 H   0  0  0  0  0  0  0  0  0  0  0  0
   -1.2073   -6.6932    2.2043 H   0  0  0  0  0  0  0  0  0  0  0  0
   -1.3236   -8.3830    1.6937 H   0  0  0  0  0  0  0  0  0  0  0  0
    0.1737   -7.4778    1.4490 H   0  0  0  0  0  0  0  0  0  0  0  0
   -1.7136   -7.1565    4.7170 H   0  0  0  0  0  0  0  0  0  0  0  0
   -1.1610   -8.7328    5.3269 H   0  0  0  0  0  0  0  0  0  0  0  0
   -2.2185   -8.6700    3.9405 H   0  0  0  0  0  0  0  0  0  0  0  0
  1  2  2  0
  1 36  1  0
  1 37  1  0
  2  3  1  0
  2  4  1  0
  3 38  1  0
  3 39  1  0
  3 40  1  0
  4  9  1  0
  4  5  1  0
  4 41  1  1
  5  6  1  0
  5 42  1  0
  5 43  1  0
  6 27  1  0
  6  7  1  0
  6 44  1  1
  7  8  1  1
  7  9  1  0
  7 10  1  0
  8 45  1  0
  9 46  1  0
  9 47  1  0
 10 11  2  0
 10 12  1  0
 12 13  1  0
 12 14  2  3
 13 48  1  0
 13 49  1  0
 13 50  1  0
 14 15  1  0
 14 51  1  0
 15 32  1  0
 15 16  1  1
 15 17  1  0
 16 52  1  0
 17 18  1  0
 17 19  1  0
 17 53  1  1
 18 54  1  0
 18 55  1  0
 18 56  1  0
 19 27  1  0
 19 20  1  0
 19 57  1  1
 20 21  1  0
 20 58  1  0
 20 59  1  0
 21 22  1  0
 21 23  1  0
 21 60  1  6
 22 61  1  0
 22 62  1  0
 22 63  1  0
 23 24  1  0
 23 25  1  0
 23 64  1  6
 24 65  1  0
 25 27  1  0
 25 26  1  6
 25 28  1  0
 27 26  1  1
 28 29  1  0
 28 30  1  0
 28 66  1  6
 29 67  1  0
 29 68  1  0
 29 69  1  0
 30 31  1  0
 30 70  1  0
 30 71  1  0
 31 33  1  0
 31 32  1  0
 31 72  1  1
 32 33  1  0
 32 73  1  6
 33 34  1  0
 33 35  1  0
 34 74  1  0
 34 75  1  0
 34 76  1  0
 35 77  1  0
 35 78  1  0
 35 79  1  0
M  END
>  <i_m_ct_stereo_status>  (19) 
1

>  <s_m_source_file>  (19) 
/var/tmp/pbs.5076255.sched01/tmpbdos_d33/0hajo06zg.sdf

>  <i_m_source_file_index>  (19) 
9

>  <i_lp_mmshare_version>  (19) 
48012

>  <i_f3d_flags>  (19) 
0

>  <s_epik_input>  (19) 
W0NIMl09QyhbQ0gzXSlbQ0BIXShbQ0gyXTEpW0NIMl1bQ0BdKFtPSF0pKFtDQEhdMUMyKFtDQF0zNDUpTzQpQyg9TykvQyhbQ0gzXSk9W0NIXS9bQ0BAXShbT0hdKShbQ0BIXTZbQ0BASF0oQzYoW0NIM10pW0NIM10pW0NIMl1bQ0BASF01W0NIM10pW0NAQEhdKFtDSDNdKVtDQEhdMltDSDJdW0NAQEhdKFtDSDNdKVtDQEhdM1tPSF0=

>  <s_epik_cmdline>  (19) 
J2VwaWtfcHl0aG9uJywgJy1waHQnLCAnMi4wJywgJy1waCcsICc3LjAnLCAnLXRuJywgJzgnLCAnLW1hJywgJzIwMCcsICctaW1hZScsICc8aW5maWxlLm1hZT4nLCAnLW9tYWUnLCAnPG91dGZpbGUubWFlPic=

>  <r_lp_tautomer_probability>  (19) 
1

>  <r_epik_Ionization_Penalty>  (19) 
3.32462e-07

>  <r_epik_Ionization_Penalty_Charging>  (19) 
0

>  <r_epik_Ionization_Penalty_Neutral>  (19) 
3.32462e-07

>  <r_epik_State_Penalty>  (19) 
-0

>  <r_epik_Charging_Adjusted_Penalty>  (19) 
0

>  <i_epik_Tot_Q>  (19) 
0

>  <i_epik_Tot_abs_Q>  (19) 
0

>  <s_lp_Force_Field>  (19) 
OPLS3e

>  <r_lp_Energy>  (19) 
141.231

>  <b_lp_Chiralities_Consistent>  (19) 
1

>  <s_lp_Variant>  (19) 
4:0-2

>  <s_i_glide_gridfile>  (19) 
pfpi4k_grid

>  <i_i_glide_lignum>  (19) 
9

>  <i_i_glide_rotatable_bonds>  (19) 
4

>  <r_i_docking_score>  (19) 
-2.59925

>  <r_i_glide_ligand_efficiency>  (19) 
-0.0742643

>  <r_i_glide_ligand_efficiency_sa>  (19) 
-0.242924

>  <r_i_glide_ligand_efficiency_ln>  (19) 
-0.570594

>  <r_i_glide_gscore>  (19) 
-2.59925

>  <r_i_glide_lipo>  (19) 
-0.439217

>  <r_i_glide_hbond>  (19) 
0

>  <r_i_glide_metal>  (19) 
-0

>  <r_i_glide_rewards>  (19) 
-0.104541

>  <r_i_glide_evdw>  (19) 
-29.3817

>  <r_i_glide_ecoul>  (19) 
-4.4858

>  <r_i_glide_erotb>  (19) 
0.0864596

>  <r_i_glide_esite>  (19) 
0

>  <r_i_glide_emodel>  (19) 
-38.4004

>  <r_i_glide_energy>  (19) 
-33.8675

>  <r_i_glide_einternal>  (19) 
2.52527

>  <r_i_glide_intrahb_reward>  (19) 
-0

>  <i_i_glide_confnum>  (19) 
5

>  <i_i_glide_posenum>  (19) 
34

>  <r_i_glide_eff_state_penalty>  (19) 
0

>  <ligand_id>  (19) 
4

>  <original_smiles>  (19) 
C=C(C)C1CC2C(O)(C1)C(=O)C(C)=CC1(O)C(C)C3CC(C)C(O)C4(OC324)C(C)CC2C1C2(C)C

>  <smiles>  (19) 
[H]OC1([H])C([H])(C([H])([H])[H])C([H])([H])C2([H])C([H])(C([H])([H])[H])C3(O[H])C([H])=C(C([H])([H])[H])C(=O)C4(O[H])C([H])([H])C([H])(C(=C([H])[H])C([H])([H])[H])C([H])([H])C4([H])C24OC14C([H])(C([H])([H])[H])C([H])([H])C1([H])C3([H])C1(C([H])([H])[H])C([H])([H])[H]

$$$$
4:1:1
     RDKit          3D

 79 84  0  0  1  0  0  0  0  0999 V2000
    4.4972   -3.8484   -1.5847 C   0  0  0  0  0  0  0  0  0  0  0  0
    5.5566   -3.6408   -0.7846 C   0  0  0  0  0  0  0  0  0  0  0  0
    6.7308   -2.8000   -1.2488 C   0  0  0  0  0  0  0  0  0  0  0  0
    5.6657   -4.2195    0.6310 C   0  0  2  0  0  0  0  0  0  0  0  0
    5.2063   -5.6723    0.8106 C   0  0  0  0  0  0  0  0  0  0  0  0
    5.0622   -5.8571    2.3362 C   0  0  1  0  0  0  0  0  0  0  0  0
    4.4922   -4.4788    2.8047 C   0  0  1  0  0  0  0  0  0  0  0  0
    5.2223   -4.0480    3.9398 O   0  0  0  0  0  0  0  0  0  0  0  0
    4.8368   -3.4650    1.6763 C   0  0  0  0  0  0  0  0  0  0  0  0
    2.9556   -4.5266    3.0720 C   0  0  0  0  0  0  0  0  0  0  0  0
    2.1953   -4.6410    2.1104 O   0  0  0  0  0  0  0  0  0  0  0  0
    2.4409   -4.3962    4.4572 C   0  0  0  0  0  0  0  0  0  0  0  0
    2.3661   -2.9486    4.9293 C   0  0  0  0  0  0  0  0  0  0  0  0
    2.0385   -5.4123    5.2389 C   0  0  0  0  0  0  0  0  0  0  0  0
    1.9418   -6.9448    5.0767 C   0  0  2  0  0  0  0  0  0  0  0  0
    1.1015   -7.3678    6.1391 O   0  0  0  0  0  0  0  0  0  0  0  0
    3.3380   -7.6185    5.3632 C   0  0  1  0  0  0  0  0  0  0  0  0
    3.2784   -9.0288    6.0094 C   0  0  0  0  0  0  0  0  0  0  0  0
    4.4994   -7.3640    4.3213 C   0  0  1  0  0  0  0  0  0  0  0  0
    5.9295   -7.9825    4.5614 C   0  0  0  0  0  0  0  0  0  0  0  0
    6.4983   -8.9754    3.4888 C   0  0  1  0  0  0  0  0  0  0  0  0
    6.8225  -10.3627    4.0833 C   0  0  0  0  0  0  0  0  0  0  0  0
    5.7574   -8.9569    2.1190 C   0  0  1  0  0  0  0  0  0  0  0  0
    6.0496  -10.0846    1.2995 O   0  0  0  0  0  0  0  0  0  0  0  0
    4.2904   -8.6257    2.3215 C   0  0  2  0  0  0  0  0  0  0  0  0
    3.5776   -7.6435    1.6744 O   0  0  0  0  0  0  0  0  0  0  0  0
    4.2564   -7.0964    2.8167 C   0  0  1  0  0  0  0  0  0  0  0  0
    3.3059   -9.8321    2.3287 C   0  0  1  0  0  0  0  0  0  0  0  0
    3.6546  -11.0636    3.1946 C   0  0  0  0  0  0  0  0  0  0  0  0
    1.7806   -9.5309    2.2650 C   0  0  0  0  0  0  0  0  0  0  0  0
    1.1206   -8.8868    3.4813 C   0  0  1  0  0  0  0  0  0  0  0  0
    1.3106   -7.4131    3.7465 C   0  0  1  0  0  0  0  0  0  0  0  0
   -0.0822   -7.9490    3.4179 C   0  0  0  0  0  0  0  0  0  0  0  0
   -0.6953   -7.5648    2.0860 C   0  0  0  0  0  0  0  0  0  0  0  0
   -1.2032   -8.1123    4.4338 C   0  0  0  0  0  0  0  0  0  0  0  0
    4.4596   -3.4443   -2.5836 H   0  0  0  0  0  0  0  0  0  0  0  0
    3.6482   -4.4244   -1.2562 H   0  0  0  0  0  0  0  0  0  0  0  0
    7.6454   -3.3901   -1.2437 H   0  0  0  0  0  0  0  0  0  0  0  0
    6.8638   -1.9424   -0.5901 H   0  0  0  0  0  0  0  0  0  0  0  0
    6.5764   -2.4370   -2.2639 H   0  0  0  0  0  0  0  0  0  0  0  0
    6.7171   -4.1695    0.9320 H   0  0  0  0  0  0  0  0  0  0  0  0
    4.2456   -5.8252    0.3105 H   0  0  0  0  0  0  0  0  0  0  0  0
    5.9282   -6.3504    0.3558 H   0  0  0  0  0  0  0  0  0  0  0  0
    6.0868   -5.9489    2.7104 H   0  0  0  0  0  0  0  0  0  0  0  0
    5.1202   -4.6787    4.6359 H   0  0  0  0  0  0  0  0  0  0  0  0
    5.3796   -2.5918    2.0460 H   0  0  0  0  0  0  0  0  0  0  0  0
    3.9379   -3.0725    1.2028 H   0  0  0  0  0  0  0  0  0  0  0  0
    1.8776   -2.3237    4.1840 H   0  0  0  0  0  0  0  0  0  0  0  0
    3.3579   -2.5373    5.1120 H   0  0  0  0  0  0  0  0  0  0  0  0
    1.7993   -2.8565    5.8582 H   0  0  0  0  0  0  0  0  0  0  0  0
    1.6733   -5.1049    6.2103 H   0  0  0  0  0  0  0  0  0  0  0  0
    1.0403   -8.3094    6.1147 H   0  0  0  0  0  0  0  0  0  0  0  0
    3.6824   -7.0676    6.2426 H   0  0  0  0  0  0  0  0  0  0  0  0
    2.6252   -9.7330    5.5108 H   0  0  0  0  0  0  0  0  0  0  0  0
    2.8987   -8.9757    7.0337 H   0  0  0  0  0  0  0  0  0  0  0  0
    4.2531   -9.5046    6.0924 H   0  0  0  0  0  0  0  0  0  0  0  0
    4.7115   -6.3651    4.6904 H   0  0  0  0  0  0  0  0  0  0  0  0
    6.6352   -7.1277    4.5992 H   0  0  0  0  0  0  0  0  0  0  0  0
    5.9959   -8.4112    5.5555 H   0  0  0  0  0  0  0  0  0  0  0  0
    7.4884   -8.5964    3.2684 H   0  0  0  0  0  0  0  0  0  0  0  0
    5.9604  -10.8623    4.5097 H   0  0  0  0  0  0  0  0  0  0  0  0
    7.5632  -10.2821    4.8815 H   0  0  0  0  0  0  0  0  0  0  0  0
    7.2583  -11.0213    3.3325 H   0  0  0  0  0  0  0  0  0  0  0  0
    6.2012   -8.1364    1.5722 H   0  0  0  0  0  0  0  0  0  0  0  0
    5.3410  -10.7175    1.3502 H   0  0  0  0  0  0  0  0  0  0  0  0
    3.4375  -10.2378    1.3225 H   0  0  0  0  0  0  0  0  0  0  0  0
    3.8191  -10.8400    4.2364 H   0  0  0  0  0  0  0  0  0  0  0  0
    4.5415  -11.5749    2.8282 H   0  0  0  0  0  0  0  0  0  0  0  0
    2.8571  -11.8047    3.1438 H   0  0  0  0  0  0  0  0  0  0  0  0
    1.5665   -8.9356    1.3794 H   0  0  0  0  0  0  0  0  0  0  0  0
    1.2390  -10.4587    2.0941 H   0  0  0  0  0  0  0  0  0  0  0  0
    1.0123   -9.5799    4.3000 H   0  0  0  0  0  0  0  0  0  0  0  0
    1.6953   -6.8648    2.9199 H   0  0  0  0  0  0  0  0  0  0  0  0
   -1.3055   -6.6691    2.1979 H   0  0  0  0  0  0  0  0  0  0  0  0
   -1.3261   -8.3741    1.7109 H   0  0  0  0  0  0  0  0  0  0  0  0
    0.0728   -7.3596    1.3466 H   0  0  0  0  0  0  0  0  0  0  0  0
   -1.5822   -7.1348    4.7364 H   0  0  0  0  0  0  0  0  0  0  0  0
   -0.8674   -8.6543    5.3111 H   0  0  0  0  0  0  0  0  0  0  0  0
   -2.0291   -8.6922    4.0113 H   0  0  0  0  0  0  0  0  0  0  0  0
  1  2  2  0
  1 36  1  0
  1 37  1  0
  2  3  1  0
  2  4  1  0
  3 38  1  0
  3 39  1  0
  3 40  1  0
  4  9  1  0
  4  5  1  0
  4 41  1  1
  5  6  1  0
  5 42  1  0
  5 43  1  0
  6 27  1  0
  6  7  1  0
  6 44  1  1
  7  8  1  1
  7  9  1  0
  7 10  1  0
  8 45  1  0
  9 46  1  0
  9 47  1  0
 10 11  2  0
 10 12  1  0
 12 13  1  0
 12 14  2  3
 13 48  1  0
 13 49  1  0
 13 50  1  0
 14 15  1  0
 14 51  1  0
 15 32  1  0
 15 16  1  1
 15 17  1  0
 16 52  1  0
 17 18  1  0
 17 19  1  0
 17 53  1  1
 18 54  1  0
 18 55  1  0
 18 56  1  0
 19 27  1  0
 19 20  1  0
 19 57  1  1
 20 21  1  0
 20 58  1  0
 20 59  1  0
 21 22  1  0
 21 23  1  0
 21 60  1  6
 22 61  1  0
 22 62  1  0
 22 63  1  0
 23 24  1  0
 23 25  1  0
 23 64  1  6
 24 65  1  0
 25 27  1  0
 25 26  1  6
 25 28  1  0
 27 26  1  1
 28 29  1  0
 28 30  1  0
 28 66  1  6
 29 67  1  0
 29 68  1  0
 29 69  1  0
 30 31  1  0
 30 70  1  0
 30 71  1  0
 31 33  1  0
 31 32  1  0
 31 72  1  1
 32 33  1  0
 32 73  1  6
 33 34  1  0
 33 35  1  0
 34 74  1  0
 34 75  1  0
 34 76  1  0
 35 77  1  0
 35 78  1  0
 35 79  1  0
M  END
>  <i_m_ct_stereo_status>  (20) 
1

>  <s_m_source_file>  (20) 
/var/tmp/pbs.5076255.sched01/tmpbdos_d33/0hajo06zg.sdf

>  <i_m_source_file_index>  (20) 
9

>  <i_lp_mmshare_version>  (20) 
48012

>  <i_f3d_flags>  (20) 
0

>  <s_epik_input>  (20) 
W0NIMl09QyhbQ0gzXSlbQ0BIXShbQ0gyXTEpW0NIMl1bQ0BdKFtPSF0pKFtDQEhdMUMyKFtDQF0zNDUpTzQpQyg9TykvQyhbQ0gzXSk9W0NIXS9bQ0BAXShbT0hdKShbQ0BIXTZbQ0BASF0oQzYoW0NIM10pW0NIM10pW0NIMl1bQ0BASF01W0NIM10pW0NAQEhdKFtDSDNdKVtDQEhdMltDSDJdW0NAQEhdKFtDSDNdKVtDQEhdM1tPSF0=

>  <s_epik_cmdline>  (20) 
J2VwaWtfcHl0aG9uJywgJy1waHQnLCAnMi4wJywgJy1waCcsICc3LjAnLCAnLXRuJywgJzgnLCAnLW1hJywgJzIwMCcsICctaW1hZScsICc8aW5maWxlLm1hZT4nLCAnLW9tYWUnLCAnPG91dGZpbGUubWFlPic=

>  <r_lp_tautomer_probability>  (20) 
1

>  <r_epik_Ionization_Penalty>  (20) 
3.32462e-07

>  <r_epik_Ionization_Penalty_Charging>  (20) 
0

>  <r_epik_Ionization_Penalty_Neutral>  (20) 
3.32462e-07

>  <r_epik_State_Penalty>  (20) 
-0

>  <r_epik_Charging_Adjusted_Penalty>  (20) 
0

>  <i_epik_Tot_Q>  (20) 
0

>  <i_epik_Tot_abs_Q>  (20) 
0

>  <s_lp_Force_Field>  (20) 
OPLS3e

>  <r_lp_Energy>  (20) 
141.231

>  <b_lp_Chiralities_Consistent>  (20) 
1

>  <s_lp_Variant>  (20) 
4:0-2

>  <s_i_glide_gridfile>  (20) 
pfpi4k_grid

>  <i_i_glide_lignum>  (20) 
9

>  <i_i_glide_rotatable_bonds>  (20) 
4

>  <r_i_docking_score>  (20) 
-2.49106

>  <r_i_glide_ligand_efficiency>  (20) 
-0.0711731

>  <r_i_glide_ligand_efficiency_sa>  (20) 
-0.232812

>  <r_i_glide_ligand_efficiency_ln>  (20) 
-0.546843

>  <r_i_glide_gscore>  (20) 
-2.49106

>  <r_i_glide_lipo>  (20) 
-0.36702

>  <r_i_glide_hbond>  (20) 
0

>  <r_i_glide_metal>  (20) 
-0

>  <r_i_glide_rewards>  (20) 
-0.104541

>  <r_i_glide_evdw>  (20) 
-31.4455

>  <r_i_glide_ecoul>  (20) 
-3.55387

>  <r_i_glide_erotb>  (20) 
0.0864596

>  <r_i_glide_esite>  (20) 
-0.000601462

>  <r_i_glide_emodel>  (20) 
-38.0206

>  <r_i_glide_energy>  (20) 
-34.9994

>  <r_i_glide_einternal>  (20) 
4.47091

>  <r_i_glide_intrahb_reward>  (20) 
-0

>  <i_i_glide_confnum>  (20) 
1

>  <i_i_glide_posenum>  (20) 
13

>  <r_i_glide_eff_state_penalty>  (20) 
0

>  <ligand_id>  (20) 
4

>  <original_smiles>  (20) 
C=C(C)C1CC2C(O)(C1)C(=O)C(C)=CC1(O)C(C)C3CC(C)C(O)C4(OC324)C(C)CC2C1C2(C)C

>  <smiles>  (20) 
[H]OC1([H])C([H])(C([H])([H])[H])C([H])([H])C2([H])C([H])(C([H])([H])[H])C3(O[H])C([H])=C(C([H])([H])[H])C(=O)C4(O[H])C([H])([H])C([H])(C(=C([H])[H])C([H])([H])[H])C([H])([H])C4([H])C24OC14C([H])(C([H])([H])[H])C([H])([H])C1([H])C3([H])C1(C([H])([H])[H])C([H])([H])[H]

$$$$
4:1:2
     RDKit          3D

 79 84  0  0  1  0  0  0  0  0999 V2000
    5.1192   -4.2467   -1.7590 C   0  0  0  0  0  0  0  0  0  0  0  0
    5.3511   -3.5113   -0.6582 C   0  0  0  0  0  0  0  0  0  0  0  0
    5.5319   -2.0030   -0.7610 C   0  0  0  0  0  0  0  0  0  0  0  0
    5.4728   -4.1088    0.7517 C   0  0  2  0  0  0  0  0  0  0  0  0
    5.0598   -5.5805    0.9097 C   0  0  0  0  0  0  0  0  0  0  0  0
    4.9100   -5.7992    2.4308 C   0  0  1  0  0  0  0  0  0  0  0  0
    4.2996   -4.4467    2.9250 C   0  0  1  0  0  0  0  0  0  0  0  0
    5.0066   -4.0267    4.0816 O   0  0  0  0  0  0  0  0  0  0  0  0
    4.6201   -3.4051    1.8132 C   0  0  0  0  0  0  0  0  0  0  0  0
    2.7692   -4.5411    3.1786 C   0  0  0  0  0  0  0  0  0  0  0  0
    2.0198   -4.6635    2.2104 O   0  0  0  0  0  0  0  0  0  0  0  0
    2.2358   -4.4442    4.5593 C   0  0  0  0  0  0  0  0  0  0  0  0
    2.1225   -3.0085    5.0563 C   0  0  0  0  0  0  0  0  0  0  0  0
    1.8519   -5.4860    5.3182 C   0  0  0  0  0  0  0  0  0  0  0  0
    1.7954   -7.0165    5.1236 C   0  0  2  0  0  0  0  0  0  0  0  0
    0.9573   -7.4777    6.1685 O   0  0  0  0  0  0  0  0  0  0  0  0
    3.2068   -7.6607    5.4029 C   0  0  1  0  0  0  0  0  0  0  0  0
    3.1779   -9.0865    6.0203 C   0  0  0  0  0  0  0  0  0  0  0  0
    4.3681   -7.3567    4.3766 C   0  0  1  0  0  0  0  0  0  0  0  0
    5.8103   -7.9475    4.6104 C   0  0  0  0  0  0  0  0  0  0  0  0
    6.4098   -8.9038    3.5214 C   0  0  1  0  0  0  0  0  0  0  0  0
    6.7649  -10.2953    4.0868 C   0  0  0  0  0  0  0  0  0  0  0  0
    5.6771   -8.8722    2.1470 C   0  0  1  0  0  0  0  0  0  0  0  0
    5.9937   -9.9664    1.2990 O   0  0  0  0  0  0  0  0  0  0  0  0
    4.2006   -8.5807    2.3491 C   0  0  2  0  0  0  0  0  0  0  0  0
    3.4711   -7.6041    1.7166 O   0  0  0  0  0  0  0  0  0  0  0  0
    4.1264   -7.0661    2.8754 C   0  0  1  0  0  0  0  0  0  0  0  0
    3.2475   -9.8149    2.3256 C   0  0  1  0  0  0  0  0  0  0  0  0
    3.6210  -11.0546    3.1674 C   0  0  0  0  0  0  0  0  0  0  0  0
    1.7142   -9.5511    2.2634 C   0  0  0  0  0  0  0  0  0  0  0  0
    1.0330   -8.9440    3.4865 C   0  0  1  0  0  0  0  0  0  0  0  0
    1.1838   -7.4716    3.7784 C   0  0  1  0  0  0  0  0  0  0  0  0
   -0.1918   -8.0373    3.4321 C   0  0  0  0  0  0  0  0  0  0  0  0
   -0.8079   -7.6430    2.1036 C   0  0  0  0  0  0  0  0  0  0  0  0
   -1.3162   -8.2468    4.4342 C   0  0  0  0  0  0  0  0  0  0  0  0
    5.0474   -3.7889   -2.7325 H   0  0  0  0  0  0  0  0  0  0  0  0
    5.0011   -5.3196   -1.7223 H   0  0  0  0  0  0  0  0  0  0  0  0
    6.5117   -1.7103   -0.3852 H   0  0  0  0  0  0  0  0  0  0  0  0
    4.7732   -1.4769   -0.1848 H   0  0  0  0  0  0  0  0  0  0  0  0
    5.4430   -1.6656   -1.7924 H   0  0  0  0  0  0  0  0  0  0  0  0
    6.5236   -4.0110    1.0424 H   0  0  0  0  0  0  0  0  0  0  0  0
    4.1026   -5.7266    0.4008 H   0  0  0  0  0  0  0  0  0  0  0  0
    5.7926   -6.2413    0.4456 H   0  0  0  0  0  0  0  0  0  0  0  0
    5.9329   -5.8785    2.8077 H   0  0  0  0  0  0  0  0  0  0  0  0
    5.9265   -3.9766    3.8780 H   0  0  0  0  0  0  0  0  0  0  0  0
    5.1327   -2.5231    2.1991 H   0  0  0  0  0  0  0  0  0  0  0  0
    3.7085   -3.0372    1.3450 H   0  0  0  0  0  0  0  0  0  0  0  0
    1.6246   -2.3821    4.3179 H   0  0  0  0  0  0  0  0  0  0  0  0
    3.1036   -2.5779    5.2532 H   0  0  0  0  0  0  0  0  0  0  0  0
    1.5489   -2.9484    5.9826 H   0  0  0  0  0  0  0  0  0  0  0  0
    1.4741   -5.2056    6.2915 H   0  0  0  0  0  0  0  0  0  0  0  0
    0.9187   -8.4236    6.1237 H   0  0  0  0  0  0  0  0  0  0  0  0
    3.5332   -7.1193    6.2954 H   0  0  0  0  0  0  0  0  0  0  0  0
    2.5454   -9.7958    5.5031 H   0  0  0  0  0  0  0  0  0  0  0  0
    2.7911   -9.0644    7.0428 H   0  0  0  0  0  0  0  0  0  0  0  0
    4.1638   -9.5393    6.0993 H   0  0  0  0  0  0  0  0  0  0  0  0
    4.5537   -6.3585    4.7642 H   0  0  0  0  0  0  0  0  0  0  0  0
    6.4928   -7.0776    4.6681 H   0  0  0  0  0  0  0  0  0  0  0  0
    5.8845   -8.3916    5.5978 H   0  0  0  0  0  0  0  0  0  0  0  0
    7.3922   -8.4959    3.3151 H   0  0  0  0  0  0  0  0  0  0  0  0
    5.9125  -10.8232    4.4985 H   0  0  0  0  0  0  0  0  0  0  0  0
    7.4982  -10.2134    4.8915 H   0  0  0  0  0  0  0  0  0  0  0  0
    7.2199  -10.9276    3.3251 H   0  0  0  0  0  0  0  0  0  0  0  0
    6.1044   -8.0299    1.6207 H   0  0  0  0  0  0  0  0  0  0  0  0
    5.2959  -10.6124    1.3351 H   0  0  0  0  0  0  0  0  0  0  0  0
    3.3941  -10.1984    1.3122 H   0  0  0  0  0  0  0  0  0  0  0  0
    3.7734  -10.8474    4.2144 H   0  0  0  0  0  0  0  0  0  0  0  0
    4.5222  -11.5364    2.7960 H   0  0  0  0  0  0  0  0  0  0  0  0
    2.8426  -11.8142    3.0976 H   0  0  0  0  0  0  0  0  0  0  0  0
    1.4866   -8.9506    1.3860 H   0  0  0  0  0  0  0  0  0  0  0  0
    1.1956  -10.4905    2.0834 H   0  0  0  0  0  0  0  0  0  0  0  0
    0.9344   -9.6556    4.2893 H   0  0  0  0  0  0  0  0  0  0  0  0
    1.5615   -6.9003    2.9643 H   0  0  0  0  0  0  0  0  0  0  0  0
   -1.4400   -6.7656    2.2287 H   0  0  0  0  0  0  0  0  0  0  0  0
   -1.4150   -8.4589    1.7074 H   0  0  0  0  0  0  0  0  0  0  0  0
   -0.0427   -7.4040    1.3723 H   0  0  0  0  0  0  0  0  0  0  0  0
   -1.7200   -7.2849    4.7517 H   0  0  0  0  0  0  0  0  0  0  0  0
   -0.9724   -8.7954    5.3041 H   0  0  0  0  0  0  0  0  0  0  0  0
   -2.1233   -8.8389    3.9952 H   0  0  0  0  0  0  0  0  0  0  0  0
  1  2  2  0
  1 36  1  0
  1 37  1  0
  2  3  1  0
  2  4  1  0
  3 38  1  0
  3 39  1  0
  3 40  1  0
  4  9  1  0
  4  5  1  0
  4 41  1  1
  5  6  1  0
  5 42  1  0
  5 43  1  0
  6 27  1  0
  6  7  1  0
  6 44  1  1
  7  8  1  1
  7  9  1  0
  7 10  1  0
  8 45  1  0
  9 46  1  0
  9 47  1  0
 10 11  2  0
 10 12  1  0
 12 13  1  0
 12 14  2  3
 13 48  1  0
 13 49  1  0
 13 50  1  0
 14 15  1  0
 14 51  1  0
 15 32  1  0
 15 16  1  1
 15 17  1  0
 16 52  1  0
 17 18  1  0
 17 19  1  0
 17 53  1  1
 18 54  1  0
 18 55  1  0
 18 56  1  0
 19 27  1  0
 19 20  1  0
 19 57  1  1
 20 21  1  0
 20 58  1  0
 20 59  1  0
 21 22  1  0
 21 23  1  0
 21 60  1  6
 22 61  1  0
 22 62  1  0
 22 63  1  0
 23 24  1  0
 23 25  1  0
 23 64  1  6
 24 65  1  0
 25 27  1  0
 25 26  1  6
 25 28  1  0
 27 26  1  1
 28 29  1  0
 28 30  1  0
 28 66  1  6
 29 67  1  0
 29 68  1  0
 29 69  1  0
 30 31  1  0
 30 70  1  0
 30 71  1  0
 31 33  1  0
 31 32  1  0
 31 72  1  1
 32 33  1  0
 32 73  1  6
 33 34  1  0
 33 35  1  0
 34 74  1  0
 34 75  1  0
 34 76  1  0
 35 77  1  0
 35 78  1  0
 35 79  1  0
M  END
>  <i_m_ct_stereo_status>  (21) 
1

>  <s_m_source_file>  (21) 
/var/tmp/pbs.5076255.sched01/tmpbdos_d33/0hajo06zg.sdf

>  <i_m_source_file_index>  (21) 
9

>  <i_lp_mmshare_version>  (21) 
48012

>  <i_f3d_flags>  (21) 
0

>  <s_epik_input>  (21) 
W0NIMl09QyhbQ0gzXSlbQ0BIXShbQ0gyXTEpW0NIMl1bQ0BdKFtPSF0pKFtDQEhdMUMyKFtDQF0zNDUpTzQpQyg9TykvQyhbQ0gzXSk9W0NIXS9bQ0BAXShbT0hdKShbQ0BIXTZbQ0BASF0oQzYoW0NIM10pW0NIM10pW0NIMl1bQ0BASF01W0NIM10pW0NAQEhdKFtDSDNdKVtDQEhdMltDSDJdW0NAQEhdKFtDSDNdKVtDQEhdM1tPSF0=

>  <s_epik_cmdline>  (21) 
J2VwaWtfcHl0aG9uJywgJy1waHQnLCAnMi4wJywgJy1waCcsICc3LjAnLCAnLXRuJywgJzgnLCAnLW1hJywgJzIwMCcsICctaW1hZScsICc8aW5maWxlLm1hZT4nLCAnLW9tYWUnLCAnPG91dGZpbGUubWFlPic=

>  <r_lp_tautomer_probability>  (21) 
1

>  <r_epik_Ionization_Penalty>  (21) 
3.32462e-07

>  <r_epik_Ionization_Penalty_Charging>  (21) 
0

>  <r_epik_Ionization_Penalty_Neutral>  (21) 
3.32462e-07

>  <r_epik_State_Penalty>  (21) 
-0

>  <r_epik_Charging_Adjusted_Penalty>  (21) 
0

>  <i_epik_Tot_Q>  (21) 
0

>  <i_epik_Tot_abs_Q>  (21) 
0

>  <s_lp_Force_Field>  (21) 
OPLS3e

>  <r_lp_Energy>  (21) 
141.231

>  <b_lp_Chiralities_Consistent>  (21) 
1

>  <s_lp_Variant>  (21) 
4:0-2

>  <s_i_glide_gridfile>  (21) 
pfpi4k_grid

>  <i_i_glide_lignum>  (21) 
9

>  <i_i_glide_rotatable_bonds>  (21) 
4

>  <r_i_docking_score>  (21) 
-2.37352

>  <r_i_glide_ligand_efficiency>  (21) 
-0.0678148

>  <r_i_glide_ligand_efficiency_sa>  (21) 
-0.221827

>  <r_i_glide_ligand_efficiency_ln>  (21) 
-0.52104

>  <r_i_glide_gscore>  (21) 
-2.37352

>  <r_i_glide_lipo>  (21) 
-0.32509

>  <r_i_glide_hbond>  (21) 
0

>  <r_i_glide_metal>  (21) 
-0

>  <r_i_glide_rewards>  (21) 
-0.104541

>  <r_i_glide_evdw>  (21) 
-30.8511

>  <r_i_glide_ecoul>  (21) 
-3.24621

>  <r_i_glide_erotb>  (21) 
0.0864596

>  <r_i_glide_esite>  (21) 
-0.00085914

>  <r_i_glide_emodel>  (21) 
-38.5179

>  <r_i_glide_energy>  (21) 
-34.0973

>  <r_i_glide_einternal>  (21) 
1.12426

>  <r_i_glide_intrahb_reward>  (21) 
-0

>  <i_i_glide_confnum>  (21) 
1

>  <i_i_glide_posenum>  (21) 
1

>  <r_i_glide_eff_state_penalty>  (21) 
0

>  <ligand_id>  (21) 
4

>  <original_smiles>  (21) 
C=C(C)C1CC2C(O)(C1)C(=O)C(C)=CC1(O)C(C)C3CC(C)C(O)C4(OC324)C(C)CC2C1C2(C)C

>  <smiles>  (21) 
[H]OC1([H])C([H])(C([H])([H])[H])C([H])([H])C2([H])C([H])(C([H])([H])[H])C3(O[H])C([H])=C(C([H])([H])[H])C(=O)C4(O[H])C([H])([H])C([H])(C(=C([H])[H])C([H])([H])[H])C([H])([H])C4([H])C24OC14C([H])(C([H])([H])[H])C([H])([H])C1([H])C3([H])C1(C([H])([H])[H])C([H])([H])[H]

$$$$
4:3:0
     RDKit          3D

 79 84  0  0  1  0  0  0  0  0999 V2000
    3.8720   -0.4103    0.5315 C   0  0  0  0  0  0  0  0  0  0  0  0
    4.4707   -1.5784    0.8196 C   0  0  0  0  0  0  0  0  0  0  0  0
    5.8314   -1.5529    1.4928 C   0  0  0  0  0  0  0  0  0  0  0  0
    3.7958   -2.9293    0.5169 C   0  0  2  0  0  0  0  0  0  0  0  0
    3.0687   -3.5569    1.7215 C   0  0  0  0  0  0  0  0  0  0  0  0
    3.0640   -5.0727    1.4420 C   0  0  1  0  0  0  0  0  0  0  0  0
    4.5109   -5.3247    0.8734 C   0  0  1  0  0  0  0  0  0  0  0  0
    4.5922   -6.4459    0.0309 O   0  0  0  0  0  0  0  0  0  0  0  0
    4.6881   -4.0703   -0.0398 C   0  0  0  0  0  0  0  0  0  0  0  0
    5.6726   -5.3807    1.9051 C   0  0  0  0  0  0  0  0  0  0  0  0
    5.9946   -4.3661    2.4928 O   0  0  0  0  0  0  0  0  0  0  0  0
    6.4125   -6.6284    2.1749 C   0  0  0  0  0  0  0  0  0  0  0  0
    7.7510   -6.6942    1.4639 C   0  0  0  0  0  0  0  0  0  0  0  0
    5.9800   -7.5606    3.0328 C   0  0  0  0  0  0  0  0  0  0  0  0
    4.6936   -7.6156    3.8815 C   0  0  2  0  0  0  0  0  0  0  0  0
    4.9736   -8.5086    4.9464 O   0  0  0  0  0  0  0  0  0  0  0  0
    3.5479   -8.3103    2.9968 C   0  0  1  0  0  0  0  0  0  0  0  0
    3.0720   -9.6958    3.5437 C   0  0  0  0  0  0  0  0  0  0  0  0
    2.4718   -7.4895    2.1574 C   0  0  1  0  0  0  0  0  0  0  0  0
    1.0452   -8.1039    2.0619 C   0  0  0  0  0  0  0  0  0  0  0  0
    0.0863   -7.8734    3.2659 C   0  0  1  0  0  0  0  0  0  0  0  0
   -0.4754   -9.1993    3.8104 C   0  0  0  0  0  0  0  0  0  0  0  0
    0.6065   -6.8979    4.3493 C   0  0  1  0  0  0  0  0  0  0  0  0
    1.2733   -7.6693    5.3158 O   0  0  0  0  0  0  0  0  0  0  0  0
    1.4891   -5.7756    3.7666 C   0  0  2  0  0  0  0  0  0  0  0  0
    1.0142   -5.4510    2.4858 O   0  0  0  0  0  0  0  0  0  0  0  0
    2.3408   -6.0092    2.4677 C   0  0  0  0  0  0  0  0  0  0  0  0
    1.8099   -4.6421    4.7438 C   0  0  1  0  0  0  0  0  0  0  0  0
    0.5936   -3.7438    5.0440 C   0  0  0  0  0  0  0  0  0  0  0  0
    2.5075   -5.0924    6.0576 C   0  0  0  0  0  0  0  0  0  0  0  0
    3.6811   -6.0824    5.9207 C   0  0  1  0  0  0  0  0  0  0  0  0
    4.3938   -6.2494    4.5906 C   0  0  1  0  0  0  0  0  0  0  0  0
    5.1241   -5.6105    5.7581 C   0  0  0  0  0  0  0  0  0  0  0  0
    5.4435   -4.1261    5.6860 C   0  0  0  0  0  0  0  0  0  0  0  0
    6.2368   -6.3064    6.5304 C   0  0  0  0  0  0  0  0  0  0  0  0
    4.3626    0.5221    0.7627 H   0  0  0  0  0  0  0  0  0  0  0  0
    2.8929   -0.3686    0.0766 H   0  0  0  0  0  0  0  0  0  0  0  0
    5.7349   -1.9715    2.4896 H   0  0  0  0  0  0  0  0  0  0  0  0
    6.2039   -0.5388    1.6328 H   0  0  0  0  0  0  0  0  0  0  0  0
    6.5817   -2.0915    0.9204 H   0  0  0  0  0  0  0  0  0  0  0  0
    3.0279   -2.7253   -0.2422 H   0  0  0  0  0  0  0  0  0  0  0  0
    3.6377   -3.3186    2.6181 H   0  0  0  0  0  0  0  0  0  0  0  0
    2.0695   -3.1341    1.8458 H   0  0  0  0  0  0  0  0  0  0  0  0
    2.4242   -5.1747    0.5525 H   0  0  0  0  0  0  0  0  0  0  0  0
    3.9845   -6.3230   -0.6838 H   0  0  0  0  0  0  0  0  0  0  0  0
    4.3554   -4.3028   -1.0562 H   0  0  0  0  0  0  0  0  0  0  0  0
    5.7317   -3.7947   -0.1513 H   0  0  0  0  0  0  0  0  0  0  0  0
    7.6062   -6.6839    0.3865 H   0  0  0  0  0  0  0  0  0  0  0  0
    8.3057   -7.5940    1.7313 H   0  0  0  0  0  0  0  0  0  0  0  0
    8.3682   -5.8340    1.7157 H   0  0  0  0  0  0  0  0  0  0  0  0
    6.6354   -8.4125    3.1764 H   0  0  0  0  0  0  0  0  0  0  0  0
    5.0879   -9.3762    4.5813 H   0  0  0  0  0  0  0  0  0  0  0  0
    4.1244   -8.7069    2.1628 H   0  0  0  0  0  0  0  0  0  0  0  0
    2.5628   -9.6442    4.5075 H   0  0  0  0  0  0  0  0  0  0  0  0
    3.9169  -10.3753    3.6864 H   0  0  0  0  0  0  0  0  0  0  0  0
    2.4370  -10.2401    2.8489 H   0  0  0  0  0  0  0  0  0  0  0  0
    2.7918   -7.5750    1.1121 H   0  0  0  0  0  0  0  0  0  0  0  0
    0.5558   -7.6359    1.1947 H   0  0  0  0  0  0  0  0  0  0  0  0
    1.0724   -9.1475    1.7722 H   0  0  0  0  0  0  0  0  0  0  0  0
   -0.7816   -7.3901    2.8385 H   0  0  0  0  0  0  0  0  0  0  0  0
    0.2949   -9.8418    4.2338 H   0  0  0  0  0  0  0  0  0  0  0  0
   -0.9832   -9.7808    3.0384 H   0  0  0  0  0  0  0  0  0  0  0  0
   -1.2016   -9.0127    4.6024 H   0  0  0  0  0  0  0  0  0  0  0  0
   -0.2548   -6.4446    4.8472 H   0  0  0  0  0  0  0  0  0  0  0  0
    1.9710   -8.1349    4.8665 H   0  0  0  0  0  0  0  0  0  0  0  0
    2.5065   -3.9888    4.2534 H   0  0  0  0  0  0  0  0  0  0  0  0
   -0.1934   -4.2706    5.5896 H   0  0  0  0  0  0  0  0  0  0  0  0
    0.1603   -3.3424    4.1240 H   0  0  0  0  0  0  0  0  0  0  0  0
    0.8883   -2.8861    5.6563 H   0  0  0  0  0  0  0  0  0  0  0  0
    2.8561   -4.2177    6.6108 H   0  0  0  0  0  0  0  0  0  0  0  0
    1.7709   -5.5558    6.7181 H   0  0  0  0  0  0  0  0  0  0  0  0
    3.5642   -6.9507    6.5495 H   0  0  0  0  0  0  0  0  0  0  0  0
    4.1782   -5.4796    3.8934 H   0  0  0  0  0  0  0  0  0  0  0  0
    6.4114   -3.9768    5.2076 H   0  0  0  0  0  0  0  0  0  0  0  0
    5.4821   -3.6902    6.6864 H   0  0  0  0  0  0  0  0  0  0  0  0
    4.6915   -3.5979    5.1060 H   0  0  0  0  0  0  0  0  0  0  0  0
    7.1168   -6.4154    5.8931 H   0  0  0  0  0  0  0  0  0  0  0  0
    5.9217   -7.2868    6.8720 H   0  0  0  0  0  0  0  0  0  0  0  0
    6.5182   -5.7262    7.4149 H   0  0  0  0  0  0  0  0  0  0  0  0
  1  2  2  0
  1 36  1  0
  1 37  1  0
  2  3  1  0
  2  4  1  0
  3 38  1  0
  3 39  1  0
  3 40  1  0
  4  9  1  0
  4  5  1  0
  4 41  1  6
  5  6  1  0
  5 42  1  0
  5 43  1  0
  6 27  1  0
  6  7  1  0
  6 44  1  6
  7  8  1  6
  7  9  1  0
  7 10  1  0
  8 45  1  0
  9 46  1  0
  9 47  1  0
 10 11  2  0
 10 12  1  0
 12 13  1  0
 12 14  2  3
 13 48  1  0
 13 49  1  0
 13 50  1  0
 14 15  1  0
 14 51  1  0
 15 32  1  0
 15 16  1  1
 15 17  1  0
 16 52  1  0
 17 18  1  0
 17 19  1  0
 17 53  1  6
 18 54  1  0
 18 55  1  0
 18 56  1  0
 19 27  1  0
 19 20  1  0
 19 57  1  6
 20 21  1  0
 20 58  1  0
 20 59  1  0
 21 22  1  0
 21 23  1  0
 21 60  1  6
 22 61  1  0
 22 62  1  0
 22 63  1  0
 23 24  1  0
 23 25  1  0
 23 64  1  1
 24 65  1  0
 25 27  1  0
 25 26  1  6
 25 28  1  0
 26 27  1  0
 28 29  1  0
 28 30  1  0
 28 66  1  6
 29 67  1  0
 29 68  1  0
 29 69  1  0
 30 31  1  0
 30 70  1  0
 30 71  1  0
 31 33  1  0
 31 32  1  0
 31 72  1  1
 32 33  1  0
 32 73  1  6
 33 34  1  0
 33 35  1  0
 34 74  1  0
 34 75  1  0
 34 76  1  0
 35 77  1  0
 35 78  1  0
 35 79  1  0
M  END
>  <i_m_ct_stereo_status>  (22) 
1

>  <s_m_source_file>  (22) 
/var/tmp/pbs.5076255.sched01/tmpbdos_d33/0hajo06zg.sdf

>  <i_m_source_file_index>  (22) 
11

>  <i_lp_mmshare_version>  (22) 
48012

>  <i_f3d_flags>  (22) 
0

>  <s_epik_input>  (22) 
W0NIMl09QyhbQ0gzXSlbQ0BIXShbQ0gyXTEpW0NIMl1bQ0BdKFtPSF0pKFtDQEhdMUMyKFtDQF0zNDUpTzQpQyg9TykvQyhbQ0gzXSk9W0NIXS9bQ0BAXShbT0hdKShbQ0BIXTZbQ0BASF0oQzYoW0NIM10pW0NIM10pW0NIMl1bQ0BASF01W0NIM10pW0NAQEhdKFtDSDNdKVtDQEhdMltDSDJdW0NAQEhdKFtDSDNdKVtDQEhdM1tPSF0=

>  <s_epik_cmdline>  (22) 
J2VwaWtfcHl0aG9uJywgJy1waHQnLCAnMi4wJywgJy1waCcsICc3LjAnLCAnLXRuJywgJzgnLCAnLW1hJywgJzIwMCcsICctaW1hZScsICc8aW5maWxlLm1hZT4nLCAnLW9tYWUnLCAnPG91dGZpbGUubWFlPic=

>  <r_lp_tautomer_probability>  (22) 
1

>  <r_epik_Ionization_Penalty>  (22) 
3.32462e-07

>  <r_epik_Ionization_Penalty_Charging>  (22) 
0

>  <r_epik_Ionization_Penalty_Neutral>  (22) 
3.32462e-07

>  <r_epik_State_Penalty>  (22) 
-0

>  <r_epik_Charging_Adjusted_Penalty>  (22) 
0

>  <i_epik_Tot_Q>  (22) 
0

>  <i_epik_Tot_abs_Q>  (22) 
0

>  <s_lp_Force_Field>  (22) 
OPLS3e

>  <r_lp_Energy>  (22) 
115.028

>  <b_lp_Chiralities_Consistent>  (22) 
1

>  <s_lp_Variant>  (22) 
4:0-4

>  <s_i_glide_gridfile>  (22) 
pfpi4k_grid

>  <i_i_glide_lignum>  (22) 
11

>  <i_i_glide_rotatable_bonds>  (22) 
4

>  <r_i_docking_score>  (22) 
-2.58746

>  <r_i_glide_ligand_efficiency>  (22) 
-0.0739274

>  <r_i_glide_ligand_efficiency_sa>  (22) 
-0.241821

>  <r_i_glide_ligand_efficiency_ln>  (22) 
-0.568004

>  <r_i_glide_gscore>  (22) 
-2.58746

>  <r_i_glide_lipo>  (22) 
-0.319075

>  <r_i_glide_hbond>  (22) 
-0.256552

>  <r_i_glide_metal>  (22) 
-0

>  <r_i_glide_rewards>  (22) 
-0.160364

>  <r_i_glide_evdw>  (22) 
-27.941

>  <r_i_glide_ecoul>  (22) 
-3.60583

>  <r_i_glide_erotb>  (22) 
0.0864596

>  <r_i_glide_esite>  (22) 
0

>  <r_i_glide_emodel>  (22) 
-35.4016

>  <r_i_glide_energy>  (22) 
-31.5469

>  <r_i_glide_einternal>  (22) 
1.68013

>  <r_i_glide_intrahb_reward>  (22) 
-0

>  <i_i_glide_confnum>  (22) 
2

>  <i_i_glide_posenum>  (22) 
6

>  <r_i_glide_eff_state_penalty>  (22) 
0

>  <ligand_id>  (22) 
4

>  <original_smiles>  (22) 
C=C(C)C1CC2C(O)(C1)C(=O)C(C)=CC1(O)C(C)C3CC(C)C(O)C4(OC324)C(C)CC2C1C2(C)C

>  <smiles>  (22) 
[H]OC1([H])C([H])(C([H])([H])[H])C([H])([H])C2([H])C([H])(C([H])([H])[H])C3(O[H])C([H])=C(C([H])([H])[H])C(=O)C4(O[H])C([H])([H])C([H])(C(=C([H])[H])C([H])([H])[H])C([H])([H])C4([H])C24OC14C([H])(C([H])([H])[H])C([H])([H])C1([H])C3([H])C1(C([H])([H])[H])C([H])([H])[H]

$$$$
4:3:1
     RDKit          3D

 79 84  0  0  1  0  0  0  0  0999 V2000
    5.4495   -1.9911    1.5676 C   0  0  0  0  0  0  0  0  0  0  0  0
    5.5706   -2.8719    0.5534 C   0  0  0  0  0  0  0  0  0  0  0  0
    6.6568   -2.6761   -0.4883 C   0  0  0  0  0  0  0  0  0  0  0  0
    4.6293   -4.0710    0.3449 C   0  0  2  0  0  0  0  0  0  0  0  0
    3.6132   -4.3293    1.4742 C   0  0  0  0  0  0  0  0  0  0  0  0
    3.2888   -5.8285    1.3839 C   0  0  1  0  0  0  0  0  0  0  0  0
    4.7037   -6.4593    1.1308 C   0  0  1  0  0  0  0  0  0  0  0  0
    4.6168   -7.7091    0.4693 O   0  0  0  0  0  0  0  0  0  0  0  0
    5.2935   -5.4511    0.1040 C   0  0  0  0  0  0  0  0  0  0  0  0
    5.6961   -6.5603    2.3243 C   0  0  0  0  0  0  0  0  0  0  0  0
    6.2098   -5.5341    2.7741 O   0  0  0  0  0  0  0  0  0  0  0  0
    6.0655   -7.8742    2.8787 C   0  0  0  0  0  0  0  0  0  0  0  0
    7.4050   -8.3930    2.3857 C   0  0  0  0  0  0  0  0  0  0  0  0
    5.2969   -8.5662    3.7464 C   0  0  0  0  0  0  0  0  0  0  0  0
    3.9379   -8.2248    4.3748 C   0  0  2  0  0  0  0  0  0  0  0  0
    3.8680   -8.9783    5.5700 O   0  0  0  0  0  0  0  0  0  0  0  0
    2.7781   -8.7951    3.4141 C   0  0  1  0  0  0  0  0  0  0  0  0
    1.9140   -9.9346    4.0523 C   0  0  0  0  0  0  0  0  0  0  0  0
    2.0360   -7.9040    2.3141 C   0  0  1  0  0  0  0  0  0  0  0  0
    0.5271   -8.1942    2.0820 C   0  0  0  0  0  0  0  0  0  0  0  0
   -0.4957   -7.5710    3.0637 C   0  0  1  0  0  0  0  0  0  0  0  0
   -1.4304   -8.6276    3.6841 C   0  0  0  0  0  0  0  0  0  0  0  0
    0.1175   -6.5657    4.0842 C   0  0  1  0  0  0  0  0  0  0  0  0
    0.4638   -7.3003    5.2310 O   0  0  0  0  0  0  0  0  0  0  0  0
    1.3127   -5.7738    3.5011 C   0  0  2  0  0  0  0  0  0  0  0  0
    1.0927   -5.5475    2.1299 O   0  0  0  0  0  0  0  0  0  0  0  0
    2.2339   -6.3926    2.4029 C   0  0  0  0  0  0  0  0  0  0  0  0
    1.7746   -4.5896    4.3711 C   0  0  1  0  0  0  0  0  0  0  0  0
    0.7899   -3.4057    4.3538 C   0  0  0  0  0  0  0  0  0  0  0  0
    2.1752   -4.9663    5.8275 C   0  0  0  0  0  0  0  0  0  0  0  0
    3.0825   -6.1935    6.0099 C   0  0  1  0  0  0  0  0  0  0  0  0
    3.8841   -6.7370    4.8428 C   0  0  1  0  0  0  0  0  0  0  0  0
    4.6098   -6.0929    6.0165 C   0  0  0  0  0  0  0  0  0  0  0  0
    5.2876   -4.7474    5.7970 C   0  0  0  0  0  0  0  0  0  0  0  0
    5.4079   -6.8861    7.0431 C   0  0  0  0  0  0  0  0  0  0  0  0
    6.1277   -1.1572    1.6608 H   0  0  0  0  0  0  0  0  0  0  0  0
    4.6754   -2.0671    2.3141 H   0  0  0  0  0  0  0  0  0  0  0  0
    7.3460   -3.5190   -0.5210 H   0  0  0  0  0  0  0  0  0  0  0  0
    7.2479   -1.7895   -0.2664 H   0  0  0  0  0  0  0  0  0  0  0  0
    6.2157   -2.5461   -1.4750 H   0  0  0  0  0  0  0  0  0  0  0  0
    4.0653   -3.8408   -0.5585 H   0  0  0  0  0  0  0  0  0  0  0  0
    4.0877   -4.1445    2.4335 H   0  0  0  0  0  0  0  0  0  0  0  0
    2.7398   -3.6830    1.3828 H   0  0  0  0  0  0  0  0  0  0  0  0
    2.7732   -5.9367    0.4263 H   0  0  0  0  0  0  0  0  0  0  0  0
    4.2401   -8.3491    1.0586 H   0  0  0  0  0  0  0  0  0  0  0  0
    5.0428   -5.7745   -0.9088 H   0  0  0  0  0  0  0  0  0  0  0  0
    6.3809   -5.4185    0.1446 H   0  0  0  0  0  0  0  0  0  0  0  0
    7.3778   -8.5624    1.3082 H   0  0  0  0  0  0  0  0  0  0  0  0
    7.6727   -9.3347    2.8633 H   0  0  0  0  0  0  0  0  0  0  0  0
    8.2008   -7.6762    2.5920 H   0  0  0  0  0  0  0  0  0  0  0  0
    5.6930   -9.5221    4.0642 H   0  0  0  0  0  0  0  0  0  0  0  0
    3.7687   -9.8956    5.3554 H   0  0  0  0  0  0  0  0  0  0  0  0
    3.3400   -9.4452    2.7409 H   0  0  0  0  0  0  0  0  0  0  0  0
    1.3176   -9.6124    4.9044 H   0  0  0  0  0  0  0  0  0  0  0  0
    2.5416  -10.7519    4.4135 H   0  0  0  0  0  0  0  0  0  0  0  0
    1.2539  -10.4271    3.3408 H   0  0  0  0  0  0  0  0  0  0  0  0
    2.4412   -8.2222    1.3569 H   0  0  0  0  0  0  0  0  0  0  0  0
    0.2925   -7.7745    1.0991 H   0  0  0  0  0  0  0  0  0  0  0  0
    0.3340   -9.2523    1.9284 H   0  0  0  0  0  0  0  0  0  0  0  0
   -1.1589   -6.9822    2.4330 H   0  0  0  0  0  0  0  0  0  0  0  0
   -0.8792   -9.3432    4.2970 H   0  0  0  0  0  0  0  0  0  0  0  0
   -1.9569   -9.2086    2.9252 H   0  0  0  0  0  0  0  0  0  0  0  0
   -2.1799   -8.1645    4.3235 H   0  0  0  0  0  0  0  0  0  0  0  0
   -0.6575   -5.8649    4.3829 H   0  0  0  0  0  0  0  0  0  0  0  0
    1.0807   -7.9696    4.9652 H   0  0  0  0  0  0  0  0  0  0  0  0
    2.6712   -4.1914    3.9219 H   0  0  0  0  0  0  0  0  0  0  0  0
   -0.1630   -3.6538    4.8279 H   0  0  0  0  0  0  0  0  0  0  0  0
    0.5841   -3.0783    3.3320 H   0  0  0  0  0  0  0  0  0  0  0  0
    1.2046   -2.5462    4.8855 H   0  0  0  0  0  0  0  0  0  0  0  0
    2.6492   -4.1103    6.3063 H   0  0  0  0  0  0  0  0  0  0  0  0
    1.2684   -5.1366    6.4094 H   0  0  0  0  0  0  0  0  0  0  0  0
    2.6738   -6.9112    6.7190 H   0  0  0  0  0  0  0  0  0  0  0  0
    3.9476   -6.0609    4.0158 H   0  0  0  0  0  0  0  0  0  0  0  0
    6.3114   -4.8870    5.4471 H   0  0  0  0  0  0  0  0  0  0  0  0
    5.3096   -4.1715    6.7233 H   0  0  0  0  0  0  0  0  0  0  0  0
    4.7565   -4.1598    5.0478 H   0  0  0  0  0  0  0  0  0  0  0  0
    6.3088   -7.2947    6.5813 H   0  0  0  0  0  0  0  0  0  0  0  0
    4.8244   -7.7084    7.4575 H   0  0  0  0  0  0  0  0  0  0  0  0
    5.7062   -6.2517    7.8803 H   0  0  0  0  0  0  0  0  0  0  0  0
  1  2  2  0
  1 36  1  0
  1 37  1  0
  2  3  1  0
  2  4  1  0
  3 38  1  0
  3 39  1  0
  3 40  1  0
  4  9  1  0
  4  5  1  0
  4 41  1  6
  5  6  1  0
  5 42  1  0
  5 43  1  0
  6 27  1  0
  6  7  1  0
  6 44  1  6
  7  8  1  6
  7  9  1  0
  7 10  1  0
  8 45  1  0
  9 46  1  0
  9 47  1  0
 10 11  2  0
 10 12  1  0
 12 13  1  0
 12 14  2  3
 13 48  1  0
 13 49  1  0
 13 50  1  0
 14 15  1  0
 14 51  1  0
 15 32  1  0
 15 16  1  1
 15 17  1  0
 16 52  1  0
 17 18  1  0
 17 19  1  0
 17 53  1  6
 18 54  1  0
 18 55  1  0
 18 56  1  0
 19 27  1  0
 19 20  1  0
 19 57  1  6
 20 21  1  0
 20 58  1  0
 20 59  1  0
 21 22  1  0
 21 23  1  0
 21 60  1  6
 22 61  1  0
 22 62  1  0
 22 63  1  0
 23 24  1  0
 23 25  1  0
 23 64  1  1
 24 65  1  0
 25 27  1  0
 25 26  1  6
 25 28  1  0
 26 27  1  0
 28 29  1  0
 28 30  1  0
 28 66  1  6
 29 67  1  0
 29 68  1  0
 29 69  1  0
 30 31  1  0
 30 70  1  0
 30 71  1  0
 31 33  1  0
 31 32  1  0
 31 72  1  1
 32 33  1  0
 32 73  1  6
 33 34  1  0
 33 35  1  0
 34 74  1  0
 34 75  1  0
 34 76  1  0
 35 77  1  0
 35 78  1  0
 35 79  1  0
M  END
>  <i_m_ct_stereo_status>  (23) 
1

>  <s_m_source_file>  (23) 
/var/tmp/pbs.5076255.sched01/tmpbdos_d33/0hajo06zg.sdf

>  <i_m_source_file_index>  (23) 
11

>  <i_lp_mmshare_version>  (23) 
48012

>  <i_f3d_flags>  (23) 
0

>  <s_epik_input>  (23) 
W0NIMl09QyhbQ0gzXSlbQ0BIXShbQ0gyXTEpW0NIMl1bQ0BdKFtPSF0pKFtDQEhdMUMyKFtDQF0zNDUpTzQpQyg9TykvQyhbQ0gzXSk9W0NIXS9bQ0BAXShbT0hdKShbQ0BIXTZbQ0BASF0oQzYoW0NIM10pW0NIM10pW0NIMl1bQ0BASF01W0NIM10pW0NAQEhdKFtDSDNdKVtDQEhdMltDSDJdW0NAQEhdKFtDSDNdKVtDQEhdM1tPSF0=

>  <s_epik_cmdline>  (23) 
J2VwaWtfcHl0aG9uJywgJy1waHQnLCAnMi4wJywgJy1waCcsICc3LjAnLCAnLXRuJywgJzgnLCAnLW1hJywgJzIwMCcsICctaW1hZScsICc8aW5maWxlLm1hZT4nLCAnLW9tYWUnLCAnPG91dGZpbGUubWFlPic=

>  <r_lp_tautomer_probability>  (23) 
1

>  <r_epik_Ionization_Penalty>  (23) 
3.32462e-07

>  <r_epik_Ionization_Penalty_Charging>  (23) 
0

>  <r_epik_Ionization_Penalty_Neutral>  (23) 
3.32462e-07

>  <r_epik_State_Penalty>  (23) 
-0

>  <r_epik_Charging_Adjusted_Penalty>  (23) 
0

>  <i_epik_Tot_Q>  (23) 
0

>  <i_epik_Tot_abs_Q>  (23) 
0

>  <s_lp_Force_Field>  (23) 
OPLS3e

>  <r_lp_Energy>  (23) 
115.028

>  <b_lp_Chiralities_Consistent>  (23) 
1

>  <s_lp_Variant>  (23) 
4:0-4

>  <s_i_glide_gridfile>  (23) 
pfpi4k_grid

>  <i_i_glide_lignum>  (23) 
11

>  <i_i_glide_rotatable_bonds>  (23) 
4

>  <r_i_docking_score>  (23) 
-2.37313

>  <r_i_glide_ligand_efficiency>  (23) 
-0.0678037

>  <r_i_glide_ligand_efficiency_sa>  (23) 
-0.22179

>  <r_i_glide_ligand_efficiency_ln>  (23) 
-0.520954

>  <r_i_glide_gscore>  (23) 
-2.37313

>  <r_i_glide_lipo>  (23) 
-0.423402

>  <r_i_glide_hbond>  (23) 
-0.0858341

>  <r_i_glide_metal>  (23) 
-0

>  <r_i_glide_rewards>  (23) 
-0.125271

>  <r_i_glide_evdw>  (23) 
-29.448

>  <r_i_glide_ecoul>  (23) 
-2.3512

>  <r_i_glide_erotb>  (23) 
0.0864596

>  <r_i_glide_esite>  (23) 
0

>  <r_i_glide_emodel>  (23) 
-35.0919

>  <r_i_glide_energy>  (23) 
-31.7992

>  <r_i_glide_einternal>  (23) 
2.72423

>  <r_i_glide_intrahb_reward>  (23) 
-0

>  <i_i_glide_confnum>  (23) 
3

>  <i_i_glide_posenum>  (23) 
36

>  <r_i_glide_eff_state_penalty>  (23) 
0

>  <ligand_id>  (23) 
4

>  <original_smiles>  (23) 
C=C(C)C1CC2C(O)(C1)C(=O)C(C)=CC1(O)C(C)C3CC(C)C(O)C4(OC324)C(C)CC2C1C2(C)C

>  <smiles>  (23) 
[H]OC1([H])C([H])(C([H])([H])[H])C([H])([H])C2([H])C([H])(C([H])([H])[H])C3(O[H])C([H])=C(C([H])([H])[H])C(=O)C4(O[H])C([H])([H])C([H])(C(=C([H])[H])C([H])([H])[H])C([H])([H])C4([H])C24OC14C([H])(C([H])([H])[H])C([H])([H])C1([H])C3([H])C1(C([H])([H])[H])C([H])([H])[H]

$$$$
4:3:2
     RDKit          3D

 79 84  0  0  1  0  0  0  0  0999 V2000
    5.3784   -1.8869    1.6090 C   0  0  0  0  0  0  0  0  0  0  0  0
    5.4998   -2.7494    0.5816 C   0  0  0  0  0  0  0  0  0  0  0  0
    6.5694   -2.5202   -0.4713 C   0  0  0  0  0  0  0  0  0  0  0  0
    4.5755   -3.9609    0.3646 C   0  0  2  0  0  0  0  0  0  0  0  0
    3.5636   -4.2421    1.4927 C   0  0  0  0  0  0  0  0  0  0  0  0
    3.2600   -5.7452    1.3937 C   0  0  1  0  0  0  0  0  0  0  0  0
    4.6849   -6.3518    1.1343 C   0  0  1  0  0  0  0  0  0  0  0  0
    4.6129   -7.6021    0.4697 O   0  0  0  0  0  0  0  0  0  0  0  0
    5.2596   -5.3293    0.1128 C   0  0  0  0  0  0  0  0  0  0  0  0
    5.6790   -6.4461    2.3266 C   0  0  0  0  0  0  0  0  0  0  0  0
    6.1808   -5.4174    2.7820 O   0  0  0  0  0  0  0  0  0  0  0  0
    6.0675   -7.7589    2.8702 C   0  0  0  0  0  0  0  0  0  0  0  0
    7.4132   -8.2559    2.3689 C   0  0  0  0  0  0  0  0  0  0  0  0
    5.3111   -8.4667    3.7332 C   0  0  0  0  0  0  0  0  0  0  0  0
    3.9499   -8.1517    4.3688 C   0  0  2  0  0  0  0  0  0  0  0  0
    3.9058   -8.9193    5.5570 O   0  0  0  0  0  0  0  0  0  0  0  0
    2.7995   -8.7327    3.4012 C   0  0  1  0  0  0  0  0  0  0  0  0
    1.9527   -9.8877    4.0326 C   0  0  0  0  0  0  0  0  0  0  0  0
    2.0394   -7.8433    2.3133 C   0  0  1  0  0  0  0  0  0  0  0  0
    0.5350   -8.1565    2.0784 C   0  0  0  0  0  0  0  0  0  0  0  0
   -0.4941   -7.5530    3.0698 C   0  0  1  0  0  0  0  0  0  0  0  0
   -1.4146   -8.6277    3.6802 C   0  0  0  0  0  0  0  0  0  0  0  0
    0.1052   -6.5441    4.0915 C   0  0  1  0  0  0  0  0  0  0  0  0
    0.4659   -7.2749    5.2378 O   0  0  0  0  0  0  0  0  0  0  0  0
    1.2853   -5.7299    3.5133 C   0  0  2  0  0  0  0  0  0  0  0  0
    1.0598   -5.5001    2.1436 O   0  0  0  0  0  0  0  0  0  0  0  0
    2.2145   -6.3300    2.4105 C   0  0  0  0  0  0  0  0  0  0  0  0
    1.7325   -4.5464    4.3905 C   0  0  1  0  0  0  0  0  0  0  0  0
    0.7311   -3.3772    4.3816 C   0  0  0  0  0  0  0  0  0  0  0  0
    2.1406   -4.9268    5.8440 C   0  0  0  0  0  0  0  0  0  0  0  0
    3.0656   -6.1426    6.0172 C   0  0  1  0  0  0  0  0  0  0  0  0
    3.8736   -6.6677    4.8455 C   0  0  1  0  0  0  0  0  0  0  0  0
    4.5909   -6.0204    6.0226 C   0  0  0  0  0  0  0  0  0  0  0  0
    5.2484   -4.6642    5.8115 C   0  0  0  0  0  0  0  0  0  0  0  0
    5.4003   -6.8088    7.0434 C   0  0  0  0  0  0  0  0  0  0  0  0
    6.0450   -1.0431    1.7053 H   0  0  0  0  0  0  0  0  0  0  0  0
    4.6159   -1.9851    2.3655 H   0  0  0  0  0  0  0  0  0  0  0  0
    7.2711   -3.3511   -0.5275 H   0  0  0  0  0  0  0  0  0  0  0  0
    7.1468   -1.6261   -0.2415 H   0  0  0  0  0  0  0  0  0  0  0  0
    6.1121   -2.3799   -1.4491 H   0  0  0  0  0  0  0  0  0  0  0  0
    4.0074   -3.7317   -0.5367 H   0  0  0  0  0  0  0  0  0  0  0  0
    4.0358   -4.0594    2.4535 H   0  0  0  0  0  0  0  0  0  0  0  0
    2.6814   -3.6072    1.4067 H   0  0  0  0  0  0  0  0  0  0  0  0
    2.7449   -5.8548    0.4356 H   0  0  0  0  0  0  0  0  0  0  0  0
    4.2319   -8.2375    1.0555 H   0  0  0  0  0  0  0  0  0  0  0  0
    5.0164   -5.6512   -0.9023 H   0  0  0  0  0  0  0  0  0  0  0  0
    6.3472   -5.2802    0.1535 H   0  0  0  0  0  0  0  0  0  0  0  0
    7.3869   -8.4163    1.2906 H   0  0  0  0  0  0  0  0  0  0  0  0
    7.6938   -9.1952    2.8404 H   0  0  0  0  0  0  0  0  0  0  0  0
    8.1966   -7.5282    2.5827 H   0  0  0  0  0  0  0  0  0  0  0  0
    5.7212   -9.4199    4.0432 H   0  0  0  0  0  0  0  0  0  0  0  0
    3.7961   -9.8310    5.3327 H   0  0  0  0  0  0  0  0  0  0  0  0
    3.3693   -9.3699    2.7224 H   0  0  0  0  0  0  0  0  0  0  0  0
    1.3537   -9.5656    4.8829 H   0  0  0  0  0  0  0  0  0  0  0  0
    2.5893  -10.6983    4.3919 H   0  0  0  0  0  0  0  0  0  0  0  0
    1.2967  -10.3844    3.3200 H   0  0  0  0  0  0  0  0  0  0  0  0
    2.4453   -8.1489    1.3515 H   0  0  0  0  0  0  0  0  0  0  0  0
    0.2931   -7.7314    1.1034 H   0  0  0  0  0  0  0  0  0  0  0  0
    0.3571   -9.2144    1.9194 H   0  0  0  0  0  0  0  0  0  0  0  0
   -1.1658   -6.9713    2.4405 H   0  0  0  0  0  0  0  0  0  0  0  0
   -0.8574   -9.3456    4.2845 H   0  0  0  0  0  0  0  0  0  0  0  0
   -1.9305   -9.2071    2.9130 H   0  0  0  0  0  0  0  0  0  0  0  0
   -2.1790   -8.1820    4.3179 H   0  0  0  0  0  0  0  0  0  0  0  0
   -0.6873   -5.8626    4.3941 H   0  0  0  0  0  0  0  0  0  0  0  0
   -0.1421   -7.9920    5.3367 H   0  0  0  0  0  0  0  0  0  0  0  0
    2.6222   -4.1346    3.9417 H   0  0  0  0  0  0  0  0  0  0  0  0
   -0.2149   -3.6433    4.8572 H   0  0  0  0  0  0  0  0  0  0  0  0
    0.5178   -3.0481    3.3618 H   0  0  0  0  0  0  0  0  0  0  0  0
    1.1344   -2.5147    4.9176 H   0  0  0  0  0  0  0  0  0  0  0  0
    2.6020   -4.0669    6.3279 H   0  0  0  0  0  0  0  0  0  0  0  0
    1.2371   -5.1147    6.4250 H   0  0  0  0  0  0  0  0  0  0  0  0
    2.6654   -6.8743    6.7166 H   0  0  0  0  0  0  0  0  0  0  0  0
    3.9254   -5.9854    4.0230 H   0  0  0  0  0  0  0  0  0  0  0  0
    6.2737   -4.7875    5.4603 H   0  0  0  0  0  0  0  0  0  0  0  0
    5.2622   -4.0948    6.7421 H   0  0  0  0  0  0  0  0  0  0  0  0
    4.7078   -4.0799    5.0666 H   0  0  0  0  0  0  0  0  0  0  0  0
    6.3062   -7.2014    6.5774 H   0  0  0  0  0  0  0  0  0  0  0  0
    4.8282   -7.6417    7.4527 H   0  0  0  0  0  0  0  0  0  0  0  0
    5.6897   -6.1754    7.8845 H   0  0  0  0  0  0  0  0  0  0  0  0
  1  2  2  0
  1 36  1  0
  1 37  1  0
  2  3  1  0
  2  4  1  0
  3 38  1  0
  3 39  1  0
  3 40  1  0
  4  9  1  0
  4  5  1  0
  4 41  1  6
  5  6  1  0
  5 42  1  0
  5 43  1  0
  6 27  1  0
  6  7  1  0
  6 44  1  6
  7  8  1  6
  7  9  1  0
  7 10  1  0
  8 45  1  0
  9 46  1  0
  9 47  1  0
 10 11  2  0
 10 12  1  0
 12 13  1  0
 12 14  2  3
 13 48  1  0
 13 49  1  0
 13 50  1  0
 14 15  1  0
 14 51  1  0
 15 32  1  0
 15 16  1  1
 15 17  1  0
 16 52  1  0
 17 18  1  0
 17 19  1  0
 17 53  1  6
 18 54  1  0
 18 55  1  0
 18 56  1  0
 19 27  1  0
 19 20  1  0
 19 57  1  6
 20 21  1  0
 20 58  1  0
 20 59  1  0
 21 22  1  0
 21 23  1  0
 21 60  1  6
 22 61  1  0
 22 62  1  0
 22 63  1  0
 23 24  1  0
 23 25  1  0
 23 64  1  1
 24 65  1  0
 25 27  1  0
 25 26  1  6
 25 28  1  0
 26 27  1  0
 28 29  1  0
 28 30  1  0
 28 66  1  6
 29 67  1  0
 29 68  1  0
 29 69  1  0
 30 31  1  0
 30 70  1  0
 30 71  1  0
 31 33  1  0
 31 32  1  0
 31 72  1  1
 32 33  1  0
 32 73  1  6
 33 34  1  0
 33 35  1  0
 34 74  1  0
 34 75  1  0
 34 76  1  0
 35 77  1  0
 35 78  1  0
 35 79  1  0
M  END
>  <i_m_ct_stereo_status>  (24) 
1

>  <s_m_source_file>  (24) 
/var/tmp/pbs.5076255.sched01/tmpbdos_d33/0hajo06zg.sdf

>  <i_m_source_file_index>  (24) 
11

>  <i_lp_mmshare_version>  (24) 
48012

>  <i_f3d_flags>  (24) 
0

>  <s_epik_input>  (24) 
W0NIMl09QyhbQ0gzXSlbQ0BIXShbQ0gyXTEpW0NIMl1bQ0BdKFtPSF0pKFtDQEhdMUMyKFtDQF0zNDUpTzQpQyg9TykvQyhbQ0gzXSk9W0NIXS9bQ0BAXShbT0hdKShbQ0BIXTZbQ0BASF0oQzYoW0NIM10pW0NIM10pW0NIMl1bQ0BASF01W0NIM10pW0NAQEhdKFtDSDNdKVtDQEhdMltDSDJdW0NAQEhdKFtDSDNdKVtDQEhdM1tPSF0=

>  <s_epik_cmdline>  (24) 
J2VwaWtfcHl0aG9uJywgJy1waHQnLCAnMi4wJywgJy1waCcsICc3LjAnLCAnLXRuJywgJzgnLCAnLW1hJywgJzIwMCcsICctaW1hZScsICc8aW5maWxlLm1hZT4nLCAnLW9tYWUnLCAnPG91dGZpbGUubWFlPic=

>  <r_lp_tautomer_probability>  (24) 
1

>  <r_epik_Ionization_Penalty>  (24) 
3.32462e-07

>  <r_epik_Ionization_Penalty_Charging>  (24) 
0

>  <r_epik_Ionization_Penalty_Neutral>  (24) 
3.32462e-07

>  <r_epik_State_Penalty>  (24) 
-0

>  <r_epik_Charging_Adjusted_Penalty>  (24) 
0

>  <i_epik_Tot_Q>  (24) 
0

>  <i_epik_Tot_abs_Q>  (24) 
0

>  <s_lp_Force_Field>  (24) 
OPLS3e

>  <r_lp_Energy>  (24) 
115.028

>  <b_lp_Chiralities_Consistent>  (24) 
1

>  <s_lp_Variant>  (24) 
4:0-4

>  <s_i_glide_gridfile>  (24) 
pfpi4k_grid

>  <i_i_glide_lignum>  (24) 
11

>  <i_i_glide_rotatable_bonds>  (24) 
4

>  <r_i_docking_score>  (24) 
-2.29577

>  <r_i_glide_ligand_efficiency>  (24) 
-0.0655933

>  <r_i_glide_ligand_efficiency_sa>  (24) 
-0.21456

>  <r_i_glide_ligand_efficiency_ln>  (24) 
-0.503971

>  <r_i_glide_gscore>  (24) 
-2.29577

>  <r_i_glide_lipo>  (24) 
-0.400842

>  <r_i_glide_hbond>  (24) 
-0.0816799

>  <r_i_glide_metal>  (24) 
-0

>  <r_i_glide_rewards>  (24) 
-0.123599

>  <r_i_glide_evdw>  (24) 
-29.4547

>  <r_i_glide_ecoul>  (24) 
-2.02246

>  <r_i_glide_erotb>  (24) 
0.0864596

>  <r_i_glide_esite>  (24) 
0

>  <r_i_glide_emodel>  (24) 
-34.1994

>  <r_i_glide_energy>  (24) 
-31.4772

>  <r_i_glide_einternal>  (24) 
3.36052

>  <r_i_glide_intrahb_reward>  (24) 
-0

>  <i_i_glide_confnum>  (24) 
4

>  <i_i_glide_posenum>  (24) 
27

>  <r_i_glide_eff_state_penalty>  (24) 
0

>  <ligand_id>  (24) 
4

>  <original_smiles>  (24) 
C=C(C)C1CC2C(O)(C1)C(=O)C(C)=CC1(O)C(C)C3CC(C)C(O)C4(OC324)C(C)CC2C1C2(C)C

>  <smiles>  (24) 
[H]OC1([H])C([H])(C([H])([H])[H])C([H])([H])C2([H])C([H])(C([H])([H])[H])C3(O[H])C([H])=C(C([H])([H])[H])C(=O)C4(O[H])C([H])([H])C([H])(C(=C([H])[H])C([H])([H])[H])C([H])([H])C4([H])C24OC14C([H])(C([H])([H])[H])C([H])([H])C1([H])C3([H])C1(C([H])([H])[H])C([H])([H])[H]

$$$$
5:0:0
     RDKit          3D

 45 48  0  0  1  0  0  0  0  0999 V2000
    7.9195   -2.3728    0.1893 C   0  0  0  0  0  0  0  0  0  0  0  0
    6.9181   -3.5445    0.0816 C   0  0  2  0  0  0  0  0  0  0  0  0
    5.6211   -3.0334   -0.5521 C   0  0  0  0  0  0  0  0  0  0  0  0
    4.6237   -4.1683   -0.7152 C   0  0  0  0  0  0  0  0  0  0  0  0
    4.2828   -4.7061    0.6746 C   0  0  1  0  0  0  0  0  0  0  0  0
    3.1395   -5.7080    0.6210 C   0  0  0  0  0  0  0  0  0  0  0  0
    2.7181   -6.0953    2.0512 C   0  0  1  0  0  0  0  0  0  0  0  0
    1.6503   -7.2137    2.1118 C   0  0  0  0  0  0  0  0  0  0  0  0
    0.2808   -6.6892    1.6817 C   0  0  0  0  0  0  0  0  0  0  0  0
    0.1552   -6.2659    0.5174 O   0  0  0  0  0  0  0  0  0  0  0  0
   -0.6510   -6.6708    2.5030 O   0  0  0  0  0  0  0  0  0  0  0  0
    3.8721   -6.5143    2.7726 O   0  0  0  0  0  0  0  0  0  0  0  0
    4.9293   -5.5878    2.8609 C   0  0  1  0  0  0  0  0  0  0  0  0
    5.9250   -6.0645    3.6986 O   0  0  0  0  0  0  0  0  0  0  0  0
    6.8944   -6.8955    3.0696 C   0  0  2  0  0  0  0  0  0  0  0  0
    7.2356   -8.0013    4.0772 C   0  0  0  0  0  0  0  0  0  0  0  0
    8.1465   -6.0416    2.8410 C   0  0  0  0  0  0  0  0  0  0  0  0
    8.0698   -5.0774    1.6647 C   0  0  0  0  0  0  0  0  0  0  0  0
    6.7228   -4.3248    1.4281 C   0  0  2  0  0  0  0  0  0  0  0  0
    5.4921   -5.3088    1.4271 C   0  0  2  0  0  0  0  0  0  0  0  0
    5.9276   -6.5385    0.8357 O   0  0  0  0  0  0  0  0  0  0  0  0
    6.3971   -7.5435    1.8927 O   0  0  0  0  0  0  0  0  0  0  0  0
    7.6028   -1.6528    0.9416 H   0  0  0  0  0  0  0  0  0  0  0  0
    7.9729   -1.8340   -0.7490 H   0  0  0  0  0  0  0  0  0  0  0  0
    8.9302   -2.6828    0.4412 H   0  0  0  0  0  0  0  0  0  0  0  0
    7.3203   -4.2449   -0.6553 H   0  0  0  0  0  0  0  0  0  0  0  0
    5.1788   -2.2387    0.0557 H   0  0  0  0  0  0  0  0  0  0  0  0
    5.8125   -2.6011   -1.5369 H   0  0  0  0  0  0  0  0  0  0  0  0
    3.7226   -3.7966   -1.2044 H   0  0  0  0  0  0  0  0  0  0  0  0
    5.0192   -4.9634   -1.3506 H   0  0  0  0  0  0  0  0  0  0  0  0
    3.9211   -3.8465    1.2418 H   0  0  0  0  0  0  0  0  0  0  0  0
    2.3300   -5.2567    0.0426 H   0  0  0  0  0  0  0  0  0  0  0  0
    3.4525   -6.5960    0.0752 H   0  0  0  0  0  0  0  0  0  0  0  0
    2.3149   -5.2210    2.5472 H   0  0  0  0  0  0  0  0  0  0  0  0
    1.9528   -8.0780    1.5224 H   0  0  0  0  0  0  0  0  0  0  0  0
    1.5625   -7.6190    3.1187 H   0  0  0  0  0  0  0  0  0  0  0  0
    4.5491   -4.6758    3.3242 H   0  0  0  0  0  0  0  0  0  0  0  0
    6.3823   -8.6495    4.2639 H   0  0  0  0  0  0  0  0  0  0  0  0
    7.5587   -7.5900    5.0315 H   0  0  0  0  0  0  0  0  0  0  0  0
    8.0486   -8.6255    3.7028 H   0  0  0  0  0  0  0  0  0  0  0  0
    8.3503   -5.4822    3.7492 H   0  0  0  0  0  0  0  0  0  0  0  0
    9.0193   -6.6826    2.6829 H   0  0  0  0  0  0  0  0  0  0  0  0
    8.8968   -4.3681    1.7939 H   0  0  0  0  0  0  0  0  0  0  0  0
    8.3132   -5.6699    0.7709 H   0  0  0  0  0  0  0  0  0  0  0  0
    6.5530   -3.5948    2.2129 H   0  0  0  0  0  0  0  0  0  0  0  0
  1  2  1  0
  1 23  1  0
  1 24  1  0
  1 25  1  0
  2 19  1  0
  2  3  1  0
  2 26  1  6
  3  4  1  0
  3 27  1  0
  3 28  1  0
  4  5  1  0
  4 29  1  0
  4 30  1  0
  5 20  1  0
  5  6  1  0
  5 31  1  1
  6  7  1  0
  6 32  1  0
  6 33  1  0
  7  8  1  0
  7 12  1  0
  7 34  1  1
  8  9  1  0
  8 35  1  0
  8 36  1  0
  9 10  2  0
  9 11  1  0
 12 13  1  0
 13 20  1  0
 13 14  1  0
 13 37  1  1
 14 15  1  0
 15 22  1  0
 15 16  1  1
 15 17  1  0
 16 38  1  0
 16 39  1  0
 16 40  1  0
 17 18  1  0
 17 41  1  0
 17 42  1  0
 18 19  1  0
 18 43  1  0
 18 44  1  0
 19 20  1  0
 19 45  1  1
 20 21  1  6
 21 22  1  0
M  CHG  1  11  -1
M  END
>  <i_m_ct_stereo_status>  (25) 
1

>  <s_m_source_file>  (25) 
/var/tmp/pbs.5076255.sched01/tmpbdos_d33/0hajo06zg.sdf

>  <i_m_source_file_index>  (25) 
12

>  <i_lp_mmshare_version>  (25) 
48012

>  <i_f3d_flags>  (25) 
0

>  <s_epik_input>  (25) 
W0NAQF0xMjNbQ0BIXTRbQ0gyXVtDSDJdW0NAQEhdKFtDSDNdKVtDQEBIXTJbQ0gyXVtDSDJdW0NAXShbQ0gzXSkoT08zKU9bQ0BASF0xT1tDQEBIXShbQ0gyXTQpW0NIMl1DKD1PKVtPSF0=

>  <s_epik_cmdline>  (25) 
J2VwaWtfcHl0aG9uJywgJy1waHQnLCAnMi4wJywgJy1waCcsICc3LjAnLCAnLXRuJywgJzgnLCAnLW1hJywgJzIwMCcsICctaW1hZScsICc8aW5maWxlLm1hZT4nLCAnLW9tYWUnLCAnPG91dGZpbGUubWFlPic=

>  <r_epik_Ionization_Penalty>  (25) 
0.00164207

>  <r_epik_Ionization_Penalty_Charging>  (25) 
0.00164207

>  <r_epik_Ionization_Penalty_Neutral>  (25) 
3.36789e-14

>  <r_epik_State_Penalty>  (25) 
0.00110684

>  <r_epik_Charging_Adjusted_Penalty>  (25) 
0.00274892

>  <i_epik_Tot_Q>  (25) 
-1

>  <i_epik_Tot_abs_Q>  (25) 
1

>  <s_epik_Chemistry_Notes>  (25) 
This compound contains an acetal/aminal-like group ( X-CH(R)-Y where X, Y are N, S, or O) that may be acid/base labile, releasing an aldehyde.

>  <s_lp_Force_Field>  (25) 
OPLS3e

>  <r_lp_Energy>  (25) 
27.0137

>  <b_lp_Chiralities_Consistent>  (25) 
1

>  <s_lp_Variant>  (25) 
5:0-1

>  <s_i_glide_gridfile>  (25) 
pfpi4k_grid

>  <i_i_glide_lignum>  (25) 
12

>  <i_i_glide_rotatable_bonds>  (25) 
2

>  <r_i_docking_score>  (25) 
-4.22905

>  <r_i_glide_ligand_efficiency>  (25) 
-0.192229

>  <r_i_glide_ligand_efficiency_sa>  (25) 
-0.538634

>  <r_i_glide_ligand_efficiency_ln>  (25) 
-1.03373

>  <r_i_glide_gscore>  (25) 
-4.22905

>  <r_i_glide_lipo>  (25) 
-0.584775

>  <r_i_glide_hbond>  (25) 
-0.426013

>  <r_i_glide_metal>  (25) 
-0

>  <r_i_glide_rewards>  (25) 
-1.2967

>  <r_i_glide_evdw>  (25) 
-19.6813

>  <r_i_glide_ecoul>  (25) 
-6.85862

>  <r_i_glide_erotb>  (25) 
0.191296

>  <r_i_glide_esite>  (25) 
-0.1

>  <r_i_glide_emodel>  (25) 
-33.2557

>  <r_i_glide_energy>  (25) 
-26.5399

>  <r_i_glide_einternal>  (25) 
6.39741

>  <r_i_glide_intrahb_reward>  (25) 
-0

>  <i_i_glide_confnum>  (25) 
4

>  <i_i_glide_posenum>  (25) 
6

>  <r_i_glide_eff_state_penalty>  (25) 
0

>  <ligand_id>  (25) 
5

>  <original_smiles>  (25) 
CC1CCC2CC(CC(=O)O)OC3OC4(C)CCC1C23OO4

>  <smiles>  (25) 
[H]C([H])([H])C12OOC34C([H])(OC([H])(C([H])([H])C(=O)[O-])C([H])([H])C3([H])C([H])([H])C([H])([H])C([H])(C([H])([H])[H])C4([H])C([H])([H])C1([H])[H])O2

$$$$
5:0:1
     RDKit          3D

 45 48  0  0  1  0  0  0  0  0999 V2000
    4.9911   -1.0749   -0.2315 C   0  0  0  0  0  0  0  0  0  0  0  0
    4.5067   -1.9970    0.9067 C   0  0  2  0  0  0  0  0  0  0  0  0
    3.4529   -2.9669    0.3618 C   0  0  0  0  0  0  0  0  0  0  0  0
    2.9701   -3.9111    1.4604 C   0  0  0  0  0  0  0  0  0  0  0  0
    2.3057   -3.0751    2.5531 C   0  0  1  0  0  0  0  0  0  0  0  0
    1.6065   -3.9301    3.6147 C   0  0  0  0  0  0  0  0  0  0  0  0
    0.8171   -3.0130    4.5575 C   0  0  1  0  0  0  0  0  0  0  0  0
    0.1851   -3.8073    5.7180 C   0  0  0  0  0  0  0  0  0  0  0  0
   -0.7288   -2.9593    6.6060 C   0  0  0  0  0  0  0  0  0  0  0  0
   -0.5870   -3.0586    7.8478 O   0  0  0  0  0  0  0  0  0  0  0  0
   -1.6004   -2.2558    6.0455 O   0  0  0  0  0  0  0  0  0  0  0  0
    1.6968   -2.0149    5.0743 O   0  0  0  0  0  0  0  0  0  0  0  0
    2.3207   -1.1947    4.1237 C   0  0  1  0  0  0  0  0  0  0  0  0
    3.0183   -0.1813    4.7613 O   0  0  0  0  0  0  0  0  0  0  0  0
    4.3433   -0.5148    5.1298 C   0  0  2  0  0  0  0  0  0  0  0  0
    4.5913    0.1501    6.4885 C   0  0  0  0  0  0  0  0  0  0  0  0
    5.2612    0.1346    4.0899 C   0  0  0  0  0  0  0  0  0  0  0  0
    5.3618   -0.6091    2.7663 C   0  0  0  0  0  0  0  0  0  0  0  0
    4.0523   -1.1917    2.1723 C   0  0  2  0  0  0  0  0  0  0  0  0
    3.2673   -2.0574    3.2262 C   0  0  2  0  0  0  0  0  0  0  0  0
    4.2415   -2.7197    4.0376 O   0  0  0  0  0  0  0  0  0  0  0  0
    4.5507   -1.9205    5.3092 O   0  0  0  0  0  0  0  0  0  0  0  0
    4.2287   -0.3437   -0.4939 H   0  0  0  0  0  0  0  0  0  0  0  0
    5.2103   -1.6367   -1.1398 H   0  0  0  0  0  0  0  0  0  0  0  0
    5.8946   -0.5210    0.0256 H   0  0  0  0  0  0  0  0  0  0  0  0
    5.3438   -2.6318    1.1970 H   0  0  0  0  0  0  0  0  0  0  0  0
    2.6113   -2.4178   -0.0582 H   0  0  0  0  0  0  0  0  0  0  0  0
    3.8728   -3.5630   -0.4507 H   0  0  0  0  0  0  0  0  0  0  0  0
    2.2534   -4.6188    1.0399 H   0  0  0  0  0  0  0  0  0  0  0  0
    3.7922   -4.5004    1.8704 H   0  0  0  0  0  0  0  0  0  0  0  0
    1.5199   -2.5039    2.0504 H   0  0  0  0  0  0  0  0  0  0  0  0
    0.9269   -4.6418    3.1399 H   0  0  0  0  0  0  0  0  0  0  0  0
    2.3388   -4.5171    4.1726 H   0  0  0  0  0  0  0  0  0  0  0  0
    0.0306   -2.5200    3.9807 H   0  0  0  0  0  0  0  0  0  0  0  0
   -0.4052   -4.6382    5.3318 H   0  0  0  0  0  0  0  0  0  0  0  0
    0.9695   -4.2539    6.3272 H   0  0  0  0  0  0  0  0  0  0  0  0
    1.5406   -0.7036    3.5365 H   0  0  0  0  0  0  0  0  0  0  0  0
    3.9629   -0.2829    7.2668 H   0  0  0  0  0  0  0  0  0  0  0  0
    4.3829    1.2206    6.4506 H   0  0  0  0  0  0  0  0  0  0  0  0
    5.6305    0.0314    6.7989 H   0  0  0  0  0  0  0  0  0  0  0  0
    4.9036    1.1466    3.9053 H   0  0  0  0  0  0  0  0  0  0  0  0
    6.2721    0.2391    4.4878 H   0  0  0  0  0  0  0  0  0  0  0  0
    5.8141    0.0888    2.0693 H   0  0  0  0  0  0  0  0  0  0  0  0
    6.0884   -1.4119    2.9069 H   0  0  0  0  0  0  0  0  0  0  0  0
    3.3925   -0.3842    1.8515 H   0  0  0  0  0  0  0  0  0  0  0  0
  1  2  1  0
  1 23  1  0
  1 24  1  0
  1 25  1  0
  2 19  1  0
  2  3  1  0
  2 26  1  1
  3  4  1  0
  3 27  1  0
  3 28  1  0
  4  5  1  0
  4 29  1  0
  4 30  1  0
  5 20  1  0
  5  6  1  0
  5 31  1  6
  6  7  1  0
  6 32  1  0
  6 33  1  0
  7  8  1  0
  7 12  1  0
  7 34  1  6
  8  9  1  0
  8 35  1  0
  8 36  1  0
  9 10  2  0
  9 11  1  0
 12 13  1  0
 13 20  1  0
 13 14  1  0
 13 37  1  6
 14 15  1  0
 15 22  1  0
 15 16  1  1
 15 17  1  0
 16 38  1  0
 16 39  1  0
 16 40  1  0
 17 18  1  0
 17 41  1  0
 17 42  1  0
 18 19  1  0
 18 43  1  0
 18 44  1  0
 19 20  1  0
 19 45  1  6
 20 21  1  1
 21 22  1  0
M  CHG  1  11  -1
M  END
>  <i_m_ct_stereo_status>  (26) 
1

>  <s_m_source_file>  (26) 
/var/tmp/pbs.5076255.sched01/tmpbdos_d33/0hajo06zg.sdf

>  <i_m_source_file_index>  (26) 
12

>  <i_lp_mmshare_version>  (26) 
48012

>  <i_f3d_flags>  (26) 
0

>  <s_epik_input>  (26) 
W0NAQF0xMjNbQ0BIXTRbQ0gyXVtDSDJdW0NAQEhdKFtDSDNdKVtDQEBIXTJbQ0gyXVtDSDJdW0NAXShbQ0gzXSkoT08zKU9bQ0BASF0xT1tDQEBIXShbQ0gyXTQpW0NIMl1DKD1PKVtPSF0=

>  <s_epik_cmdline>  (26) 
J2VwaWtfcHl0aG9uJywgJy1waHQnLCAnMi4wJywgJy1waCcsICc3LjAnLCAnLXRuJywgJzgnLCAnLW1hJywgJzIwMCcsICctaW1hZScsICc8aW5maWxlLm1hZT4nLCAnLW9tYWUnLCAnPG91dGZpbGUubWFlPic=

>  <r_epik_Ionization_Penalty>  (26) 
0.00164207

>  <r_epik_Ionization_Penalty_Charging>  (26) 
0.00164207

>  <r_epik_Ionization_Penalty_Neutral>  (26) 
3.36789e-14

>  <r_epik_State_Penalty>  (26) 
0.00110684

>  <r_epik_Charging_Adjusted_Penalty>  (26) 
0.00274892

>  <i_epik_Tot_Q>  (26) 
-1

>  <i_epik_Tot_abs_Q>  (26) 
1

>  <s_epik_Chemistry_Notes>  (26) 
This compound contains an acetal/aminal-like group ( X-CH(R)-Y where X, Y are N, S, or O) that may be acid/base labile, releasing an aldehyde.

>  <s_lp_Force_Field>  (26) 
OPLS3e

>  <r_lp_Energy>  (26) 
27.0137

>  <b_lp_Chiralities_Consistent>  (26) 
1

>  <s_lp_Variant>  (26) 
5:0-1

>  <s_i_glide_gridfile>  (26) 
pfpi4k_grid

>  <i_i_glide_lignum>  (26) 
12

>  <i_i_glide_rotatable_bonds>  (26) 
2

>  <r_i_docking_score>  (26) 
-2.98521

>  <r_i_glide_ligand_efficiency>  (26) 
-0.135692

>  <r_i_glide_ligand_efficiency_sa>  (26) 
-0.380213

>  <r_i_glide_ligand_efficiency_ln>  (26) 
-0.729695

>  <r_i_glide_gscore>  (26) 
-2.98521

>  <r_i_glide_lipo>  (26) 
-0.235866

>  <r_i_glide_hbond>  (26) 
-0.117848

>  <r_i_glide_metal>  (26) 
-0

>  <r_i_glide_rewards>  (26) 
-1.30069

>  <r_i_glide_evdw>  (26) 
-16.5916

>  <r_i_glide_ecoul>  (26) 
-4.32323

>  <r_i_glide_erotb>  (26) 
0.191296

>  <r_i_glide_esite>  (26) 
-0.0440407

>  <r_i_glide_emodel>  (26) 
-26.7396

>  <r_i_glide_energy>  (26) 
-20.9148

>  <r_i_glide_einternal>  (26) 
2.42133

>  <r_i_glide_intrahb_reward>  (26) 
-0

>  <i_i_glide_confnum>  (26) 
6

>  <i_i_glide_posenum>  (26) 
32

>  <r_i_glide_eff_state_penalty>  (26) 
0

>  <ligand_id>  (26) 
5

>  <original_smiles>  (26) 
CC1CCC2CC(CC(=O)O)OC3OC4(C)CCC1C23OO4

>  <smiles>  (26) 
[H]C([H])([H])C12OOC34C([H])(OC([H])(C([H])([H])C(=O)[O-])C([H])([H])C3([H])C([H])([H])C([H])([H])C([H])(C([H])([H])[H])C4([H])C([H])([H])C1([H])[H])O2

$$$$
5:0:2
     RDKit          3D

 45 48  0  0  1  0  0  0  0  0999 V2000
    5.0283   -1.2149   -1.6693 C   0  0  0  0  0  0  0  0  0  0  0  0
    5.0016   -2.3100   -0.5840 C   0  0  2  0  0  0  0  0  0  0  0  0
    4.6800   -3.6528   -1.2427 C   0  0  0  0  0  0  0  0  0  0  0  0
    4.6563   -4.7724   -0.2057 C   0  0  0  0  0  0  0  0  0  0  0  0
    3.5467   -4.4656    0.7996 C   0  0  1  0  0  0  0  0  0  0  0  0
    3.3018   -5.6262    1.7701 C   0  0  0  0  0  0  0  0  0  0  0  0
    2.0672   -5.3165    2.6192 C   0  0  1  0  0  0  0  0  0  0  0  0
    1.8350   -6.3943    3.7059 C   0  0  0  0  0  0  0  0  0  0  0  0
    0.4590   -6.2647    4.3658 C   0  0  0  0  0  0  0  0  0  0  0  0
   -0.5409   -6.2611    3.6084 O   0  0  0  0  0  0  0  0  0  0  0  0
    0.4218   -6.2245    5.6156 O   0  0  0  0  0  0  0  0  0  0  0  0
    2.2180   -4.0351    3.2303 O   0  0  0  0  0  0  0  0  0  0  0  0
    2.4265   -2.9459    2.3626 C   0  0  1  0  0  0  0  0  0  0  0  0
    2.4225   -1.7641    3.0822 O   0  0  0  0  0  0  0  0  0  0  0  0
    3.6852   -1.3762    3.5859 C   0  0  2  0  0  0  0  0  0  0  0  0
    3.4069   -0.7628    4.9660 C   0  0  0  0  0  0  0  0  0  0  0  0
    4.2181   -0.2778    2.6569 C   0  0  0  0  0  0  0  0  0  0  0  0
    4.8220   -0.7807    1.3543 C   0  0  0  0  0  0  0  0  0  0  0  0
    4.0767   -1.9307    0.6190 C   0  0  2  0  0  0  0  0  0  0  0  0
    3.7665   -3.1395    1.5805 C   0  0  2  0  0  0  0  0  0  0  0  0
    4.8592   -3.2422    2.4957 O   0  0  0  0  0  0  0  0  0  0  0  0
    4.5813   -2.4730    3.7933 O   0  0  0  0  0  0  0  0  0  0  0  0
    4.0293   -0.9759   -2.0245 H   0  0  0  0  0  0  0  0  0  0  0  0
    5.5836   -1.5434   -2.5458 H   0  0  0  0  0  0  0  0  0  0  0  0
    5.4707   -0.2817   -1.3220 H   0  0  0  0  0  0  0  0  0  0  0  0
    6.0152   -2.4259   -0.2039 H   0  0  0  0  0  0  0  0  0  0  0  0
    3.7208   -3.6099   -1.7609 H   0  0  0  0  0  0  0  0  0  0  0  0
    5.4292   -3.9005   -1.9991 H   0  0  0  0  0  0  0  0  0  0  0  0
    4.4638   -5.7254   -0.7086 H   0  0  0  0  0  0  0  0  0  0  0  0
    5.6212   -4.8733    0.2991 H   0  0  0  0  0  0  0  0  0  0  0  0
    2.6369   -4.3642    0.2026 H   0  0  0  0  0  0  0  0  0  0  0  0
    3.1431   -6.5556    1.2188 H   0  0  0  0  0  0  0  0  0  0  0  0
    4.1694   -5.7764    2.4107 H   0  0  0  0  0  0  0  0  0  0  0  0
    1.2028   -5.2786    1.9572 H   0  0  0  0  0  0  0  0  0  0  0  0
    1.8860   -7.3938    3.2762 H   0  0  0  0  0  0  0  0  0  0  0  0
    2.6248   -6.3550    4.4599 H   0  0  0  0  0  0  0  0  0  0  0  0
    1.5787   -2.8700    1.6830 H   0  0  0  0  0  0  0  0  0  0  0  0
    3.0203   -1.5055    5.6642 H   0  0  0  0  0  0  0  0  0  0  0  0
    2.6736    0.0445    4.9054 H   0  0  0  0  0  0  0  0  0  0  0  0
    4.3165   -0.3437    5.4001 H   0  0  0  0  0  0  0  0  0  0  0  0
    3.4076    0.4123    2.4225 H   0  0  0  0  0  0  0  0  0  0  0  0
    4.9800    0.3108    3.1729 H   0  0  0  0  0  0  0  0  0  0  0  0
    4.9167    0.0934    0.7049 H   0  0  0  0  0  0  0  0  0  0  0  0
    5.8424   -1.0944    1.5907 H   0  0  0  0  0  0  0  0  0  0  0  0
    3.1288   -1.5674    0.2273 H   0  0  0  0  0  0  0  0  0  0  0  0
  1  2  1  0
  1 23  1  0
  1 24  1  0
  1 25  1  0
  2 19  1  0
  2  3  1  0
  2 26  1  1
  3  4  1  0
  3 27  1  0
  3 28  1  0
  4  5  1  0
  4 29  1  0
  4 30  1  0
  5 20  1  0
  5  6  1  0
  5 31  1  6
  6  7  1  0
  6 32  1  0
  6 33  1  0
  7  8  1  0
  7 12  1  0
  7 34  1  6
  8  9  1  0
  8 35  1  0
  8 36  1  0
  9 10  2  0
  9 11  1  0
 12 13  1  0
 13 20  1  0
 13 14  1  0
 13 37  1  6
 14 15  1  0
 15 22  1  0
 15 16  1  1
 15 17  1  0
 16 38  1  0
 16 39  1  0
 16 40  1  0
 17 18  1  0
 17 41  1  0
 17 42  1  0
 18 19  1  0
 18 43  1  0
 18 44  1  0
 19 20  1  0
 19 45  1  6
 20 21  1  1
 21 22  1  0
M  CHG  1  11  -1
M  END
>  <i_m_ct_stereo_status>  (27) 
1

>  <s_m_source_file>  (27) 
/var/tmp/pbs.5076255.sched01/tmpbdos_d33/0hajo06zg.sdf

>  <i_m_source_file_index>  (27) 
12

>  <i_lp_mmshare_version>  (27) 
48012

>  <i_f3d_flags>  (27) 
0

>  <s_epik_input>  (27) 
W0NAQF0xMjNbQ0BIXTRbQ0gyXVtDSDJdW0NAQEhdKFtDSDNdKVtDQEBIXTJbQ0gyXVtDSDJdW0NAXShbQ0gzXSkoT08zKU9bQ0BASF0xT1tDQEBIXShbQ0gyXTQpW0NIMl1DKD1PKVtPSF0=

>  <s_epik_cmdline>  (27) 
J2VwaWtfcHl0aG9uJywgJy1waHQnLCAnMi4wJywgJy1waCcsICc3LjAnLCAnLXRuJywgJzgnLCAnLW1hJywgJzIwMCcsICctaW1hZScsICc8aW5maWxlLm1hZT4nLCAnLW9tYWUnLCAnPG91dGZpbGUubWFlPic=

>  <r_epik_Ionization_Penalty>  (27) 
0.00164207

>  <r_epik_Ionization_Penalty_Charging>  (27) 
0.00164207

>  <r_epik_Ionization_Penalty_Neutral>  (27) 
3.36789e-14

>  <r_epik_State_Penalty>  (27) 
0.00110684

>  <r_epik_Charging_Adjusted_Penalty>  (27) 
0.00274892

>  <i_epik_Tot_Q>  (27) 
-1

>  <i_epik_Tot_abs_Q>  (27) 
1

>  <s_epik_Chemistry_Notes>  (27) 
This compound contains an acetal/aminal-like group ( X-CH(R)-Y where X, Y are N, S, or O) that may be acid/base labile, releasing an aldehyde.

>  <s_lp_Force_Field>  (27) 
OPLS3e

>  <r_lp_Energy>  (27) 
27.0137

>  <b_lp_Chiralities_Consistent>  (27) 
1

>  <s_lp_Variant>  (27) 
5:0-1

>  <s_i_glide_gridfile>  (27) 
pfpi4k_grid

>  <i_i_glide_lignum>  (27) 
12

>  <i_i_glide_rotatable_bonds>  (27) 
2

>  <r_i_docking_score>  (27) 
-2.73819

>  <r_i_glide_ligand_efficiency>  (27) 
-0.124463

>  <r_i_glide_ligand_efficiency_sa>  (27) 
-0.348751

>  <r_i_glide_ligand_efficiency_ln>  (27) 
-0.669313

>  <r_i_glide_gscore>  (27) 
-2.73819

>  <r_i_glide_lipo>  (27) 
-0.184333

>  <r_i_glide_hbond>  (27) 
-0.129704

>  <r_i_glide_metal>  (27) 
-0

>  <r_i_glide_rewards>  (27) 
-1.28674

>  <r_i_glide_evdw>  (27) 
-18.8865

>  <r_i_glide_ecoul>  (27) 
-2.39264

>  <r_i_glide_erotb>  (27) 
0.191296

>  <r_i_glide_esite>  (27) 
-0.0254819

>  <r_i_glide_emodel>  (27) 
-26.1101

>  <r_i_glide_energy>  (27) 
-21.2792

>  <r_i_glide_einternal>  (27) 
3.00914

>  <r_i_glide_intrahb_reward>  (27) 
-0

>  <i_i_glide_confnum>  (27) 
6

>  <i_i_glide_posenum>  (27) 
4

>  <r_i_glide_eff_state_penalty>  (27) 
0

>  <ligand_id>  (27) 
5

>  <original_smiles>  (27) 
CC1CCC2CC(CC(=O)O)OC3OC4(C)CCC1C23OO4

>  <smiles>  (27) 
[H]C([H])([H])C12OOC34C([H])(OC([H])(C([H])([H])C(=O)[O-])C([H])([H])C3([H])C([H])([H])C([H])([H])C([H])(C([H])([H])[H])C4([H])C([H])([H])C1([H])[H])O2

$$$$
6:0:0
     RDKit          3D

 42 44  0  0  1  0  0  0  0  0999 V2000
   -2.7306    2.8832    8.7537 C   0  0  0  0  0  0  0  0  0  0  0  0
   -2.7309    2.7779    7.2280 C   0  0  0  0  0  0  0  0  0  0  0  0
   -2.2542    1.4837    6.8580 O   0  0  0  0  0  0  0  0  0  0  0  0
   -1.2858    1.3270    5.8799 C   0  0  0  0  0  0  0  0  0  0  0  0
   -0.5555    2.3924    5.3027 C   0  0  0  0  0  0  0  0  0  0  0  0
    0.4316    2.1651    4.3337 C   0  0  0  0  0  0  0  0  0  0  0  0
    1.1050    3.2118    3.8250 N   0  0  0  0  0  0  0  0  0  0  0  0
    2.0149    2.9591    2.8913 C   0  0  0  0  0  0  0  0  0  0  0  0
    2.3565    1.7558    2.4351 N   0  0  0  0  0  0  0  0  0  0  0  0
    1.7136    0.6801    2.9326 C   0  0  0  0  0  0  0  0  0  0  0  0
    2.0489   -0.6057    2.4808 N   0  0  0  0  0  0  0  0  0  0  0  0
    3.0249   -1.0891    1.5863 C   0  0  0  0  0  0  0  0  0  0  0  0
    3.9473   -0.2907    0.8653 C   0  0  0  0  0  0  0  0  0  0  0  0
    4.8785   -0.8899   -0.0055 C   0  0  0  0  0  0  0  0  0  0  0  0
    4.9094   -2.2861   -0.1684 C   0  0  0  0  0  0  0  0  0  0  0  0
    4.0019   -3.0932    0.5426 C   0  0  0  0  0  0  0  0  0  0  0  0
    4.0276   -4.5995    0.3775 C   0  0  0  0  0  0  0  0  0  0  0  0
    3.0717   -2.4917    1.4145 C   0  0  0  0  0  0  0  0  0  0  0  0
    2.2128   -3.2714    2.1148 F   0  0  0  0  0  0  0  0  0  0  0  0
    0.7053    0.8385    3.9199 C   0  0  0  0  0  0  0  0  0  0  0  0
   -0.0096   -0.2397    4.4919 C   0  0  0  0  0  0  0  0  0  0  0  0
   -1.0030   -0.0002    5.4755 C   0  0  0  0  0  0  0  0  0  0  0  0
   -1.7364   -1.0030    6.0770 O   0  0  0  0  0  0  0  0  0  0  0  0
   -1.3344   -2.3545    5.8958 C   0  0  0  0  0  0  0  0  0  0  0  0
    1.4732   -1.3377    2.8644 H   0  0  0  0  0  0  0  0  0  0  0  0
   -3.0646    3.8753    9.0557 H   0  0  0  0  0  0  0  0  0  0  0  0
   -1.7214    2.7450    9.1458 H   0  0  0  0  0  0  0  0  0  0  0  0
   -3.3822    2.1475    9.2224 H   0  0  0  0  0  0  0  0  0  0  0  0
   -3.7427    2.8941    6.8362 H   0  0  0  0  0  0  0  0  0  0  0  0
   -2.1634    3.6272    6.8658 H   0  0  0  0  0  0  0  0  0  0  0  0
   -0.6898    3.4231    5.5717 H   0  0  0  0  0  0  0  0  0  0  0  0
    2.5409    3.8196    2.4929 H   0  0  0  0  0  0  0  0  0  0  0  0
    3.9623    0.7824    0.9362 H   0  0  0  0  0  0  0  0  0  0  0  0
    5.5629   -0.2688   -0.5573 H   0  0  0  0  0  0  0  0  0  0  0  0
    5.6255   -2.7385   -0.8377 H   0  0  0  0  0  0  0  0  0  0  0  0
    4.3540   -5.0791    1.3004 H   0  0  0  0  0  0  0  0  0  0  0  0
    4.7101   -4.9042   -0.4155 H   0  0  0  0  0  0  0  0  0  0  0  0
    3.0370   -4.9784    0.1243 H   0  0  0  0  0  0  0  0  0  0  0  0
    0.2158   -1.2441    4.1714 H   0  0  0  0  0  0  0  0  0  0  0  0
   -2.0189   -3.0062    6.4403 H   0  0  0  0  0  0  0  0  0  0  0  0
   -0.3299   -2.5249    6.2829 H   0  0  0  0  0  0  0  0  0  0  0  0
   -1.3701   -2.6526    4.8517 H   0  0  0  0  0  0  0  0  0  0  0  0
  1  2  1  0
  1 26  1  0
  1 27  1  0
  1 28  1  0
  2  3  1  0
  2 29  1  0
  2 30  1  0
  3  4  1  0
  4 22  2  0
  4  5  1  0
  5 31  1  0
  5  6  2  0
  6 20  1  0
  6  7  1  0
  7  8  2  0
  8 32  1  0
  8  9  1  0
  9 10  2  0
 10 11  1  0
 10 20  1  0
 11 12  1  0
 11 25  1  0
 12 18  1  0
 12 13  2  0
 13 14  1  0
 13 33  1  0
 14 15  2  0
 14 34  1  0
 15 16  1  0
 15 35  1  0
 16 17  1  0
 16 18  2  0
 17 36  1  0
 17 37  1  0
 17 38  1  0
 18 19  1  0
 20 21  2  0
 21 39  1  0
 21 22  1  0
 22 23  1  0
 23 24  1  0
 24 40  1  0
 24 41  1  0
 24 42  1  0
M  END
>  <i_m_ct_stereo_status>  (28) 
1

>  <s_m_source_file>  (28) 
/var/tmp/pbs.5076255.sched01/tmpbdos_d33/0hajo06zg.sdf

>  <i_m_source_file_index>  (28) 
13

>  <i_lp_mmshare_version>  (28) 
48012

>  <i_f3d_flags>  (28) 
0

>  <s_epik_input>  (28) 
W0NIM11bQ0gyXU9jKFtjSF0xKWMoT1tDSDNdKVtjSF1jKGMxMiljKFxbbkhdW2NIXW4yKT1OXGMzW2NIXVtjSF1bY0hdYyhbQ0gzXSljM0Y=

>  <s_epik_cmdline>  (28) 
J2VwaWtfcHl0aG9uJywgJy1waHQnLCAnMi4wJywgJy1waCcsICc3LjAnLCAnLXRuJywgJzgnLCAnLW1hJywgJzIwMCcsICctaW1hZScsICc8aW5maWxlLm1hZT4nLCAnLW9tYWUnLCAnPG91dGZpbGUubWFlPic=

>  <r_lp_tautomer_probability>  (28) 
1

>  <r_epik_Ionization_Penalty>  (28) 
0.00189499

>  <r_epik_Ionization_Penalty_Charging>  (28) 
0

>  <r_epik_Ionization_Penalty_Neutral>  (28) 
0.00189499

>  <r_epik_State_Penalty>  (28) 
-0

>  <r_epik_Charging_Adjusted_Penalty>  (28) 
0

>  <i_epik_Tot_Q>  (28) 
0

>  <i_epik_Tot_abs_Q>  (28) 
0

>  <s_lp_Force_Field>  (28) 
OPLS3e

>  <r_lp_Energy>  (28) 
36.1105

>  <b_lp_Chiralities_Consistent>  (28) 
1

>  <s_lp_Variant>  (28) 
6:0-1

>  <s_i_glide_gridfile>  (28) 
pfpi4k_grid

>  <i_i_glide_lignum>  (28) 
13

>  <i_i_glide_rotatable_bonds>  (28) 
5

>  <r_i_docking_score>  (28) 
-2.8361

>  <r_i_glide_ligand_efficiency>  (28) 
-0.118171

>  <r_i_glide_ligand_efficiency_sa>  (28) 
-0.340864

>  <r_i_glide_ligand_efficiency_ln>  (28) 
-0.67881

>  <r_i_glide_gscore>  (28) 
-2.8361

>  <r_i_glide_lipo>  (28) 
-0.277391

>  <r_i_glide_hbond>  (28) 
-0.116734

>  <r_i_glide_metal>  (28) 
-0

>  <r_i_glide_rewards>  (28) 
-1.17714

>  <r_i_glide_evdw>  (28) 
-25.2754

>  <r_i_glide_ecoul>  (28) 
-2.93118

>  <r_i_glide_erotb>  (28) 
0.525393

>  <r_i_glide_esite>  (28) 
-0.0867854

>  <r_i_glide_emodel>  (28) 
-32.3584

>  <r_i_glide_energy>  (28) 
-28.2066

>  <r_i_glide_einternal>  (28) 
1.63085

>  <r_i_glide_intrahb_reward>  (28) 
-0

>  <i_i_glide_confnum>  (28) 
2

>  <i_i_glide_posenum>  (28) 
12

>  <r_i_glide_eff_state_penalty>  (28) 
0

>  <ligand_id>  (28) 
6

>  <original_smiles>  (28) 
CCOc1cc2nc[nH]c(=Nc3cccc(C)c3F)c2cc1OC

>  <smiles>  (28) 
[H]c1nc(N([H])c2c([H])c([H])c([H])c(C([H])([H])[H])c2F)c2c([H])c(OC([H])([H])[H])c(OC([H])([H])C([H])([H])[H])c([H])c2n1

$$$$
6:0:1
     RDKit          3D

 42 44  0  0  1  0  0  0  0  0999 V2000
   -0.5090    1.9231    6.4301 C   0  0  0  0  0  0  0  0  0  0  0  0
   -1.7425    1.1551    5.9075 C   0  0  0  0  0  0  0  0  0  0  0  0
   -1.5995   -0.2525    6.0557 O   0  0  0  0  0  0  0  0  0  0  0  0
   -0.7104   -0.9309    5.2403 C   0  0  0  0  0  0  0  0  0  0  0  0
    0.0422   -0.3111    4.2154 C   0  0  0  0  0  0  0  0  0  0  0  0
    0.9725   -1.0358    3.4492 C   0  0  0  0  0  0  0  0  0  0  0  0
    1.6814   -0.4035    2.4941 N   0  0  0  0  0  0  0  0  0  0  0  0
    2.5064   -1.1378    1.7546 C   0  0  0  0  0  0  0  0  0  0  0  0
    2.7157   -2.4509    1.8744 N   0  0  0  0  0  0  0  0  0  0  0  0
    2.0426   -3.1104    2.8409 C   0  0  0  0  0  0  0  0  0  0  0  0
    2.2291   -4.4935    2.9967 N   0  0  0  0  0  0  0  0  0  0  0  0
    2.9083   -5.4635    2.2308 C   0  0  0  0  0  0  0  0  0  0  0  0
    3.9585   -5.1889    1.3246 C   0  0  0  0  0  0  0  0  0  0  0  0
    4.6097   -6.2404    0.6528 C   0  0  0  0  0  0  0  0  0  0  0  0
    4.2223   -7.5716    0.8796 C   0  0  0  0  0  0  0  0  0  0  0  0
    3.1688   -7.8599    1.7649 C   0  0  0  0  0  0  0  0  0  0  0  0
    2.7388   -9.2962    1.9953 C   0  0  0  0  0  0  0  0  0  0  0  0
    2.5224   -6.8059    2.4348 C   0  0  0  0  0  0  0  0  0  0  0  0
    1.5157   -7.0727    3.3020 F   0  0  0  0  0  0  0  0  0  0  0  0
    1.1245   -2.4270    3.6841 C   0  0  0  0  0  0  0  0  0  0  0  0
    0.3582   -3.0565    4.6931 C   0  0  0  0  0  0  0  0  0  0  0  0
   -0.5566   -2.3130    5.4791 C   0  0  0  0  0  0  0  0  0  0  0  0
   -1.3355   -2.8631    6.4772 O   0  0  0  0  0  0  0  0  0  0  0  0
   -1.0833   -4.2041    6.8865 C   0  0  0  0  0  0  0  0  0  0  0  0
    1.6864   -4.8972    3.7441 H   0  0  0  0  0  0  0  0  0  0  0  0
   -0.6578    2.9973    6.3227 H   0  0  0  0  0  0  0  0  0  0  0  0
    0.4135    1.6745    5.8990 H   0  0  0  0  0  0  0  0  0  0  0  0
   -0.3378    1.7110    7.4865 H   0  0  0  0  0  0  0  0  0  0  0  0
   -2.6067    1.4500    6.5002 H   0  0  0  0  0  0  0  0  0  0  0  0
   -1.9986    1.4056    4.8756 H   0  0  0  0  0  0  0  0  0  0  0  0
   -0.0595    0.7413    3.9781 H   0  0  0  0  0  0  0  0  0  0  0  0
    3.0703   -0.6079    0.9971 H   0  0  0  0  0  0  0  0  0  0  0  0
    4.3008   -4.1852    1.1446 H   0  0  0  0  0  0  0  0  0  0  0  0
    5.4174   -6.0300   -0.0277 H   0  0  0  0  0  0  0  0  0  0  0  0
    4.7268   -8.3739    0.3668 H   0  0  0  0  0  0  0  0  0  0  0  0
    2.9705   -9.6124    3.0116 H   0  0  0  0  0  0  0  0  0  0  0  0
    3.2401   -9.9818    1.3151 H   0  0  0  0  0  0  0  0  0  0  0  0
    1.6659   -9.4089    1.8412 H   0  0  0  0  0  0  0  0  0  0  0  0
    0.4605   -4.1170    4.8344 H   0  0  0  0  0  0  0  0  0  0  0  0
   -1.7747   -4.4601    7.6860 H   0  0  0  0  0  0  0  0  0  0  0  0
   -0.0680   -4.3119    7.2690 H   0  0  0  0  0  0  0  0  0  0  0  0
   -1.2446   -4.9229    6.0791 H   0  0  0  0  0  0  0  0  0  0  0  0
  1  2  1  0
  1 26  1  0
  1 27  1  0
  1 28  1  0
  2  3  1  0
  2 29  1  0
  2 30  1  0
  3  4  1  0
  4 22  2  0
  4  5  1  0
  5 31  1  0
  5  6  2  0
  6 20  1  0
  6  7  1  0
  7  8  2  0
  8 32  1  0
  8  9  1  0
  9 10  2  0
 10 11  1  0
 10 20  1  0
 11 12  1  0
 11 25  1  0
 12 18  1  0
 12 13  2  0
 13 14  1  0
 13 33  1  0
 14 15  2  0
 14 34  1  0
 15 16  1  0
 15 35  1  0
 16 17  1  0
 16 18  2  0
 17 36  1  0
 17 37  1  0
 17 38  1  0
 18 19  1  0
 20 21  2  0
 21 39  1  0
 21 22  1  0
 22 23  1  0
 23 24  1  0
 24 40  1  0
 24 41  1  0
 24 42  1  0
M  END
>  <i_m_ct_stereo_status>  (29) 
1

>  <s_m_source_file>  (29) 
/var/tmp/pbs.5076255.sched01/tmpbdos_d33/0hajo06zg.sdf

>  <i_m_source_file_index>  (29) 
13

>  <i_lp_mmshare_version>  (29) 
48012

>  <i_f3d_flags>  (29) 
0

>  <s_epik_input>  (29) 
W0NIM11bQ0gyXU9jKFtjSF0xKWMoT1tDSDNdKVtjSF1jKGMxMiljKFxbbkhdW2NIXW4yKT1OXGMzW2NIXVtjSF1bY0hdYyhbQ0gzXSljM0Y=

>  <s_epik_cmdline>  (29) 
J2VwaWtfcHl0aG9uJywgJy1waHQnLCAnMi4wJywgJy1waCcsICc3LjAnLCAnLXRuJywgJzgnLCAnLW1hJywgJzIwMCcsICctaW1hZScsICc8aW5maWxlLm1hZT4nLCAnLW9tYWUnLCAnPG91dGZpbGUubWFlPic=

>  <r_lp_tautomer_probability>  (29) 
1

>  <r_epik_Ionization_Penalty>  (29) 
0.00189499

>  <r_epik_Ionization_Penalty_Charging>  (29) 
0

>  <r_epik_Ionization_Penalty_Neutral>  (29) 
0.00189499

>  <r_epik_State_Penalty>  (29) 
-0

>  <r_epik_Charging_Adjusted_Penalty>  (29) 
0

>  <i_epik_Tot_Q>  (29) 
0

>  <i_epik_Tot_abs_Q>  (29) 
0

>  <s_lp_Force_Field>  (29) 
OPLS3e

>  <r_lp_Energy>  (29) 
36.1105

>  <b_lp_Chiralities_Consistent>  (29) 
1

>  <s_lp_Variant>  (29) 
6:0-1

>  <s_i_glide_gridfile>  (29) 
pfpi4k_grid

>  <i_i_glide_lignum>  (29) 
13

>  <i_i_glide_rotatable_bonds>  (29) 
5

>  <r_i_docking_score>  (29) 
-2.72658

>  <r_i_glide_ligand_efficiency>  (29) 
-0.113607

>  <r_i_glide_ligand_efficiency_sa>  (29) 
-0.327701

>  <r_i_glide_ligand_efficiency_ln>  (29) 
-0.652595

>  <r_i_glide_gscore>  (29) 
-2.72658

>  <r_i_glide_lipo>  (29) 
-0.310022

>  <r_i_glide_hbond>  (29) 
-0.133182

>  <r_i_glide_metal>  (29) 
-0

>  <r_i_glide_rewards>  (29) 
-1.17714

>  <r_i_glide_evdw>  (29) 
-22.2396

>  <r_i_glide_ecoul>  (29) 
-2.99176

>  <r_i_glide_erotb>  (29) 
0.525393

>  <r_i_glide_esite>  (29) 
-0.0708836

>  <r_i_glide_emodel>  (29) 
-29.4121

>  <r_i_glide_energy>  (29) 
-25.2314

>  <r_i_glide_einternal>  (29) 
0.915422

>  <r_i_glide_intrahb_reward>  (29) 
-0

>  <i_i_glide_confnum>  (29) 
2

>  <i_i_glide_posenum>  (29) 
18

>  <r_i_glide_eff_state_penalty>  (29) 
0

>  <ligand_id>  (29) 
6

>  <original_smiles>  (29) 
CCOc1cc2nc[nH]c(=Nc3cccc(C)c3F)c2cc1OC

>  <smiles>  (29) 
[H]c1nc(N([H])c2c([H])c([H])c([H])c(C([H])([H])[H])c2F)c2c([H])c(OC([H])([H])[H])c(OC([H])([H])C([H])([H])[H])c([H])c2n1

$$$$
6:0:2
     RDKit          3D

 42 44  0  0  1  0  0  0  0  0999 V2000
   -1.7613    2.2477    2.5798 C   0  0  0  0  0  0  0  0  0  0  0  0
   -1.6232    1.6869    3.9957 C   0  0  0  0  0  0  0  0  0  0  0  0
   -0.2438    1.6123    4.3385 O   0  0  0  0  0  0  0  0  0  0  0  0
    0.4641    0.5912    3.7440 C   0  0  0  0  0  0  0  0  0  0  0  0
    1.4641    0.9242    2.8116 C   0  0  0  0  0  0  0  0  0  0  0  0
    2.2401   -0.0691    2.1838 C   0  0  0  0  0  0  0  0  0  0  0  0
    3.1910    0.2677    1.2923 N   0  0  0  0  0  0  0  0  0  0  0  0
    3.8814   -0.7169    0.7291 C   0  0  0  0  0  0  0  0  0  0  0  0
    3.7560   -2.0184    0.9764 N   0  0  0  0  0  0  0  0  0  0  0  0
    2.8273   -2.3967    1.8775 C   0  0  0  0  0  0  0  0  0  0  0  0
    2.6584   -3.7602    2.1684 N   0  0  0  0  0  0  0  0  0  0  0  0
    3.2970   -4.9286    1.7022 C   0  0  0  0  0  0  0  0  0  0  0  0
    4.5913   -4.9704    1.1231 C   0  0  0  0  0  0  0  0  0  0  0  0
    5.1623   -6.2059    0.7490 C   0  0  0  0  0  0  0  0  0  0  0  0
    4.4563   -7.4067    0.9469 C   0  0  0  0  0  0  0  0  0  0  0  0
    3.1693   -7.3809    1.5192 C   0  0  0  0  0  0  0  0  0  0  0  0
    2.4024   -8.6725    1.7246 C   0  0  0  0  0  0  0  0  0  0  0  0
    2.6020   -6.1440    1.8918 C   0  0  0  0  0  0  0  0  0  0  0  0
    1.3642   -6.1108    2.4459 F   0  0  0  0  0  0  0  0  0  0  0  0
    2.0127   -1.4304    2.5264 C   0  0  0  0  0  0  0  0  0  0  0  0
    1.0202   -1.7644    3.4785 C   0  0  0  0  0  0  0  0  0  0  0  0
    0.2417   -0.7560    4.1013 C   0  0  0  0  0  0  0  0  0  0  0  0
   -0.7310   -0.9997    5.0488 O   0  0  0  0  0  0  0  0  0  0  0  0
   -0.7873   -2.2835    5.6459 C   0  0  0  0  0  0  0  0  0  0  0  0
    1.8773   -3.9540    2.7727 H   0  0  0  0  0  0  0  0  0  0  0  0
   -2.8065    2.3713    2.2984 H   0  0  0  0  0  0  0  0  0  0  0  0
   -1.2958    1.5800    1.8513 H   0  0  0  0  0  0  0  0  0  0  0  0
   -1.2681    3.2164    2.5077 H   0  0  0  0  0  0  0  0  0  0  0  0
   -2.1164    2.3519    4.7062 H   0  0  0  0  0  0  0  0  0  0  0  0
   -2.1378    0.7306    4.0857 H   0  0  0  0  0  0  0  0  0  0  0  0
    1.6163    1.9681    2.5698 H   0  0  0  0  0  0  0  0  0  0  0  0
    4.6342   -0.4209    0.0100 H   0  0  0  0  0  0  0  0  0  0  0  0
    5.1702   -4.0752    0.9841 H   0  0  0  0  0  0  0  0  0  0  0  0
    6.1512   -6.2375    0.3210 H   0  0  0  0  0  0  0  0  0  0  0  0
    4.8980   -8.3488    0.6567 H   0  0  0  0  0  0  0  0  0  0  0  0
    2.2846   -8.8920    2.7856 H   0  0  0  0  0  0  0  0  0  0  0  0
    2.9070   -9.5235    1.2657 H   0  0  0  0  0  0  0  0  0  0  0  0
    1.4088   -8.6036    1.2835 H   0  0  0  0  0  0  0  0  0  0  0  0
    0.8672   -2.7974    3.7255 H   0  0  0  0  0  0  0  0  0  0  0  0
   -1.6144   -2.2957    6.3526 H   0  0  0  0  0  0  0  0  0  0  0  0
    0.1318   -2.5063    6.1917 H   0  0  0  0  0  0  0  0  0  0  0  0
   -0.9823   -3.0564    4.9077 H   0  0  0  0  0  0  0  0  0  0  0  0
  1  2  1  0
  1 26  1  0
  1 27  1  0
  1 28  1  0
  2  3  1  0
  2 29  1  0
  2 30  1  0
  3  4  1  0
  4 22  2  0
  4  5  1  0
  5 31  1  0
  5  6  2  0
  6 20  1  0
  6  7  1  0
  7  8  2  0
  8 32  1  0
  8  9  1  0
  9 10  2  0
 10 11  1  0
 10 20  1  0
 11 12  1  0
 11 25  1  0
 12 18  1  0
 12 13  2  0
 13 14  1  0
 13 33  1  0
 14 15  2  0
 14 34  1  0
 15 16  1  0
 15 35  1  0
 16 17  1  0
 16 18  2  0
 17 36  1  0
 17 37  1  0
 17 38  1  0
 18 19  1  0
 20 21  2  0
 21 39  1  0
 21 22  1  0
 22 23  1  0
 23 24  1  0
 24 40  1  0
 24 41  1  0
 24 42  1  0
M  END
>  <i_m_ct_stereo_status>  (30) 
1

>  <s_m_source_file>  (30) 
/var/tmp/pbs.5076255.sched01/tmpbdos_d33/0hajo06zg.sdf

>  <i_m_source_file_index>  (30) 
13

>  <i_lp_mmshare_version>  (30) 
48012

>  <i_f3d_flags>  (30) 
0

>  <s_epik_input>  (30) 
W0NIM11bQ0gyXU9jKFtjSF0xKWMoT1tDSDNdKVtjSF1jKGMxMiljKFxbbkhdW2NIXW4yKT1OXGMzW2NIXVtjSF1bY0hdYyhbQ0gzXSljM0Y=

>  <s_epik_cmdline>  (30) 
J2VwaWtfcHl0aG9uJywgJy1waHQnLCAnMi4wJywgJy1waCcsICc3LjAnLCAnLXRuJywgJzgnLCAnLW1hJywgJzIwMCcsICctaW1hZScsICc8aW5maWxlLm1hZT4nLCAnLW9tYWUnLCAnPG91dGZpbGUubWFlPic=

>  <r_lp_tautomer_probability>  (30) 
1

>  <r_epik_Ionization_Penalty>  (30) 
0.00189499

>  <r_epik_Ionization_Penalty_Charging>  (30) 
0

>  <r_epik_Ionization_Penalty_Neutral>  (30) 
0.00189499

>  <r_epik_State_Penalty>  (30) 
-0

>  <r_epik_Charging_Adjusted_Penalty>  (30) 
0

>  <i_epik_Tot_Q>  (30) 
0

>  <i_epik_Tot_abs_Q>  (30) 
0

>  <s_lp_Force_Field>  (30) 
OPLS3e

>  <r_lp_Energy>  (30) 
36.1105

>  <b_lp_Chiralities_Consistent>  (30) 
1

>  <s_lp_Variant>  (30) 
6:0-1

>  <s_i_glide_gridfile>  (30) 
pfpi4k_grid

>  <i_i_glide_lignum>  (30) 
13

>  <i_i_glide_rotatable_bonds>  (30) 
5

>  <r_i_docking_score>  (30) 
-2.56467

>  <r_i_glide_ligand_efficiency>  (30) 
-0.106861

>  <r_i_glide_ligand_efficiency_sa>  (30) 
-0.308242

>  <r_i_glide_ligand_efficiency_ln>  (30) 
-0.613844

>  <r_i_glide_gscore>  (30) 
-2.56467

>  <r_i_glide_lipo>  (30) 
-0.337617

>  <r_i_glide_hbond>  (30) 
0

>  <r_i_glide_metal>  (30) 
-0

>  <r_i_glide_rewards>  (30) 
-1.17714

>  <r_i_glide_evdw>  (30) 
-25.2946

>  <r_i_glide_ecoul>  (30) 
-1.74661

>  <r_i_glide_erotb>  (30) 
0.525393

>  <r_i_glide_esite>  (30) 
-0.0485893

>  <r_i_glide_emodel>  (30) 
-27.7653

>  <r_i_glide_energy>  (30) 
-27.0412

>  <r_i_glide_einternal>  (30) 
7.33336

>  <r_i_glide_intrahb_reward>  (30) 
-0

>  <i_i_glide_confnum>  (30) 
2

>  <i_i_glide_posenum>  (30) 
25

>  <r_i_glide_eff_state_penalty>  (30) 
0

>  <ligand_id>  (30) 
6

>  <original_smiles>  (30) 
CCOc1cc2nc[nH]c(=Nc3cccc(C)c3F)c2cc1OC

>  <smiles>  (30) 
[H]c1nc(N([H])c2c([H])c([H])c([H])c(C([H])([H])[H])c2F)c2c([H])c(OC([H])([H])[H])c(OC([H])([H])C([H])([H])[H])c([H])c2n1

$$$$
7:0:0
     RDKit          3D

 68 72  0  0  1  0  0  0  0  0999 V2000
    6.9218   -5.6253    3.0292 C   0  0  0  0  0  0  0  0  0  0  0  0
    5.8018   -4.6229    2.6566 C   0  0  2  0  0  0  0  0  0  0  0  0
    4.4709   -5.4077    2.4642 C   0  0  0  0  0  0  0  0  0  0  0  0
    3.1430   -4.6330    2.2040 C   0  0  0  0  0  0  0  0  0  0  0  0
    3.2992   -3.0958    2.1393 C   0  0  1  0  0  0  0  0  0  0  0  0
    4.0877   -2.5345    0.8985 C   0  0  2  0  0  0  0  0  0  0  0  0
    4.0674   -3.1796   -0.5298 C   0  0  2  0  0  0  0  0  0  0  0  0
    4.9109   -4.4764   -0.6006 C   0  0  0  0  0  0  0  0  0  0  0  0
    6.2563   -4.4619    0.1556 C   0  0  0  0  0  0  0  0  0  0  0  0
    6.2342   -3.6733    1.4794 C   0  0  1  0  0  0  0  0  0  0  0  0
    5.5483   -2.2451    1.3011 C   0  0  2  0  0  0  0  0  0  0  0  0
    5.4742   -1.3645    2.6237 C   0  0  1  0  0  0  0  0  0  0  0  0
    6.6091   -0.6614    2.8250 O   0  0  0  0  0  0  0  0  0  0  0  0
    4.3373   -0.3392    2.9182 C   0  0  1  0  0  0  0  0  0  0  0  0
    4.0403    0.5418    1.8523 O   0  0  0  0  0  0  0  0  0  0  0  0
    3.0616   -0.9474    3.5684 C   0  0  1  0  0  0  0  0  0  0  0  0
    2.2100    0.1333    3.9236 O   0  0  0  0  0  0  0  0  0  0  0  0
    2.2923   -2.0634    2.7845 C   0  0  0  0  0  0  0  0  0  0  0  0
    1.4153   -1.4159    1.7296 C   0  0  0  0  0  0  0  0  0  0  0  0
    1.3545   -2.7731    3.7919 C   0  0  0  0  0  0  0  0  0  0  0  0
    6.2694   -1.3915    0.1734 C   0  0  1  0  0  0  0  0  0  0  0  0
    7.6891   -1.4464    0.3059 O   0  0  0  0  0  0  0  0  0  0  0  0
    5.9241   -1.6163   -1.3358 C   0  0  1  0  0  0  0  0  0  0  0  0
    6.8778   -2.3793   -2.0229 O   0  0  0  0  0  0  0  0  0  0  0  0
    4.5122   -2.0899   -1.5374 C   0  0  1  0  0  0  0  0  0  0  0  0
    3.8763   -2.3982   -2.9325 C   0  0  1  0  0  0  0  0  0  0  0  0
    3.6079   -1.1704   -3.8044 C   0  0  0  0  0  0  0  0  0  0  0  0
    4.5947   -3.3414   -3.7149 O   0  0  0  0  0  0  0  0  0  0  0  0
    2.6231   -3.0616   -2.4341 C   0  0  0  0  0  0  0  0  0  0  0  0
    2.7509   -3.4633   -1.1704 C   0  0  0  0  0  0  0  0  0  0  0  0
    1.8199   -4.1912   -0.5565 F   0  0  0  0  0  0  0  0  0  0  0  0
    7.1148   -6.3652    2.2573 H   0  0  0  0  0  0  0  0  0  0  0  0
    6.6690   -6.1552    3.9488 H   0  0  0  0  0  0  0  0  0  0  0  0
    7.8766   -5.1307    3.2131 H   0  0  0  0  0  0  0  0  0  0  0  0
    5.7122   -4.0410    3.5666 H   0  0  0  0  0  0  0  0  0  0  0  0
    4.6089   -6.1727    1.7032 H   0  0  0  0  0  0  0  0  0  0  0  0
    4.3168   -5.9865    3.3751 H   0  0  0  0  0  0  0  0  0  0  0  0
    2.6639   -5.0371    1.3230 H   0  0  0  0  0  0  0  0  0  0  0  0
    2.4722   -4.9164    3.0102 H   0  0  0  0  0  0  0  0  0  0  0  0
    3.9180   -3.0984    3.0120 H   0  0  0  0  0  0  0  0  0  0  0  0
    3.6874   -1.5542    0.7272 H   0  0  0  0  0  0  0  0  0  0  0  0
    4.3006   -5.2971   -0.2338 H   0  0  0  0  0  0  0  0  0  0  0  0
    5.0903   -4.7475   -1.6378 H   0  0  0  0  0  0  0  0  0  0  0  0
    6.5656   -5.4952    0.3066 H   0  0  0  0  0  0  0  0  0  0  0  0
    7.0574   -4.0809   -0.4590 H   0  0  0  0  0  0  0  0  0  0  0  0
    7.2886   -3.4689    1.6832 H   0  0  0  0  0  0  0  0  0  0  0  0
    5.5738   -2.0033    3.4980 H   0  0  0  0  0  0  0  0  0  0  0  0
    6.7538    0.0270    2.0984 H   0  0  0  0  0  0  0  0  0  0  0  0
    4.7136    0.2948    3.7197 H   0  0  0  0  0  0  0  0  0  0  0  0
    4.2020    1.4474    2.1409 H   0  0  0  0  0  0  0  0  0  0  0  0
    3.3898   -1.4016    4.5102 H   0  0  0  0  0  0  0  0  0  0  0  0
    1.9309    0.5327    3.1104 H   0  0  0  0  0  0  0  0  0  0  0  0
    0.5371   -0.9295    2.1617 H   0  0  0  0  0  0  0  0  0  0  0  0
    1.0934   -2.2244    1.1031 H   0  0  0  0  0  0  0  0  0  0  0  0
    1.8927   -0.6568    1.0991 H   0  0  0  0  0  0  0  0  0  0  0  0
    0.6855   -2.0642    4.2817 H   0  0  0  0  0  0  0  0  0  0  0  0
    1.9230   -3.2768    4.5758 H   0  0  0  0  0  0  0  0  0  0  0  0
    0.7188   -3.5138    3.3051 H   0  0  0  0  0  0  0  0  0  0  0  0
    5.9974   -0.3442    0.3308 H   0  0  0  0  0  0  0  0  0  0  0  0
    7.9557   -0.9714    1.0777 H   0  0  0  0  0  0  0  0  0  0  0  0
    5.9371   -0.6536   -1.8367 H   0  0  0  0  0  0  0  0  0  0  0  0
    6.6931   -3.2967   -1.8816 H   0  0  0  0  0  0  0  0  0  0  0  0
    3.9408   -1.1942   -1.2595 H   0  0  0  0  0  0  0  0  0  0  0  0
    3.0497   -0.4019   -3.2721 H   0  0  0  0  0  0  0  0  0  0  0  0
    3.0306   -1.4544   -4.6830 H   0  0  0  0  0  0  0  0  0  0  0  0
    4.5511   -0.7473   -4.1445 H   0  0  0  0  0  0  0  0  0  0  0  0
    4.4597   -4.1953   -3.3192 H   0  0  0  0  0  0  0  0  0  0  0  0
    1.7442   -3.1947   -3.0459 H   0  0  0  0  0  0  0  0  0  0  0  0
  1  2  1  0
  1 32  1  0
  1 33  1  0
  1 34  1  0
  2 10  1  0
  2  3  1  0
  2 35  1  1
  3  4  1  0
  3 36  1  0
  3 37  1  0
  4  5  1  0
  4 38  1  0
  4 39  1  0
  5 18  1  0
  5  6  1  0
  5 40  1  1
  6 11  1  0
  6  7  1  0
  6 41  1  6
  7 25  1  0
  7 30  1  0
  7  8  1  1
  8  9  1  0
  8 42  1  0
  8 43  1  0
  9 10  1  0
  9 44  1  0
  9 45  1  0
 10 11  1  0
 10 46  1  1
 11 12  1  1
 11 21  1  0
 12 13  1  0
 12 14  1  0
 12 47  1  1
 13 48  1  0
 14 15  1  0
 14 16  1  0
 14 49  1  1
 15 50  1  0
 16 17  1  0
 16 18  1  0
 16 51  1  1
 17 52  1  0
 18 19  1  0
 18 20  1  0
 19 53  1  0
 19 54  1  0
 19 55  1  0
 20 56  1  0
 20 57  1  0
 20 58  1  0
 21 22  1  0
 21 23  1  0
 21 59  1  1
 22 60  1  0
 23 24  1  0
 23 25  1  0
 23 61  1  6
 24 62  1  0
 25 26  1  0
 25 63  1  1
 26 27  1  0
 26 28  1  6
 26 29  1  0
 27 64  1  0
 27 65  1  0
 27 66  1  0
 28 67  1  0
 29 30  2  0
 29 68  1  0
 30 31  1  0
M  END
>  <i_m_ct_stereo_status>  (31) 
1

>  <s_m_source_file>  (31) 
/var/tmp/pbs.5076255.sched01/tmpbdos_d33/0hajo06zg.sdf

>  <i_m_source_file_index>  (31) 
14

>  <i_lp_mmshare_version>  (31) 
48012

>  <i_f3d_flags>  (31) 
0

>  <s_epik_input>  (31) 
W09IXVtDQEhdMVtDQEBIXShbT0hdKVtDQEBIXShbT0hdKUMoW0NIM10pKFtDSDNdKVtDQEhdMltDSDJdW0NIMl1bQ0BASF0oW0NIM10pW0NAQEhdKFtDSDJdW0NIMl0zKVtDQF0xKFtDQEhdMltDQF0zNDUpW0NAQEhdKFtPSF0pW0NAQEhdKFtPSF0pW0NASF00W0NAQF0oW0NIM10pKFtPSF0pW0NIXT1DNUY=

>  <s_epik_cmdline>  (31) 
J2VwaWtfcHl0aG9uJywgJy1waHQnLCAnMi4wJywgJy1waCcsICc3LjAnLCAnLXRuJywgJzgnLCAnLW1hJywgJzIwMCcsICctaW1hZScsICc8aW5maWxlLm1hZT4nLCAnLW9tYWUnLCAnPG91dGZpbGUubWFlPic=

>  <r_lp_tautomer_probability>  (31) 
1

>  <r_epik_Ionization_Penalty>  (31) 
7.42965e-07

>  <r_epik_Ionization_Penalty_Charging>  (31) 
0

>  <r_epik_Ionization_Penalty_Neutral>  (31) 
7.42965e-07

>  <r_epik_State_Penalty>  (31) 
-0

>  <r_epik_Charging_Adjusted_Penalty>  (31) 
0

>  <i_epik_Tot_Q>  (31) 
0

>  <i_epik_Tot_abs_Q>  (31) 
0

>  <s_lp_Force_Field>  (31) 
OPLS3e

>  <r_lp_Energy>  (31) 
103.215

>  <b_lp_Chiralities_Consistent>  (31) 
1

>  <s_lp_Variant>  (31) 
7:0-1

>  <s_i_glide_gridfile>  (31) 
pfpi4k_grid

>  <i_i_glide_lignum>  (31) 
14

>  <i_i_glide_rotatable_bonds>  (31) 
6

>  <r_i_docking_score>  (31) 
-4.03663

>  <r_i_glide_ligand_efficiency>  (31) 
-0.130214

>  <r_i_glide_ligand_efficiency_sa>  (31) 
-0.409051

>  <r_i_glide_ligand_efficiency_ln>  (31) 
-0.910384

>  <r_i_glide_gscore>  (31) 
-4.03663

>  <r_i_glide_lipo>  (31) 
-0.850161

>  <r_i_glide_hbond>  (31) 
0

>  <r_i_glide_metal>  (31) 
-0

>  <r_i_glide_rewards>  (31) 
-0.405372

>  <r_i_glide_evdw>  (31) 
-13.4356

>  <r_i_glide_ecoul>  (31) 
-13.6461

>  <r_i_glide_erotb>  (31) 
0

>  <r_i_glide_esite>  (31) 
-0.0624032

>  <r_i_glide_emodel>  (31) 
-25.9636

>  <r_i_glide_energy>  (31) 
-27.0817

>  <r_i_glide_einternal>  (31) 
2.02994

>  <r_i_glide_intrahb_reward>  (31) 
-0

>  <i_i_glide_confnum>  (31) 
1

>  <i_i_glide_posenum>  (31) 
18

>  <r_i_glide_eff_state_penalty>  (31) 
0

>  <ligand_id>  (31) 
7

>  <original_smiles>  (31) 
CC1CCC2C3C45CCC1C3(C(O)C(O)C(O)C2(C)C)C(O)C(O)C4C(C)(O)C=C5F

>  <smiles>  (31) 
[H]OC1([H])C([H])(O[H])C(C([H])([H])[H])(C([H])([H])[H])C2([H])C([H])([H])C([H])([H])C([H])(C([H])([H])[H])C3([H])C([H])([H])C([H])([H])C45C(F)=C([H])C(O[H])(C([H])([H])[H])C4([H])C([H])(O[H])C([H])(O[H])C3(C1([H])O[H])C25[H]

$$$$
7:0:1
     RDKit          3D

 68 72  0  0  1  0  0  0  0  0999 V2000
    6.9017   -5.6185    3.0356 C   0  0  0  0  0  0  0  0  0  0  0  0
    5.7839   -4.6184    2.6551 C   0  0  2  0  0  0  0  0  0  0  0  0
    4.4356   -5.3975    2.5264 C   0  0  0  0  0  0  0  0  0  0  0  0
    3.1099   -4.6159    2.2725 C   0  0  0  0  0  0  0  0  0  0  0  0
    3.2686   -3.0823    2.1420 C   0  0  1  0  0  0  0  0  0  0  0  0
    4.0571   -2.5651    0.8749 C   0  0  2  0  0  0  0  0  0  0  0  0
    3.9810   -3.2604   -0.5396 C   0  0  2  0  0  0  0  0  0  0  0  0
    4.8055   -4.5720   -0.5825 C   0  0  0  0  0  0  0  0  0  0  0  0
    6.1698   -4.5529    0.1434 C   0  0  0  0  0  0  0  0  0  0  0  0
    6.2051   -3.7090    1.4413 C   0  0  1  0  0  0  0  0  0  0  0  0
    5.5192   -2.2815    1.2214 C   0  0  2  0  0  0  0  0  0  0  0  0
    5.4871   -1.3653    2.5151 C   0  0  1  0  0  0  0  0  0  0  0  0
    6.6294   -0.6829    2.7312 O   0  0  0  0  0  0  0  0  0  0  0  0
    4.3688   -0.3315    2.8152 C   0  0  1  0  0  0  0  0  0  0  0  0
    4.0539    0.5364    1.7338 O   0  0  0  0  0  0  0  0  0  0  0  0
    3.1091   -0.8844    3.5120 C   0  0  1  0  0  0  0  0  0  0  0  0
    2.2666    0.2139    3.8553 O   0  0  0  0  0  0  0  0  0  0  0  0
    2.3010   -2.0198    2.7906 C   0  0  0  0  0  0  0  0  0  0  0  0
    1.3898   -1.3863    1.7423 C   0  0  0  0  0  0  0  0  0  0  0  0
    1.3793   -2.6856    3.8413 C   0  0  0  0  0  0  0  0  0  0  0  0
    6.2298   -1.4764    0.0354 C   0  0  1  0  0  0  0  0  0  0  0  0
    7.6418   -1.4855    0.1307 O   0  0  0  0  0  0  0  0  0  0  0  0
    5.8406   -1.7377   -1.4571 C   0  0  1  0  0  0  0  0  0  0  0  0
    6.7497   -2.5677   -2.1532 O   0  0  0  0  0  0  0  0  0  0  0  0
    4.4040   -2.2105   -1.5947 C   0  0  1  0  0  0  0  0  0  0  0  0
    3.7353   -2.5589   -2.9551 C   0  0  1  0  0  0  0  0  0  0  0  0
    3.4579   -1.3573   -3.8669 C   0  0  0  0  0  0  0  0  0  0  0  0
    4.4187   -3.5367   -3.7240 O   0  0  0  0  0  0  0  0  0  0  0  0
    2.4764   -3.1640   -2.4063 C   0  0  0  0  0  0  0  0  0  0  0  0
    2.6387   -3.5422   -1.1182 C   0  0  0  0  0  0  0  0  0  0  0  0
    1.7508   -4.3281   -0.5141 F   0  0  0  0  0  0  0  0  0  0  0  0
    7.0650   -6.3897    2.2845 H   0  0  0  0  0  0  0  0  0  0  0  0
    6.6670   -6.1157    3.9778 H   0  0  0  0  0  0  0  0  0  0  0  0
    7.8634   -5.1271    3.1759 H   0  0  0  0  0  0  0  0  0  0  0  0
    5.7197   -4.0070    3.5493 H   0  0  0  0  0  0  0  0  0  0  0  0
    4.5483   -6.1900    1.7867 H   0  0  0  0  0  0  0  0  0  0  0  0
    4.3011   -5.9431    3.4610 H   0  0  0  0  0  0  0  0  0  0  0  0
    2.6038   -5.0479    1.4185 H   0  0  0  0  0  0  0  0  0  0  0  0
    2.4567   -4.8673    3.1048 H   0  0  0  0  0  0  0  0  0  0  0  0
    3.9141   -3.0664    3.0016 H   0  0  0  0  0  0  0  0  0  0  0  0
    3.6445   -1.5947    0.6747 H   0  0  0  0  0  0  0  0  0  0  0  0
    4.1995   -5.3745   -0.1698 H   0  0  0  0  0  0  0  0  0  0  0  0
    4.9679   -4.8854   -1.6114 H   0  0  0  0  0  0  0  0  0  0  0  0
    6.4779   -5.5845    0.3214 H   0  0  0  0  0  0  0  0  0  0  0  0
    6.9615   -4.1997   -0.5102 H   0  0  0  0  0  0  0  0  0  0  0  0
    7.2499   -3.5027    1.6252 H   0  0  0  0  0  0  0  0  0  0  0  0
    5.5790   -1.9718    3.3981 H   0  0  0  0  0  0  0  0  0  0  0  0
    6.8021   -0.0752    1.9916 H   0  0  0  0  0  0  0  0  0  0  0  0
    4.7733    0.3408    3.5704 H   0  0  0  0  0  0  0  0  0  0  0  0
    4.2045    1.4275    2.0006 H   0  0  0  0  0  0  0  0  0  0  0  0
    3.4495   -1.3078    4.4527 H   0  0  0  0  0  0  0  0  0  0  0  0
    1.9373    0.5671    3.0351 H   0  0  0  0  0  0  0  0  0  0  0  0
    0.5390   -0.8584    2.1892 H   0  0  0  0  0  0  0  0  0  0  0  0
    1.0618   -2.2070    1.1546 H   0  0  0  0  0  0  0  0  0  0  0  0
    1.8643   -0.6538    1.0766 H   0  0  0  0  0  0  0  0  0  0  0  0
    0.7283   -1.9550    4.3242 H   0  0  0  0  0  0  0  0  0  0  0  0
    1.9619   -3.1691    4.6253 H   0  0  0  0  0  0  0  0  0  0  0  0
    0.7241   -3.4373    3.3943 H   0  0  0  0  0  0  0  0  0  0  0  0
    5.9529   -0.4389    0.1775 H   0  0  0  0  0  0  0  0  0  0  0  0
    7.9653   -2.3637   -0.0198 H   0  0  0  0  0  0  0  0  0  0  0  0
    5.8582   -0.7823   -1.9812 H   0  0  0  0  0  0  0  0  0  0  0  0
    6.4477   -3.4675   -2.0782 H   0  0  0  0  0  0  0  0  0  0  0  0
    3.8607   -1.3016   -1.3288 H   0  0  0  0  0  0  0  0  0  0  0  0
    2.9179   -0.5719   -3.3427 H   0  0  0  0  0  0  0  0  0  0  0  0
    2.8576   -1.6711   -4.7154 H   0  0  0  0  0  0  0  0  0  0  0  0
    4.3969   -0.9575   -4.2416 H   0  0  0  0  0  0  0  0  0  0  0  0
    4.1256   -4.3925   -3.4149 H   0  0  0  0  0  0  0  0  0  0  0  0
    1.6049   -3.3481   -2.9917 H   0  0  0  0  0  0  0  0  0  0  0  0
  1  2  1  0
  1 32  1  0
  1 33  1  0
  1 34  1  0
  2 10  1  0
  2  3  1  0
  2 35  1  1
  3  4  1  0
  3 36  1  0
  3 37  1  0
  4  5  1  0
  4 38  1  0
  4 39  1  0
  5 18  1  0
  5  6  1  0
  5 40  1  1
  6 11  1  0
  6  7  1  0
  6 41  1  6
  7 25  1  0
  7 30  1  0
  7  8  1  1
  8  9  1  0
  8 42  1  0
  8 43  1  0
  9 10  1  0
  9 44  1  0
  9 45  1  0
 10 11  1  0
 10 46  1  1
 11 12  1  1
 11 21  1  0
 12 13  1  0
 12 14  1  0
 12 47  1  1
 13 48  1  0
 14 15  1  0
 14 16  1  0
 14 49  1  1
 15 50  1  0
 16 17  1  0
 16 18  1  0
 16 51  1  1
 17 52  1  0
 18 19  1  0
 18 20  1  0
 19 53  1  0
 19 54  1  0
 19 55  1  0
 20 56  1  0
 20 57  1  0
 20 58  1  0
 21 22  1  0
 21 23  1  0
 21 59  1  1
 22 60  1  0
 23 24  1  0
 23 25  1  0
 23 61  1  6
 24 62  1  0
 25 26  1  0
 25 63  1  1
 26 27  1  0
 26 28  1  6
 26 29  1  0
 27 64  1  0
 27 65  1  0
 27 66  1  0
 28 67  1  0
 29 30  2  0
 29 68  1  0
 30 31  1  0
M  END
>  <i_m_ct_stereo_status>  (32) 
1

>  <s_m_source_file>  (32) 
/var/tmp/pbs.5076255.sched01/tmpbdos_d33/0hajo06zg.sdf

>  <i_m_source_file_index>  (32) 
14

>  <i_lp_mmshare_version>  (32) 
48012

>  <i_f3d_flags>  (32) 
0

>  <s_epik_input>  (32) 
W09IXVtDQEhdMVtDQEBIXShbT0hdKVtDQEBIXShbT0hdKUMoW0NIM10pKFtDSDNdKVtDQEhdMltDSDJdW0NIMl1bQ0BASF0oW0NIM10pW0NAQEhdKFtDSDJdW0NIMl0zKVtDQF0xKFtDQEhdMltDQF0zNDUpW0NAQEhdKFtPSF0pW0NAQEhdKFtPSF0pW0NASF00W0NAQF0oW0NIM10pKFtPSF0pW0NIXT1DNUY=

>  <s_epik_cmdline>  (32) 
J2VwaWtfcHl0aG9uJywgJy1waHQnLCAnMi4wJywgJy1waCcsICc3LjAnLCAnLXRuJywgJzgnLCAnLW1hJywgJzIwMCcsICctaW1hZScsICc8aW5maWxlLm1hZT4nLCAnLW9tYWUnLCAnPG91dGZpbGUubWFlPic=

>  <r_lp_tautomer_probability>  (32) 
1

>  <r_epik_Ionization_Penalty>  (32) 
7.42965e-07

>  <r_epik_Ionization_Penalty_Charging>  (32) 
0

>  <r_epik_Ionization_Penalty_Neutral>  (32) 
7.42965e-07

>  <r_epik_State_Penalty>  (32) 
-0

>  <r_epik_Charging_Adjusted_Penalty>  (32) 
0

>  <i_epik_Tot_Q>  (32) 
0

>  <i_epik_Tot_abs_Q>  (32) 
0

>  <s_lp_Force_Field>  (32) 
OPLS3e

>  <r_lp_Energy>  (32) 
103.215

>  <b_lp_Chiralities_Consistent>  (32) 
1

>  <s_lp_Variant>  (32) 
7:0-1

>  <s_i_glide_gridfile>  (32) 
pfpi4k_grid

>  <i_i_glide_lignum>  (32) 
14

>  <i_i_glide_rotatable_bonds>  (32) 
6

>  <r_i_docking_score>  (32) 
-3.67407

>  <r_i_glide_ligand_efficiency>  (32) 
-0.118518

>  <r_i_glide_ligand_efficiency_sa>  (32) 
-0.372312

>  <r_i_glide_ligand_efficiency_ln>  (32) 
-0.828616

>  <r_i_glide_gscore>  (32) 
-3.67407

>  <r_i_glide_lipo>  (32) 
-0.793137

>  <r_i_glide_hbond>  (32) 
0

>  <r_i_glide_metal>  (32) 
-0

>  <r_i_glide_rewards>  (32) 
-0.405372

>  <r_i_glide_evdw>  (32) 
-11.6203

>  <r_i_glide_ecoul>  (32) 
-12.2271

>  <r_i_glide_erotb>  (32) 
0

>  <r_i_glide_esite>  (32) 
-0.0604805

>  <r_i_glide_emodel>  (32) 
-22.4933

>  <r_i_glide_energy>  (32) 
-23.8474

>  <r_i_glide_einternal>  (32) 
2.14178

>  <r_i_glide_intrahb_reward>  (32) 
-0

>  <i_i_glide_confnum>  (32) 
1

>  <i_i_glide_posenum>  (32) 
16

>  <r_i_glide_eff_state_penalty>  (32) 
0

>  <ligand_id>  (32) 
7

>  <original_smiles>  (32) 
CC1CCC2C3C45CCC1C3(C(O)C(O)C(O)C2(C)C)C(O)C(O)C4C(C)(O)C=C5F

>  <smiles>  (32) 
[H]OC1([H])C([H])(O[H])C(C([H])([H])[H])(C([H])([H])[H])C2([H])C([H])([H])C([H])([H])C([H])(C([H])([H])[H])C3([H])C([H])([H])C([H])([H])C45C(F)=C([H])C(O[H])(C([H])([H])[H])C4([H])C([H])(O[H])C([H])(O[H])C3(C1([H])O[H])C25[H]

$$$$
7:0:2
     RDKit          3D

 68 72  0  0  1  0  0  0  0  0999 V2000
    6.9877   -5.6054    3.0758 C   0  0  0  0  0  0  0  0  0  0  0  0
    5.8684   -4.6133    2.6796 C   0  0  2  0  0  0  0  0  0  0  0  0
    4.5247   -5.3887    2.5645 C   0  0  0  0  0  0  0  0  0  0  0  0
    3.1996   -4.6101    2.3013 C   0  0  0  0  0  0  0  0  0  0  0  0
    3.3709   -3.0781    2.1515 C   0  0  1  0  0  0  0  0  0  0  0  0
    4.1464   -2.5824    0.8666 C   0  0  2  0  0  0  0  0  0  0  0  0
    4.0823   -3.2871   -0.5320 C   0  0  2  0  0  0  0  0  0  0  0  0
    4.8908   -4.6078   -0.5501 C   0  0  0  0  0  0  0  0  0  0  0  0
    6.2562   -4.5798    0.1602 C   0  0  0  0  0  0  0  0  0  0  0  0
    6.2942   -3.7281    1.4453 C   0  0  1  0  0  0  0  0  0  0  0  0
    5.6235   -2.2946    1.2151 C   0  0  2  0  0  0  0  0  0  0  0  0
    5.6151   -1.3414    2.4910 C   0  0  1  0  0  0  0  0  0  0  0  0
    6.7842   -0.6569    2.6558 O   0  0  0  0  0  0  0  0  0  0  0  0
    4.4794   -0.3132    2.7789 C   0  0  1  0  0  0  0  0  0  0  0  0
    4.1887    0.4909    1.6480 O   0  0  0  0  0  0  0  0  0  0  0  0
    3.1998   -0.8649    3.4678 C   0  0  1  0  0  0  0  0  0  0  0  0
    2.3710    0.2348    3.8034 O   0  0  0  0  0  0  0  0  0  0  0  0
    2.3790   -2.0057    2.7658 C   0  0  0  0  0  0  0  0  0  0  0  0
    1.4231   -1.4202    1.7058 C   0  0  0  0  0  0  0  0  0  0  0  0
    1.4749   -2.6525    3.8407 C   0  0  0  0  0  0  0  0  0  0  0  0
    6.3295   -1.5128    0.0085 C   0  0  1  0  0  0  0  0  0  0  0  0
    7.7483   -1.4868    0.0932 O   0  0  0  0  0  0  0  0  0  0  0  0
    5.9303   -1.8046   -1.4755 C   0  0  1  0  0  0  0  0  0  0  0  0
    6.8362   -2.6289   -2.1716 O   0  0  0  0  0  0  0  0  0  0  0  0
    4.5007   -2.2556   -1.5990 C   0  0  1  0  0  0  0  0  0  0  0  0
    3.8247   -2.6287   -2.9476 C   0  0  1  0  0  0  0  0  0  0  0  0
    3.5524   -1.4473   -3.8628 C   0  0  0  0  0  0  0  0  0  0  0  0
    4.4963   -3.6205   -3.7101 O   0  0  0  0  0  0  0  0  0  0  0  0
    2.5640   -3.2218   -2.3850 C   0  0  0  0  0  0  0  0  0  0  0  0
    2.7307   -3.5567   -1.1010 C   0  0  0  0  0  0  0  0  0  0  0  0
    1.8430   -4.2367   -0.3966 F   0  0  0  0  0  0  0  0  0  0  0  0
    7.1605   -6.3836    2.3386 H   0  0  0  0  0  0  0  0  0  0  0  0
    6.7585   -6.0870    4.0261 H   0  0  0  0  0  0  0  0  0  0  0  0
    7.9463   -5.1091    3.2122 H   0  0  0  0  0  0  0  0  0  0  0  0
    5.8074   -3.9850    3.5622 H   0  0  0  0  0  0  0  0  0  0  0  0
    4.6309   -6.1903    1.8361 H   0  0  0  0  0  0  0  0  0  0  0  0
    4.3890   -5.9232    3.5046 H   0  0  0  0  0  0  0  0  0  0  0  0
    2.6925   -5.0546    1.4544 H   0  0  0  0  0  0  0  0  0  0  0  0
    2.5448   -4.8426    3.1382 H   0  0  0  0  0  0  0  0  0  0  0  0
    4.0197   -3.0369    3.0091 H   0  0  0  0  0  0  0  0  0  0  0  0
    3.7329   -1.6127    0.6711 H   0  0  0  0  0  0  0  0  0  0  0  0
    4.2761   -5.4020   -0.1355 H   0  0  0  0  0  0  0  0  0  0  0  0
    5.0292   -4.9274   -1.5746 H   0  0  0  0  0  0  0  0  0  0  0  0
    6.5600   -5.6034    0.3530 H   0  0  0  0  0  0  0  0  0  0  0  0
    7.0391   -4.2359   -0.4996 H   0  0  0  0  0  0  0  0  0  0  0  0
    7.3477   -3.5199    1.6266 H   0  0  0  0  0  0  0  0  0  0  0  0
    5.7161   -1.9405    3.3793 H   0  0  0  0  0  0  0  0  0  0  0  0
    6.9636   -0.0475    1.9578 H   0  0  0  0  0  0  0  0  0  0  0  0
    4.8950    0.3604    3.5209 H   0  0  0  0  0  0  0  0  0  0  0  0
    3.8005   -0.0312    0.9837 H   0  0  0  0  0  0  0  0  0  0  0  0
    3.5404   -1.2709    4.4194 H   0  0  0  0  0  0  0  0  0  0  0  0
    2.1519    0.6845    2.9973 H   0  0  0  0  0  0  0  0  0  0  0  0
    0.6011   -0.8633    2.1658 H   0  0  0  0  0  0  0  0  0  0  0  0
    1.0027   -2.2503    1.1486 H   0  0  0  0  0  0  0  0  0  0  0  0
    1.9084   -0.7210    1.0042 H   0  0  0  0  0  0  0  0  0  0  0  0
    0.8284   -1.9125    4.3129 H   0  0  0  0  0  0  0  0  0  0  0  0
    2.0608   -3.1176    4.6316 H   0  0  0  0  0  0  0  0  0  0  0  0
    0.8140   -3.4119    3.4174 H   0  0  0  0  0  0  0  0  0  0  0  0
    6.0603   -0.4659    0.1370 H   0  0  0  0  0  0  0  0  0  0  0  0
    8.0847   -2.3696    0.1425 H   0  0  0  0  0  0  0  0  0  0  0  0
    5.9605   -0.8572   -2.0058 H   0  0  0  0  0  0  0  0  0  0  0  0
    6.7343   -3.5187   -1.8753 H   0  0  0  0  0  0  0  0  0  0  0  0
    3.9496   -1.3415   -1.3469 H   0  0  0  0  0  0  0  0  0  0  0  0
    3.0113   -0.6457   -3.3669 H   0  0  0  0  0  0  0  0  0  0  0  0
    2.9352   -1.7749   -4.6881 H   0  0  0  0  0  0  0  0  0  0  0  0
    4.4837   -1.0614   -4.2633 H   0  0  0  0  0  0  0  0  0  0  0  0
    4.3676   -4.4593   -3.2845 H   0  0  0  0  0  0  0  0  0  0  0  0
    1.6672   -3.4026   -2.9638 H   0  0  0  0  0  0  0  0  0  0  0  0
  1  2  1  0
  1 32  1  0
  1 33  1  0
  1 34  1  0
  2 10  1  0
  2  3  1  0
  2 35  1  1
  3  4  1  0
  3 36  1  0
  3 37  1  0
  4  5  1  0
  4 38  1  0
  4 39  1  0
  5 18  1  0
  5  6  1  0
  5 40  1  1
  6 11  1  0
  6  7  1  0
  6 41  1  6
  7 25  1  0
  7 30  1  0
  7  8  1  1
  8  9  1  0
  8 42  1  0
  8 43  1  0
  9 10  1  0
  9 44  1  0
  9 45  1  0
 10 11  1  0
 10 46  1  1
 11 12  1  1
 11 21  1  0
 12 13  1  0
 12 14  1  0
 12 47  1  1
 13 48  1  0
 14 15  1  0
 14 16  1  0
 14 49  1  1
 15 50  1  0
 16 17  1  0
 16 18  1  0
 16 51  1  1
 17 52  1  0
 18 19  1  0
 18 20  1  0
 19 53  1  0
 19 54  1  0
 19 55  1  0
 20 56  1  0
 20 57  1  0
 20 58  1  0
 21 22  1  0
 21 23  1  0
 21 59  1  1
 22 60  1  0
 23 24  1  0
 23 25  1  0
 23 61  1  6
 24 62  1  0
 25 26  1  0
 25 63  1  1
 26 27  1  0
 26 28  1  6
 26 29  1  0
 27 64  1  0
 27 65  1  0
 27 66  1  0
 28 67  1  0
 29 30  2  0
 29 68  1  0
 30 31  1  0
M  END
>  <i_m_ct_stereo_status>  (33) 
1

>  <s_m_source_file>  (33) 
/var/tmp/pbs.5076255.sched01/tmpbdos_d33/0hajo06zg.sdf

>  <i_m_source_file_index>  (33) 
14

>  <i_lp_mmshare_version>  (33) 
48012

>  <i_f3d_flags>  (33) 
0

>  <s_epik_input>  (33) 
W09IXVtDQEhdMVtDQEBIXShbT0hdKVtDQEBIXShbT0hdKUMoW0NIM10pKFtDSDNdKVtDQEhdMltDSDJdW0NIMl1bQ0BASF0oW0NIM10pW0NAQEhdKFtDSDJdW0NIMl0zKVtDQF0xKFtDQEhdMltDQF0zNDUpW0NAQEhdKFtPSF0pW0NAQEhdKFtPSF0pW0NASF00W0NAQF0oW0NIM10pKFtPSF0pW0NIXT1DNUY=

>  <s_epik_cmdline>  (33) 
J2VwaWtfcHl0aG9uJywgJy1waHQnLCAnMi4wJywgJy1waCcsICc3LjAnLCAnLXRuJywgJzgnLCAnLW1hJywgJzIwMCcsICctaW1hZScsICc8aW5maWxlLm1hZT4nLCAnLW9tYWUnLCAnPG91dGZpbGUubWFlPic=

>  <r_lp_tautomer_probability>  (33) 
1

>  <r_epik_Ionization_Penalty>  (33) 
7.42965e-07

>  <r_epik_Ionization_Penalty_Charging>  (33) 
0

>  <r_epik_Ionization_Penalty_Neutral>  (33) 
7.42965e-07

>  <r_epik_State_Penalty>  (33) 
-0

>  <r_epik_Charging_Adjusted_Penalty>  (33) 
0

>  <i_epik_Tot_Q>  (33) 
0

>  <i_epik_Tot_abs_Q>  (33) 
0

>  <s_lp_Force_Field>  (33) 
OPLS3e

>  <r_lp_Energy>  (33) 
103.215

>  <b_lp_Chiralities_Consistent>  (33) 
1

>  <s_lp_Variant>  (33) 
7:0-1

>  <s_i_glide_gridfile>  (33) 
pfpi4k_grid

>  <i_i_glide_lignum>  (33) 
14

>  <i_i_glide_rotatable_bonds>  (33) 
6

>  <r_i_docking_score>  (33) 
-2.85103

>  <r_i_glide_ligand_efficiency>  (33) 
-0.0919688

>  <r_i_glide_ligand_efficiency_sa>  (33) 
-0.288909

>  <r_i_glide_ligand_efficiency_ln>  (33) 
-0.642995

>  <r_i_glide_gscore>  (33) 
-2.85103

>  <r_i_glide_lipo>  (33) 
-0.815454

>  <r_i_glide_hbond>  (33) 
0

>  <r_i_glide_metal>  (33) 
-0

>  <r_i_glide_rewards>  (33) 
-0.405372

>  <r_i_glide_evdw>  (33) 
-1.90419

>  <r_i_glide_ecoul>  (33) 
-9.83344

>  <r_i_glide_erotb>  (33) 
0

>  <r_i_glide_esite>  (33) 
-0.0599808

>  <r_i_glide_emodel>  (33) 
-12.2673

>  <r_i_glide_energy>  (33) 
-11.7376

>  <r_i_glide_einternal>  (33) 
0.538295

>  <r_i_glide_intrahb_reward>  (33) 
-0

>  <i_i_glide_confnum>  (33) 
2

>  <i_i_glide_posenum>  (33) 
13

>  <r_i_glide_eff_state_penalty>  (33) 
0

>  <ligand_id>  (33) 
7

>  <original_smiles>  (33) 
CC1CCC2C3C45CCC1C3(C(O)C(O)C(O)C2(C)C)C(O)C(O)C4C(C)(O)C=C5F

>  <smiles>  (33) 
[H]OC1([H])C([H])(O[H])C(C([H])([H])[H])(C([H])([H])[H])C2([H])C([H])([H])C([H])([H])C([H])(C([H])([H])[H])C3([H])C([H])([H])C([H])([H])C45C(F)=C([H])C(O[H])(C([H])([H])[H])C4([H])C([H])(O[H])C([H])(O[H])C3(C1([H])O[H])C25[H]

$$$$
8:0:0
     RDKit          3D

 67 72  0  0  1  0  0  0  0  0999 V2000
    6.6959   -3.1429   -2.3942 C   0  0  0  0  0  0  0  0  0  0  0  0
    5.4356   -3.8880   -2.6119 C   0  0  0  0  0  0  0  0  0  0  0  0
    4.9379   -4.0675   -3.7412 O   0  0  0  0  0  0  0  0  0  0  0  0
    4.8285   -4.3419   -1.4429 O   0  0  0  0  0  0  0  0  0  0  0  0
    5.3443   -4.1296   -0.1015 C   0  0  2  0  0  0  0  0  0  0  0  0
    4.6449   -5.0642    0.9342 C   0  0  2  0  0  0  0  0  0  0  0  0
    3.1053   -4.9204    0.9061 C   0  0  0  0  0  0  0  0  0  0  0  0
    2.7613   -4.1111    2.1580 C   0  0  1  0  0  0  0  0  0  0  0  0
    2.2829   -5.0973    3.2504 C   0  0  0  0  0  0  0  0  0  0  0  0
    3.3980   -5.9729    3.8674 C   0  0  0  0  0  0  0  0  0  0  0  0
    4.8239   -5.8575    3.2446 C   0  0  2  0  0  0  0  0  0  0  0  0
    5.0252   -4.6093    2.3486 C   0  0  2  0  0  0  0  0  0  0  0  0
    4.0990   -3.4030    2.5289 C   0  0  2  0  0  0  0  0  0  0  0  0
    4.0435   -2.9827    3.8838 O   0  0  0  0  0  0  0  0  0  0  0  0
    4.5836   -2.1816    1.5958 C   0  0  2  0  0  0  0  0  0  0  0  0
    5.3619   -1.1180    2.4486 C   0  0  0  0  0  0  0  0  0  0  0  0
    3.4088   -1.4173    0.9089 C   0  0  1  0  0  0  0  0  0  0  0  0
    2.6693   -0.5395    1.7408 O   0  0  0  0  0  0  0  0  0  0  0  0
    4.0163   -0.6870   -0.2681 C   0  0  1  0  0  0  0  0  0  0  0  0
    5.1726   -1.5183   -0.7431 C   0  0  2  0  0  0  0  0  0  0  0  0
    3.9817   -1.2348   -1.6853 C   0  0  0  0  0  0  0  0  0  0  0  0
    2.9160   -2.2219   -2.1405 C   0  0  0  0  0  0  0  0  0  0  0  0
    4.2218   -0.2615   -2.8415 C   0  0  0  0  0  0  0  0  0  0  0  0
    5.4979   -2.5961    0.3564 C   0  0  2  0  0  0  0  0  0  0  0  0
    7.0433   -2.4260    0.6989 C   0  0  0  0  0  0  0  0  0  0  0  0
    5.3496   -7.0197    2.3433 C   0  0  0  0  0  0  0  0  0  0  0  0
    6.8845   -7.1612    2.5316 C   0  0  0  0  0  0  0  0  0  0  0  0
    4.7273   -8.4038    2.6355 C   0  0  0  0  0  0  0  0  0  0  0  0
    5.0568   -6.5505    0.8876 C   0  0  0  0  0  0  0  0  0  0  0  0
    6.8110   -3.0313   -1.4133 H   0  0  0  0  0  0  0  0  0  0  0  0
    6.6306   -2.0740   -2.6523 H   0  0  0  0  0  0  0  0  0  0  0  0
    7.6162   -3.6453   -2.7143 H   0  0  0  0  0  0  0  0  0  0  0  0
    6.3572   -4.5469   -0.1267 H   0  0  0  0  0  0  0  0  0  0  0  0
    2.7583   -4.4290    0.0106 H   0  0  0  0  0  0  0  0  0  0  0  0
    2.5859   -5.8824    0.8990 H   0  0  0  0  0  0  0  0  0  0  0  0
    1.9434   -3.4124    1.9748 H   0  0  0  0  0  0  0  0  0  0  0  0
    1.8175   -4.5230    4.0550 H   0  0  0  0  0  0  0  0  0  0  0  0
    1.4785   -5.7235    2.8644 H   0  0  0  0  0  0  0  0  0  0  0  0
    3.4990   -5.6235    4.8909 H   0  0  0  0  0  0  0  0  0  0  0  0
    3.0636   -7.0006    4.0056 H   0  0  0  0  0  0  0  0  0  0  0  0
    5.4955   -5.7646    4.1068 H   0  0  0  0  0  0  0  0  0  0  0  0
    6.0666   -4.3335    2.4345 H   0  0  0  0  0  0  0  0  0  0  0  0
    3.4227   -2.2703    3.9390 H   0  0  0  0  0  0  0  0  0  0  0  0
    5.7355   -0.2940    1.8367 H   0  0  0  0  0  0  0  0  0  0  0  0
    6.2086   -1.5535    2.9627 H   0  0  0  0  0  0  0  0  0  0  0  0
    4.7374   -0.6460    3.2147 H   0  0  0  0  0  0  0  0  0  0  0  0
    2.6920   -2.1146    0.4842 H   0  0  0  0  0  0  0  0  0  0  0  0
    3.2124    0.2154    1.9232 H   0  0  0  0  0  0  0  0  0  0  0  0
    4.2236    0.3778   -0.1219 H   0  0  0  0  0  0  0  0  0  0  0  0
    6.0681   -0.9933   -1.0789 H   0  0  0  0  0  0  0  0  0  0  0  0
    3.1541   -2.6786   -3.0816 H   0  0  0  0  0  0  0  0  0  0  0  0
    1.9831   -1.7168   -2.3156 H   0  0  0  0  0  0  0  0  0  0  0  0
    2.7287   -2.9990   -1.4138 H   0  0  0  0  0  0  0  0  0  0  0  0
    4.6146   -0.7798   -3.7135 H   0  0  0  0  0  0  0  0  0  0  0  0
    4.9527    0.4995   -2.5802 H   0  0  0  0  0  0  0  0  0  0  0  0
    3.3159    0.2544   -3.1218 H   0  0  0  0  0  0  0  0  0  0  0  0
    7.3348   -1.3921    0.8310 H   0  0  0  0  0  0  0  0  0  0  0  0
    7.7847   -2.7600   -0.0333 H   0  0  0  0  0  0  0  0  0  0  0  0
    7.3678   -3.0052    1.5564 H   0  0  0  0  0  0  0  0  0  0  0  0
    7.3050   -7.9330    1.8823 H   0  0  0  0  0  0  0  0  0  0  0  0
    7.1367   -7.4373    3.5564 H   0  0  0  0  0  0  0  0  0  0  0  0
    7.4145   -6.2352    2.3069 H   0  0  0  0  0  0  0  0  0  0  0  0
    5.1934   -9.1852    2.0328 H   0  0  0  0  0  0  0  0  0  0  0  0
    3.6625   -8.4284    2.4046 H   0  0  0  0  0  0  0  0  0  0  0  0
    4.8536   -8.6830    3.6808 H   0  0  0  0  0  0  0  0  0  0  0  0
    4.2819   -7.1755    0.4264 H   0  0  0  0  0  0  0  0  0  0  0  0
    5.9334   -6.6755    0.2632 H   0  0  0  0  0  0  0  0  0  0  0  0
  1  2  1  0
  1 30  1  0
  1 31  1  0
  1 32  1  0
  2  3  2  0
  2  4  1  0
  4  5  1  0
  5 24  1  0
  5  6  1  0
  5 33  1  6
  6 12  1  0
  6 29  1  6
  6  7  1  0
  7  8  1  0
  7 34  1  0
  7 35  1  0
  8 13  1  0
  8  9  1  0
  8 36  1  6
  9 10  1  0
  9 37  1  0
  9 38  1  0
 10 11  1  0
 10 39  1  0
 10 40  1  0
 11 12  1  0
 11 26  1  0
 11 41  1  1
 12 13  1  0
 12 42  1  6
 13 14  1  1
 13 15  1  0
 14 43  1  0
 15 24  1  0
 15 16  1  1
 15 17  1  0
 16 44  1  0
 16 45  1  0
 16 46  1  0
 17 18  1  0
 17 19  1  0
 17 47  1  6
 18 48  1  0
 19 21  1  0
 19 20  1  0
 19 49  1  6
 20 21  1  0
 20 24  1  0
 20 50  1  6
 21 22  1  0
 21 23  1  0
 22 51  1  0
 22 52  1  0
 22 53  1  0
 23 54  1  0
 23 55  1  0
 23 56  1  0
 24 25  1  1
 25 57  1  0
 25 58  1  0
 25 59  1  0
 26 27  1  0
 26 28  1  0
 26 29  1  0
 27 60  1  0
 27 61  1  0
 27 62  1  0
 28 63  1  0
 28 64  1  0
 28 65  1  0
 29 66  1  0
 29 67  1  0
M  END
>  <i_m_ct_stereo_status>  (34) 
1

>  <s_m_source_file>  (34) 
/var/tmp/pbs.5076255.sched01/tmpbdos_d33/0hajo06zg.sdf

>  <i_m_source_file_index>  (34) 
15

>  <i_lp_mmshare_version>  (34) 
48012

>  <i_f3d_flags>  (34) 
0

>  <s_epik_input>  (34) 
W0NIM11DKD1PKU9bQ0BIXTFbQ0BAXShbQ0gzXSkoW0NAQEhdMltDQEhdKFtDQEBIXTNbT0hdKUMyKFtDSDNdKVtDSDNdKVtDQF0zKFtDSDNdKVtDQEBdNChbT0hdKVtDQEBIXShbQ0gyXTUpW0NIMl1bQ0gyXVtDQEBIXShbQ0BIXTRbQ0BdMTU2KUMoW0NIM10pKFtDSDNdKVtDSDJdNg==

>  <s_epik_cmdline>  (34) 
J2VwaWtfcHl0aG9uJywgJy1waHQnLCAnMi4wJywgJy1waCcsICc3LjAnLCAnLXRuJywgJzgnLCAnLW1hJywgJzIwMCcsICctaW1hZScsICc8aW5maWxlLm1hZT4nLCAnLW9tYWUnLCAnPG91dGZpbGUubWFlPic=

>  <r_lp_tautomer_probability>  (34) 
1

>  <r_epik_Ionization_Penalty>  (34) 
2.5928e-06

>  <r_epik_Ionization_Penalty_Charging>  (34) 
0

>  <r_epik_Ionization_Penalty_Neutral>  (34) 
2.5928e-06

>  <r_epik_State_Penalty>  (34) 
-0

>  <r_epik_Charging_Adjusted_Penalty>  (34) 
0

>  <i_epik_Tot_Q>  (34) 
0

>  <i_epik_Tot_abs_Q>  (34) 
0

>  <s_epik_Chemistry_Notes>  (34) 
This compound has an ester and may undergo hydrolysis at high or low pH.

>  <s_lp_Force_Field>  (34) 
OPLS3e

>  <r_lp_Energy>  (34) 
83.1583

>  <b_lp_Chiralities_Consistent>  (34) 
1

>  <s_lp_Variant>  (34) 
8:0-1

>  <s_i_glide_gridfile>  (34) 
pfpi4k_grid

>  <i_i_glide_lignum>  (34) 
15

>  <i_i_glide_rotatable_bonds>  (34) 
4

>  <r_i_docking_score>  (34) 
-1.52876

>  <r_i_glide_ligand_efficiency>  (34) 
-0.0527158

>  <r_i_glide_ligand_efficiency_sa>  (34) 
-0.16196

>  <r_i_glide_ligand_efficiency_ln>  (34) 
-0.350047

>  <r_i_glide_gscore>  (34) 
-1.52876

>  <r_i_glide_lipo>  (34) 
-0.696496

>  <r_i_glide_hbond>  (34) 
0

>  <r_i_glide_metal>  (34) 
-0

>  <r_i_glide_rewards>  (34) 
-0.744135

>  <r_i_glide_evdw>  (34) 
-19.3083

>  <r_i_glide_ecoul>  (34) 
0.668156

>  <r_i_glide_erotb>  (34) 
0.121097

>  <r_i_glide_esite>  (34) 
0

>  <r_i_glide_emodel>  (34) 
-9.31871

>  <r_i_glide_energy>  (34) 
-18.6402

>  <r_i_glide_einternal>  (34) 
10.8275

>  <r_i_glide_intrahb_reward>  (34) 
-0

>  <i_i_glide_confnum>  (34) 
3

>  <i_i_glide_posenum>  (34) 
36

>  <r_i_glide_eff_state_penalty>  (34) 
0

>  <ligand_id>  (34) 
8

>  <original_smiles>  (34) 
CC(=O)OC1C23CC4CCC(C2C4(O)C2(C)C(O)C4C(C4(C)C)C12C)C(C)(C)C3

>  <smiles>  (34) 
[H]OC1([H])C2([H])C([H])(C2(C([H])([H])[H])C([H])([H])[H])C2(C([H])([H])[H])C([H])(OC(=O)C([H])([H])[H])C34C([H])([H])C5([H])C([H])([H])C([H])([H])C([H])(C3([H])C5(O[H])C12C([H])([H])[H])C(C([H])([H])[H])(C([H])([H])[H])C4([H])[H]

$$$$
11:1:0
     RDKit          3D

100108  0  0  1  0  0  0  0  0999 V2000
    2.2490   -3.4396    5.7076 C   0  0  0  0  0  0  0  0  0  0  0  0
    3.2509   -4.6142    5.7716 C   0  0  2  0  0  0  0  0  0  0  0  0
    4.0683   -4.6543    4.4528 C   0  0  0  0  0  0  0  0  0  0  0  0
    4.5996   -6.0205    3.9866 C   0  0  0  0  0  0  0  0  0  0  0  0
    4.7129   -7.0123    5.1318 C   0  0  0  0  0  0  0  0  0  0  0  0
    5.7337   -7.8895    5.4362 C   0  0  0  0  0  0  0  0  0  0  0  0
    5.8313   -8.1787    6.9935 C   0  0  0  0  0  0  0  0  0  0  0  0
    7.0940   -8.0539    7.9128 C   0  0  2  0  0  0  0  0  0  0  0  0
    8.1886   -6.8710    7.8732 C   0  0  2  0  0  0  0  0  0  0  0  0
    9.6699   -6.3033    7.7447 C   0  0  1  0  0  0  0  0  0  0  0  0
   10.6995   -6.7016    8.8205 C   0  0  0  0  0  0  0  0  0  0  0  0
   10.1282   -6.6317    6.2795 C   0  0  0  0  0  0  0  0  0  0  0  0
   11.2269   -6.3740    5.7758 O   0  0  0  0  0  0  0  0  0  0  0  0
    8.9489   -7.3362    5.5957 C   0  0  1  0  0  0  0  0  0  0  0  0
    8.2068   -6.0386    5.0780 C   0  0  0  0  0  0  0  0  0  0  0  0
    9.0953   -8.3380    4.4648 C   0  0  0  0  0  0  0  0  0  0  0  0
    7.8809   -9.3037    4.3789 C   0  0  0  0  0  0  0  0  0  0  0  0
    6.3368   -8.8462    4.2869 C   0  0  2  0  0  0  0  0  0  0  0  0
    6.4406   -8.1137    2.9121 C   0  0  0  0  0  0  0  0  0  0  0  0
    5.3319  -10.1375    4.0820 C   0  0  1  0  0  0  0  0  0  0  0  0
    6.1194  -11.4805    3.9722 C   0  0  0  0  0  0  0  0  0  0  0  0
    4.2895  -10.3698    5.2093 C   0  0  0  0  0  0  0  0  0  0  0  0
    3.1442   -9.7097    5.5336 C   0  0  0  0  0  0  0  0  0  0  0  0
    2.5778   -8.3933    4.9584 C   0  0  1  0  0  0  0  0  0  0  0  0
    2.6172   -8.6156    3.4358 C   0  0  0  0  0  0  0  0  0  0  0  0
    3.3297   -9.3262    2.5505 C   0  0  0  0  0  0  0  0  0  0  0  0
    4.5432  -10.2008    2.7353 C   0  0  0  0  0  0  0  0  0  0  0  0
    1.3414   -7.9639    3.1631 C   0  0  1  0  0  0  0  0  0  0  0  0
    1.0470   -6.4985    3.3476 C   0  0  0  0  0  0  0  0  0  0  0  0
   -0.0421   -7.3331    4.0205 C   0  0  1  0  0  0  0  0  0  0  0  0
   -0.0903   -8.3113    2.7625 C   0  0  0  0  0  0  0  0  0  0  0  0
   -0.5861   -7.7247    1.4169 C   0  0  0  0  0  0  0  0  0  0  0  0
   -0.5777   -9.7753    2.7850 C   0  0  0  0  0  0  0  0  0  0  0  0
    0.9937   -8.2934    4.7131 C   0  0  2  0  0  0  0  0  0  0  0  0
    0.2224   -9.3702    5.5241 C   0  0  0  0  0  0  0  0  0  0  0  0
    3.3282   -7.2415    5.7255 C   0  0  2  0  0  0  0  0  0  0  0  0
    2.5762   -5.9505    6.2145 C   0  0  1  0  0  0  0  0  0  0  0  0
    2.3809   -5.9414    7.7482 C   0  0  0  0  0  0  0  0  0  0  0  0
    8.6904   -7.9989    6.9758 C   0  0  2  0  0  0  0  0  0  0  0  0
    8.0532   -9.1502    7.8333 C   0  0  0  0  0  0  0  0  0  0  0  0
    8.7365   -9.4665    9.1921 C   0  0  0  0  0  0  0  0  0  0  0  0
    7.5777  -10.5415    7.3777 C   0  0  0  0  0  0  0  0  0  0  0  0
    1.5007   -3.5995    4.9295 H   0  0  0  0  0  0  0  0  0  0  0  0
    2.7645   -2.5063    5.4729 H   0  0  0  0  0  0  0  0  0  0  0  0
    1.7219   -3.2910    6.6497 H   0  0  0  0  0  0  0  0  0  0  0  0
    3.9738   -4.3683    6.5509 H   0  0  0  0  0  0  0  0  0  0  0  0
    3.5110   -4.2030    3.6337 H   0  0  0  0  0  0  0  0  0  0  0  0
    4.9288   -3.9969    4.5969 H   0  0  0  0  0  0  0  0  0  0  0  0
    3.9319   -6.4154    3.2245 H   0  0  0  0  0  0  0  0  0  0  0  0
    5.5541   -5.8232    3.5096 H   0  0  0  0  0  0  0  0  0  0  0  0
    5.2431   -7.3995    7.4673 H   0  0  0  0  0  0  0  0  0  0  0  0
    5.2850   -9.0848    7.2435 H   0  0  0  0  0  0  0  0  0  0  0  0
    6.7246   -8.0375    8.9415 H   0  0  0  0  0  0  0  0  0  0  0  0
    7.5362   -6.0961    7.4681 H   0  0  0  0  0  0  0  0  0  0  0  0
    9.6095   -5.2152    7.7960 H   0  0  0  0  0  0  0  0  0  0  0  0
   11.5940   -6.0808    8.7409 H   0  0  0  0  0  0  0  0  0  0  0  0
   11.0257   -7.7363    8.7419 H   0  0  0  0  0  0  0  0  0  0  0  0
   10.2968   -6.5504    9.8195 H   0  0  0  0  0  0  0  0  0  0  0  0
    7.1389   -6.0280    5.1611 H   0  0  0  0  0  0  0  0  0  0  0  0
    8.4441   -5.8438    4.0300 H   0  0  0  0  0  0  0  0  0  0  0  0
    8.4767   -5.1061    5.5786 H   0  0  0  0  0  0  0  0  0  0  0  0
    9.2616   -7.8381    3.5083 H   0  0  0  0  0  0  0  0  0  0  0  0
   10.0030   -8.9228    4.6224 H   0  0  0  0  0  0  0  0  0  0  0  0
    8.1158   -9.8725    3.4807 H   0  0  0  0  0  0  0  0  0  0  0  0
    8.0658  -10.0481    5.1180 H   0  0  0  0  0  0  0  0  0  0  0  0
    6.9022   -8.7299    2.1409 H   0  0  0  0  0  0  0  0  0  0  0  0
    7.0636   -7.2270    2.9625 H   0  0  0  0  0  0  0  0  0  0  0  0
    5.4888   -7.8162    2.4869 H   0  0  0  0  0  0  0  0  0  0  0  0
    6.7628  -11.5072    3.0909 H   0  0  0  0  0  0  0  0  0  0  0  0
    5.4485  -12.3347    3.8629 H   0  0  0  0  0  0  0  0  0  0  0  0
    6.7237  -11.7144    4.8426 H   0  0  0  0  0  0  0  0  0  0  0  0
    4.5046  -11.2378    5.8178 H   0  0  0  0  0  0  0  0  0  0  0  0
    2.6064  -10.1092    6.3863 H   0  0  0  0  0  0  0  0  0  0  0  0
    2.9533   -9.3419    1.5343 H   0  0  0  0  0  0  0  0  0  0  0  0
    5.1854  -10.0651    1.8670 H   0  0  0  0  0  0  0  0  0  0  0  0
    4.1358  -11.2016    2.5746 H   0  0  0  0  0  0  0  0  0  0  0  0
    1.7712   -5.9533    3.9088 H   0  0  0  0  0  0  0  0  0  0  0  0
    0.8282   -5.9514    2.4301 H   0  0  0  0  0  0  0  0  0  0  0  0
   -0.9324   -6.9266    4.5016 H   0  0  0  0  0  0  0  0  0  0  0  0
   -1.3750   -8.3170    0.9443 H   0  0  0  0  0  0  0  0  0  0  0  0
    0.2393   -7.6533    0.7031 H   0  0  0  0  0  0  0  0  0  0  0  0
   -0.9873   -6.7187    1.5356 H   0  0  0  0  0  0  0  0  0  0  0  0
   -1.5151   -9.8554    3.3238 H   0  0  0  0  0  0  0  0  0  0  0  0
    0.1524  -10.4619    3.2059 H   0  0  0  0  0  0  0  0  0  0  0  0
   -0.7748  -10.1813    1.7957 H   0  0  0  0  0  0  0  0  0  0  0  0
   -0.8628   -9.2757    5.4492 H   0  0  0  0  0  0  0  0  0  0  0  0
    0.4331   -9.2181    6.5841 H   0  0  0  0  0  0  0  0  0  0  0  0
    0.5159  -10.3988    5.3112 H   0  0  0  0  0  0  0  0  0  0  0  0
    3.4421   -7.7173    6.6909 H   0  0  0  0  0  0  0  0  0  0  0  0
    1.5463   -5.9720    5.8874 H   0  0  0  0  0  0  0  0  0  0  0  0
    3.3392   -5.9124    8.2719 H   0  0  0  0  0  0  0  0  0  0  0  0
    1.8402   -6.8294    8.0825 H   0  0  0  0  0  0  0  0  0  0  0  0
    1.8005   -5.0746    8.0699 H   0  0  0  0  0  0  0  0  0  0  0  0
    9.6144   -8.5634    7.2198 H   0  0  0  0  0  0  0  0  0  0  0  0
    9.6420  -10.0644    9.0662 H   0  0  0  0  0  0  0  0  0  0  0  0
    8.0718  -10.0175    9.8621 H   0  0  0  0  0  0  0  0  0  0  0  0
    9.0104   -8.5674    9.7467 H   0  0  0  0  0  0  0  0  0  0  0  0
    8.4000  -11.1511    7.0011 H   0  0  0  0  0  0  0  0  0  0  0  0
    6.7839  -10.5073    6.6388 H   0  0  0  0  0  0  0  0  0  0  0  0
    7.1249  -11.0950    8.2011 H   0  0  0  0  0  0  0  0  0  0  0  0
  1  2  1  0
  1 43  1  0
  1 44  1  0
  1 45  1  0
  2 37  1  0
  2  3  1  0
  2 46  1  1
  3  4  1  0
  3 47  1  0
  3 48  1  0
  4  5  1  0
  4 49  1  0
  4 50  1  0
  5 36  1  0
  5  6  2  3
  6 18  1  0
  6  7  1  0
  7  8  1  0
  7 51  1  0
  7 52  1  0
  8 40  1  0
  8  9  1  0
  8 53  1  1
  9 39  1  0
  9 10  1  0
  9 54  1  6
 10 11  1  0
 10 12  1  0
 10 55  1  6
 11 56  1  0
 11 57  1  0
 11 58  1  0
 12 13  2  0
 12 14  1  0
 14 15  1  6
 14 16  1  0
 14 39  1  0
 15 59  1  0
 15 60  1  0
 15 61  1  0
 16 17  1  0
 16 62  1  0
 16 63  1  0
 17 18  1  0
 17 64  1  0
 17 65  1  0
 18 19  1  6
 18 20  1  0
 19 66  1  0
 19 67  1  0
 19 68  1  0
 20 27  1  0
 20 21  1  6
 20 22  1  0
 21 69  1  0
 21 70  1  0
 21 71  1  0
 22 23  2  0
 22 72  1  0
 24 23  1  1
 23 73  1  0
 24 34  1  0
 24 25  1  0
 24 36  1  0
 25 26  2  0
 28 25  1  6
 26 27  1  0
 26 74  1  0
 27 75  1  0
 27 76  1  0
 28 31  1  0
 28 34  1  0
 28 29  1  0
 29 30  1  0
 29 77  1  0
 29 78  1  0
 30 31  1  0
 30 34  1  0
 30 79  1  1
 31 32  1  0
 31 33  1  0
 32 80  1  0
 32 81  1  0
 32 82  1  0
 33 83  1  0
 33 84  1  0
 33 85  1  0
 34 35  1  6
 35 86  1  0
 35 87  1  0
 35 88  1  0
 36 37  1  0
 36 89  1  1
 37 38  1  0
 37 90  1  6
 38 91  1  0
 38 92  1  0
 38 93  1  0
 39 40  1  0
 39 94  1  1
 40 41  1  0
 40 42  1  0
 41 95  1  0
 41 96  1  0
 41 97  1  0
 42 98  1  0
 42 99  1  0
 42100  1  0
M  END
>  <i_m_ct_stereo_status>  (35) 
1

>  <s_m_source_file>  (35) 
/var/tmp/pbs.5076255.sched01/tmpbdos_d33/0hajo06zg.sdf

>  <i_m_source_file_index>  (35) 
19

>  <i_lp_mmshare_version>  (35) 
48012

>  <i_f3d_flags>  (35) 
1

>  <s_epik_input>  (35) 
W0NIM11bQ0BIXTFDKD1PKVtDQEBdKFtDSDNdKShbQ0gyXVtDSDJdMilbQ0BIXShDMyhbQ0gzXSlbQ0gzXSlbQ0BIXTFbQ0BIXTNbQ0gyXS9DKD1DXDRbQ0BIXTVbQ0BASF0oW0NIM10pW0NASF0oW0NIM10pW0NIMl1bQ0gyXTQpW0NAXTIoW0NIM10pW0NAQF0oW0NIM10pKFtDSF09W0NIXTYpW0NIMl1bQ0hdPUMoW0NAXTU2NylbQ0BAXTg5QzcoW0NIM10pW0NAQEhdKFtDSDJdOClDOShbQ0gzXSlbQ0gzXQ==

>  <s_epik_cmdline>  (35) 
J2VwaWtfcHl0aG9uJywgJy1waHQnLCAnMi4wJywgJy1waCcsICc3LjAnLCAnLXRuJywgJzgnLCAnLW1hJywgJzIwMCcsICctaW1hZScsICc8aW5maWxlLm1hZT4nLCAnLW9tYWUnLCAnPG91dGZpbGUubWFlPic=

>  <r_lp_tautomer_probability>  (35) 
1

>  <r_epik_Ionization_Penalty>  (35) 
2.026e-14

>  <r_epik_Ionization_Penalty_Charging>  (35) 
0

>  <r_epik_Ionization_Penalty_Neutral>  (35) 
2.026e-14

>  <r_epik_State_Penalty>  (35) 
-0

>  <r_epik_Charging_Adjusted_Penalty>  (35) 
0

>  <i_epik_Tot_Q>  (35) 
0

>  <i_epik_Tot_abs_Q>  (35) 
0

>  <s_lp_Force_Field>  (35) 
OPLS3e

>  <r_lp_Energy>  (35) 
457.742

>  <b_lp_Chiralities_Consistent>  (35) 
1

>  <s_lp_Variant>  (35) 
11:0-2

>  <s_i_glide_gridfile>  (35) 
pfpi4k_grid

>  <i_i_glide_lignum>  (35) 
19

>  <i_i_glide_rotatable_bonds>  (35) 
0

>  <r_i_docking_score>  (35) 
-1.23266

>  <r_i_glide_ligand_efficiency>  (35) 
-0.0293491

>  <r_i_glide_ligand_efficiency_sa>  (35) 
-0.102018

>  <r_i_glide_ligand_efficiency_ln>  (35) 
-0.260184

>  <r_i_glide_gscore>  (35) 
-1.23266

>  <r_i_glide_lipo>  (35) 
-0.0662688

>  <r_i_glide_hbond>  (35) 
0

>  <r_i_glide_metal>  (35) 
-0

>  <r_i_glide_rewards>  (35) 
0

>  <r_i_glide_evdw>  (35) 
-20.4324

>  <r_i_glide_ecoul>  (35) 
-0.965164

>  <r_i_glide_erotb>  (35) 
0

>  <r_i_glide_esite>  (35) 
0

>  <r_i_glide_emodel>  (35) 
-22.1337

>  <r_i_glide_energy>  (35) 
-21.3976

>  <r_i_glide_einternal>  (35) 
0

>  <r_i_glide_intrahb_reward>  (35) 
-0

>  <i_i_glide_confnum>  (35) 
1

>  <i_i_glide_posenum>  (35) 
1

>  <r_i_glide_eff_state_penalty>  (35) 
0

>  <ligand_id>  (35) 
11

>  <original_smiles>  (35) 
CC1CCC2=C3CC4C5C(C)C(=O)C(C)(CCC3(C)C3(C)C=CC6(C(=CC3)C37CC(C3(C)C)C67C)C2C1C)C5C4(C)C

>  <smiles>  (35) 
[H]C1=C2C3(C([H])=C([H])C(C([H])([H])[H])(C1([H])[H])C1(C([H])([H])[H])C(=C4C([H])([H])C([H])([H])C([H])(C([H])([H])[H])C([H])(C([H])([H])[H])C43[H])C([H])([H])C3([H])C4([H])C([H])(C([H])([H])[H])C(=O)C(C([H])([H])[H])(C([H])([H])C1([H])[H])C4([H])C3(C([H])([H])[H])C([H])([H])[H])C1(C([H])([H])[H])C3([H])C([H])([H])C21C3(C([H])([H])[H])C([H])([H])[H]

$$$$
11:1:1
     RDKit          3D

100108  0  0  1  0  0  0  0  0999 V2000
   -0.4786   -7.1949    1.9780 C   0  0  0  0  0  0  0  0  0  0  0  0
    0.1019   -7.0127    3.4008 C   0  0  2  0  0  0  0  0  0  0  0  0
    1.0489   -5.7872    3.4078 C   0  0  0  0  0  0  0  0  0  0  0  0
    2.2078   -5.7926    4.4211 C   0  0  0  0  0  0  0  0  0  0  0  0
    1.9475   -6.7264    5.5915 C   0  0  0  0  0  0  0  0  0  0  0  0
    2.1642   -6.5258    6.9415 C   0  0  0  0  0  0  0  0  0  0  0  0
    1.1436   -7.3521    7.8288 C   0  0  0  0  0  0  0  0  0  0  0  0
    0.2250   -6.8017    8.9744 C   0  0  2  0  0  0  0  0  0  0  0  0
   -0.6318   -5.4420    8.9629 C   0  0  2  0  0  0  0  0  0  0  0  0
   -1.0590   -4.0168    9.5332 C   0  0  1  0  0  0  0  0  0  0  0  0
   -1.7440   -3.9594   10.9106 C   0  0  0  0  0  0  0  0  0  0  0  0
    0.2169   -3.1382    9.4248 C   0  0  0  0  0  0  0  0  0  0  0  0
    0.2841   -1.9263    9.7418 O   0  0  0  0  0  0  0  0  0  0  0  0
    1.3277   -3.9638    8.7949 C   0  0  1  0  0  0  0  0  0  0  0  0
    0.9822   -3.6677    7.2820 C   0  0  0  0  0  0  0  0  0  0  0  0
    2.8130   -3.7664    9.0388 C   0  0  0  0  0  0  0  0  0  0  0  0
    3.6224   -5.0679    8.7986 C   0  0  0  0  0  0  0  0  0  0  0  0
    3.5746   -5.9561    7.4526 C   0  0  2  0  0  0  0  0  0  0  0  0
    4.1509   -4.8688    6.4914 C   0  0  0  0  0  0  0  0  0  0  0  0
    4.6640   -7.1881    7.5047 C   0  0  1  0  0  0  0  0  0  0  0  0
    5.5104   -7.1714    8.8130 C   0  0  0  0  0  0  0  0  0  0  0  0
    4.0638   -8.6209    7.4283 C   0  0  0  0  0  0  0  0  0  0  0  0
    3.5216   -9.3241    6.3942 C   0  0  0  0  0  0  0  0  0  0  0  0
    3.1879   -8.8640    4.9570 C   0  0  1  0  0  0  0  0  0  0  0  0
    4.4891   -8.1835    4.4940 C   0  0  0  0  0  0  0  0  0  0  0  0
    5.5349   -7.5516    5.0450 C   0  0  0  0  0  0  0  0  0  0  0  0
    5.8225   -7.1456    6.4617 C   0  0  0  0  0  0  0  0  0  0  0  0
    4.4592   -8.6670    3.1196 C   0  0  1  0  0  0  0  0  0  0  0  0
    3.4005   -8.3338    2.1041 C   0  0  0  0  0  0  0  0  0  0  0  0
    3.5351   -9.8480    2.1824 C   0  0  1  0  0  0  0  0  0  0  0  0
    5.1233   -9.7297    2.2427 C   0  0  0  0  0  0  0  0  0  0  0  0
    5.8462   -9.1714    0.9956 C   0  0  0  0  0  0  0  0  0  0  0  0
    6.0917  -10.7784    2.8304 C   0  0  0  0  0  0  0  0  0  0  0  0
    3.5129   -9.8526    3.7355 C   0  0  2  0  0  0  0  0  0  0  0  0
    3.6544  -11.3223    4.2386 C   0  0  0  0  0  0  0  0  0  0  0  0
    1.7969   -8.1457    5.0627 C   0  0  2  0  0  0  0  0  0  0  0  0
    0.6989   -8.3393    3.9615 C   0  0  1  0  0  0  0  0  0  0  0  0
   -0.4550   -9.2233    4.4609 C   0  0  0  0  0  0  0  0  0  0  0  0
    0.7185   -5.1493    9.5842 C   0  0  2  0  0  0  0  0  0  0  0  0
    0.8715   -6.5582   10.2603 C   0  0  0  0  0  0  0  0  0  0  0  0
   -0.0346   -6.8646   11.4842 C   0  0  0  0  0  0  0  0  0  0  0  0
    2.1485   -7.3300   10.6242 C   0  0  0  0  0  0  0  0  0  0  0  0
    0.3021   -7.4541    1.2591 H   0  0  0  0  0  0  0  0  0  0  0  0
   -0.9451   -6.2795    1.6187 H   0  0  0  0  0  0  0  0  0  0  0  0
   -1.2326   -7.9813    1.9315 H   0  0  0  0  0  0  0  0  0  0  0  0
   -0.7334   -6.7514    4.0595 H   0  0  0  0  0  0  0  0  0  0  0  0
    1.4464   -5.5847    2.4109 H   0  0  0  0  0  0  0  0  0  0  0  0
    0.4325   -4.9220    3.6452 H   0  0  0  0  0  0  0  0  0  0  0  0
    3.1150   -6.0958    3.9076 H   0  0  0  0  0  0  0  0  0  0  0  0
    2.3363   -4.7642    4.7339 H   0  0  0  0  0  0  0  0  0  0  0  0
    0.3516   -7.6598    7.1527 H   0  0  0  0  0  0  0  0  0  0  0  0
    1.5871   -8.2959    8.1372 H   0  0  0  0  0  0  0  0  0  0  0  0
   -0.5247   -7.5731    9.1475 H   0  0  0  0  0  0  0  0  0  0  0  0
   -0.7362   -5.3801    7.8846 H   0  0  0  0  0  0  0  0  0  0  0  0
   -1.7787   -3.6023    8.8273 H   0  0  0  0  0  0  0  0  0  0  0  0
   -2.1647   -2.9714   11.0916 H   0  0  0  0  0  0  0  0  0  0  0  0
   -1.0626   -4.1596   11.7333 H   0  0  0  0  0  0  0  0  0  0  0  0
   -2.5689   -4.6607   10.9654 H   0  0  0  0  0  0  0  0  0  0  0  0
    1.0300   -4.4947    6.6033 H   0  0  0  0  0  0  0  0  0  0  0  0
    1.6306   -2.8913    6.8770 H   0  0  0  0  0  0  0  0  0  0  0  0
   -0.0224   -3.2842    7.0954 H   0  0  0  0  0  0  0  0  0  0  0  0
    3.2018   -2.9459    8.4348 H   0  0  0  0  0  0  0  0  0  0  0  0
    2.9573   -3.4414   10.0697 H   0  0  0  0  0  0  0  0  0  0  0  0
    4.6425   -4.7150    8.9297 H   0  0  0  0  0  0  0  0  0  0  0  0
    3.5087   -5.6347    9.6929 H   0  0  0  0  0  0  0  0  0  0  0  0
    5.0789   -4.4319    6.8586 H   0  0  0  0  0  0  0  0  0  0  0  0
    3.4800   -4.0258    6.3742 H   0  0  0  0  0  0  0  0  0  0  0  0
    4.3930   -5.2279    5.4976 H   0  0  0  0  0  0  0  0  0  0  0  0
    6.1295   -6.2760    8.8883 H   0  0  0  0  0  0  0  0  0  0  0  0
    6.2103   -8.0073    8.8556 H   0  0  0  0  0  0  0  0  0  0  0  0
    4.9261   -7.2578    9.7231 H   0  0  0  0  0  0  0  0  0  0  0  0
    4.1253   -9.1522    8.3664 H   0  0  0  0  0  0  0  0  0  0  0  0
    3.1754  -10.3243    6.6425 H   0  0  0  0  0  0  0  0  0  0  0  0
    6.3626   -7.3350    4.3741 H   0  0  0  0  0  0  0  0  0  0  0  0
    6.3254   -6.1796    6.4368 H   0  0  0  0  0  0  0  0  0  0  0  0
    6.6235   -7.8299    6.7482 H   0  0  0  0  0  0  0  0  0  0  0  0
    2.5430   -7.8208    2.4798 H   0  0  0  0  0  0  0  0  0  0  0  0
    3.7701   -7.8085    1.2331 H   0  0  0  0  0  0  0  0  0  0  0  0
    2.9903  -10.5502    1.5545 H   0  0  0  0  0  0  0  0  0  0  0  0
    6.6615   -9.7884    0.6081 H   0  0  0  0  0  0  0  0  0  0  0  0
    6.2629   -8.1755    1.1938 H   0  0  0  0  0  0  0  0  0  0  0  0
    5.1440   -9.0516    0.1726 H   0  0  0  0  0  0  0  0  0  0  0  0
    5.8213  -11.7775    2.5012 H   0  0  0  0  0  0  0  0  0  0  0  0
    6.1279  -10.7457    3.9099 H   0  0  0  0  0  0  0  0  0  0  0  0
    7.1241  -10.6158    2.5262 H   0  0  0  0  0  0  0  0  0  0  0  0
    3.7801  -12.0563    3.4365 H   0  0  0  0  0  0  0  0  0  0  0  0
    2.7227  -11.6217    4.7226 H   0  0  0  0  0  0  0  0  0  0  0  0
    4.4292  -11.4738    4.9926 H   0  0  0  0  0  0  0  0  0  0  0  0
    1.3441   -8.7541    5.8351 H   0  0  0  0  0  0  0  0  0  0  0  0
    1.0703   -8.9625    3.1555 H   0  0  0  0  0  0  0  0  0  0  0  0
   -0.9872   -8.7681    5.2989 H   0  0  0  0  0  0  0  0  0  0  0  0
   -0.0872  -10.1966    4.7944 H   0  0  0  0  0  0  0  0  0  0  0  0
   -1.1847   -9.4245    3.6735 H   0  0  0  0  0  0  0  0  0  0  0  0
    0.7834   -4.8553   10.6455 H   0  0  0  0  0  0  0  0  0  0  0  0
    0.3452   -6.4132   12.4039 H   0  0  0  0  0  0  0  0  0  0  0  0
   -0.1395   -7.9388   11.6633 H   0  0  0  0  0  0  0  0  0  0  0  0
   -1.0453   -6.4935   11.3542 H   0  0  0  0  0  0  0  0  0  0  0  0
    2.7309   -6.8151   11.3895 H   0  0  0  0  0  0  0  0  0  0  0  0
    2.7763   -7.5391    9.7699 H   0  0  0  0  0  0  0  0  0  0  0  0
    1.9205   -8.3243   11.0133 H   0  0  0  0  0  0  0  0  0  0  0  0
  1  2  1  0
  1 43  1  0
  1 44  1  0
  1 45  1  0
  2 37  1  0
  2  3  1  0
  2 46  1  1
  3  4  1  0
  3 47  1  0
  3 48  1  0
  4  5  1  0
  4 49  1  0
  4 50  1  0
  5 36  1  0
  5  6  2  3
  6 18  1  0
  6  7  1  0
  7  8  1  0
  7 51  1  0
  7 52  1  0
  8 40  1  0
  8  9  1  0
  8 53  1  1
  9 39  1  0
  9 10  1  0
  9 54  1  6
 10 11  1  0
 10 12  1  0
 10 55  1  6
 11 56  1  0
 11 57  1  0
 11 58  1  0
 12 13  2  0
 12 14  1  0
 14 15  1  6
 14 16  1  0
 14 39  1  0
 15 59  1  0
 15 60  1  0
 15 61  1  0
 16 17  1  0
 16 62  1  0
 16 63  1  0
 17 18  1  0
 17 64  1  0
 17 65  1  0
 18 19  1  6
 18 20  1  0
 19 66  1  0
 19 67  1  0
 19 68  1  0
 20 27  1  0
 20 21  1  1
 20 22  1  0
 21 69  1  0
 21 70  1  0
 21 71  1  0
 22 23  2  0
 22 72  1  0
 24 23  1  1
 23 73  1  0
 24 34  1  0
 24 25  1  0
 24 36  1  0
 25 26  2  0
 28 25  1  1
 26 27  1  0
 26 74  1  0
 27 75  1  0
 27 76  1  0
 28 31  1  0
 28 34  1  0
 28 29  1  0
 29 30  1  0
 29 77  1  0
 29 78  1  0
 30 31  1  0
 30 34  1  0
 30 79  1  6
 31 32  1  0
 31 33  1  0
 32 80  1  0
 32 81  1  0
 32 82  1  0
 33 83  1  0
 33 84  1  0
 33 85  1  0
 34 35  1  1
 35 86  1  0
 35 87  1  0
 35 88  1  0
 36 37  1  0
 36 89  1  1
 37 38  1  0
 37 90  1  6
 38 91  1  0
 38 92  1  0
 38 93  1  0
 39 40  1  0
 39 94  1  1
 40 41  1  0
 40 42  1  0
 41 95  1  0
 41 96  1  0
 41 97  1  0
 42 98  1  0
 42 99  1  0
 42100  1  0
M  END
>  <i_m_ct_stereo_status>  (36) 
1

>  <s_m_source_file>  (36) 
/var/tmp/pbs.5076255.sched01/tmpbdos_d33/0hajo06zg.sdf

>  <i_m_source_file_index>  (36) 
19

>  <i_lp_mmshare_version>  (36) 
48012

>  <i_f3d_flags>  (36) 
1

>  <s_epik_input>  (36) 
W0NIM11bQ0BIXTFDKD1PKVtDQEBdKFtDSDNdKShbQ0gyXVtDSDJdMilbQ0BIXShDMyhbQ0gzXSlbQ0gzXSlbQ0BIXTFbQ0BIXTNbQ0gyXS9DKD1DXDRbQ0BIXTVbQ0BASF0oW0NIM10pW0NASF0oW0NIM10pW0NIMl1bQ0gyXTQpW0NAXTIoW0NIM10pW0NAQF0oW0NIM10pKFtDSF09W0NIXTYpW0NIMl1bQ0hdPUMoW0NAXTU2NylbQ0BAXTg5QzcoW0NIM10pW0NAQEhdKFtDSDJdOClDOShbQ0gzXSlbQ0gzXQ==

>  <s_epik_cmdline>  (36) 
J2VwaWtfcHl0aG9uJywgJy1waHQnLCAnMi4wJywgJy1waCcsICc3LjAnLCAnLXRuJywgJzgnLCAnLW1hJywgJzIwMCcsICctaW1hZScsICc8aW5maWxlLm1hZT4nLCAnLW9tYWUnLCAnPG91dGZpbGUubWFlPic=

>  <r_lp_tautomer_probability>  (36) 
1

>  <r_epik_Ionization_Penalty>  (36) 
2.026e-14

>  <r_epik_Ionization_Penalty_Charging>  (36) 
0

>  <r_epik_Ionization_Penalty_Neutral>  (36) 
2.026e-14

>  <r_epik_State_Penalty>  (36) 
-0

>  <r_epik_Charging_Adjusted_Penalty>  (36) 
0

>  <i_epik_Tot_Q>  (36) 
0

>  <i_epik_Tot_abs_Q>  (36) 
0

>  <s_lp_Force_Field>  (36) 
OPLS3e

>  <r_lp_Energy>  (36) 
457.742

>  <b_lp_Chiralities_Consistent>  (36) 
1

>  <s_lp_Variant>  (36) 
11:0-2

>  <s_i_glide_gridfile>  (36) 
pfpi4k_grid

>  <i_i_glide_lignum>  (36) 
19

>  <i_i_glide_rotatable_bonds>  (36) 
0

>  <r_i_docking_score>  (36) 
-1.21817

>  <r_i_glide_ligand_efficiency>  (36) 
-0.0290041

>  <r_i_glide_ligand_efficiency_sa>  (36) 
-0.100819

>  <r_i_glide_ligand_efficiency_ln>  (36) 
-0.257125

>  <r_i_glide_gscore>  (36) 
-1.21817

>  <r_i_glide_lipo>  (36) 
0

>  <r_i_glide_hbond>  (36) 
-0.0342579

>  <r_i_glide_metal>  (36) 
-0

>  <r_i_glide_rewards>  (36) 
0

>  <r_i_glide_evdw>  (36) 
-22.2166

>  <r_i_glide_ecoul>  (36) 
-0.274502

>  <r_i_glide_erotb>  (36) 
0

>  <r_i_glide_esite>  (36) 
-0.031913

>  <r_i_glide_emodel>  (36) 
-23.0828

>  <r_i_glide_energy>  (36) 
-22.4911

>  <r_i_glide_einternal>  (36) 
0

>  <r_i_glide_intrahb_reward>  (36) 
-0

>  <i_i_glide_confnum>  (36) 
1

>  <i_i_glide_posenum>  (36) 
35

>  <r_i_glide_eff_state_penalty>  (36) 
0

>  <ligand_id>  (36) 
11

>  <original_smiles>  (36) 
CC1CCC2=C3CC4C5C(C)C(=O)C(C)(CCC3(C)C3(C)C=CC6(C(=CC3)C37CC(C3(C)C)C67C)C2C1C)C5C4(C)C

>  <smiles>  (36) 
[H]C1=C2C3(C([H])=C([H])C(C([H])([H])[H])(C1([H])[H])C1(C([H])([H])[H])C(=C4C([H])([H])C([H])([H])C([H])(C([H])([H])[H])C([H])(C([H])([H])[H])C43[H])C([H])([H])C3([H])C4([H])C([H])(C([H])([H])[H])C(=O)C(C([H])([H])[H])(C([H])([H])C1([H])[H])C4([H])C3(C([H])([H])[H])C([H])([H])[H])C1(C([H])([H])[H])C3([H])C([H])([H])C21C3(C([H])([H])[H])C([H])([H])[H]

$$$$
11:1:2
     RDKit          3D

100108  0  0  1  0  0  0  0  0999 V2000
   -1.2872   -8.2759    2.5975 C   0  0  0  0  0  0  0  0  0  0  0  0
   -0.1585   -7.2757    2.9239 C   0  0  2  0  0  0  0  0  0  0  0  0
    0.9516   -7.3878    1.8468 C   0  0  0  0  0  0  0  0  0  0  0  0
    2.3905   -7.0446    2.2723 C   0  0  0  0  0  0  0  0  0  0  0  0
    2.4259   -6.1435    3.4983 C   0  0  0  0  0  0  0  0  0  0  0  0
    3.1945   -5.0371    3.7510 C   0  0  0  0  0  0  0  0  0  0  0  0
    2.4781   -4.0081    4.7172 C   0  0  0  0  0  0  0  0  0  0  0  0
    2.2471   -2.4721    4.4817 C   0  0  2  0  0  0  0  0  0  0  0  0
    1.7852   -1.7766    3.1091 C   0  0  2  0  0  0  0  0  0  0  0  0
    1.9563   -0.7484    1.9055 C   0  0  1  0  0  0  0  0  0  0  0  0
    1.9133    0.7622    2.2187 C   0  0  0  0  0  0  0  0  0  0  0  0
    3.2479   -1.2064    1.1294 C   0  0  0  0  0  0  0  0  0  0  0  0
    3.7802   -0.6547    0.1660 O   0  0  0  0  0  0  0  0  0  0  0  0
    3.7693   -2.4531    1.8421 C   0  0  1  0  0  0  0  0  0  0  0  0
    2.9216   -3.5214    1.0500 C   0  0  0  0  0  0  0  0  0  0  0  0
    5.2254   -2.8572    1.8562 C   0  0  0  0  0  0  0  0  0  0  0  0
    5.5565   -3.7594    3.0768 C   0  0  0  0  0  0  0  0  0  0  0  0
    4.7819   -5.1029    3.5020 C   0  0  2  0  0  0  0  0  0  0  0  0
    5.1457   -5.9237    2.2208 C   0  0  0  0  0  0  0  0  0  0  0  0
    5.5051   -5.8389    4.7856 C   0  0  1  0  0  0  0  0  0  0  0  0
    6.7888   -5.0891    5.2632 C   0  0  0  0  0  0  0  0  0  0  0  0
    4.6351   -5.9755    6.0584 C   0  0  0  0  0  0  0  0  0  0  0  0
    3.5841   -6.7884    6.3548 C   0  0  0  0  0  0  0  0  0  0  0  0
    2.8149   -7.7641    5.4311 C   0  0  1  0  0  0  0  0  0  0  0  0
    3.9322   -8.5824    4.7612 C   0  0  0  0  0  0  0  0  0  0  0  0
    5.2202   -8.4367    4.4299 C   0  0  0  0  0  0  0  0  0  0  0  0
    6.1305   -7.2418    4.5190 C   0  0  0  0  0  0  0  0  0  0  0  0
    3.2255   -9.8593    4.8139 C   0  0  1  0  0  0  0  0  0  0  0  0
    1.9714  -10.1898    4.0550 C   0  0  0  0  0  0  0  0  0  0  0  0
    1.7855  -10.5481    5.5278 C   0  0  1  0  0  0  0  0  0  0  0  0
    3.2578  -11.1787    5.5727 C   0  0  0  0  0  0  0  0  0  0  0  0
    3.5278  -12.4385    4.7214 C   0  0  0  0  0  0  0  0  0  0  0  0
    4.1148  -11.3506    6.8421 C   0  0  0  0  0  0  0  0  0  0  0  0
    2.3750   -9.1853    6.0291 C   0  0  2  0  0  0  0  0  0  0  0  0
    2.3873   -9.1792    7.5837 C   0  0  0  0  0  0  0  0  0  0  0  0
    1.7685   -6.8738    4.6640 C   0  0  2  0  0  0  0  0  0  0  0  0
    0.3016   -7.3663    4.4092 C   0  0  1  0  0  0  0  0  0  0  0  0
   -0.7133   -6.6147    5.2966 C   0  0  0  0  0  0  0  0  0  0  0  0
    3.3127   -1.7542    3.1569 C   0  0  2  0  0  0  0  0  0  0  0  0
    3.3937   -1.6041    4.7136 C   0  0  0  0  0  0  0  0  0  0  0  0
    2.9993   -0.2149    5.2955 C   0  0  0  0  0  0  0  0  0  0  0  0
    4.5081   -2.0574    5.6635 C   0  0  0  0  0  0  0  0  0  0  0  0
   -0.9431   -9.3092    2.6809 H   0  0  0  0  0  0  0  0  0  0  0  0
   -1.6297   -8.1516    1.5738 H   0  0  0  0  0  0  0  0  0  0  0  0
   -2.1537   -8.1636    3.2486 H   0  0  0  0  0  0  0  0  0  0  0  0
   -0.5642   -6.2701    2.8049 H   0  0  0  0  0  0  0  0  0  0  0  0
    0.9574   -8.3787    1.3878 H   0  0  0  0  0  0  0  0  0  0  0  0
    0.6802   -6.7130    1.0360 H   0  0  0  0  0  0  0  0  0  0  0  0
    2.9197   -7.9684    2.4832 H   0  0  0  0  0  0  0  0  0  0  0  0
    2.8601   -6.5901    1.4077 H   0  0  0  0  0  0  0  0  0  0  0  0
    1.4341   -4.3025    4.7265 H   0  0  0  0  0  0  0  0  0  0  0  0
    2.7901   -4.1686    5.7428 H   0  0  0  0  0  0  0  0  0  0  0  0
    1.4764   -2.1643    5.1860 H   0  0  0  0  0  0  0  0  0  0  0  0
    1.2771   -2.6390    2.6859 H   0  0  0  0  0  0  0  0  0  0  0  0
    1.0950   -0.9148    1.2802 H   0  0  0  0  0  0  0  0  0  0  0  0
    1.8053    1.3311    1.2938 H   0  0  0  0  0  0  0  0  0  0  0  0
    2.8060    1.1278    2.7208 H   0  0  0  0  0  0  0  0  0  0  0  0
    1.0488    1.0026    2.8357 H   0  0  0  0  0  0  0  0  0  0  0  0
    2.5011   -4.3299    1.6208 H   0  0  0  0  0  0  0  0  0  0  0  0
    3.5057   -3.9750    0.2459 H   0  0  0  0  0  0  0  0  0  0  0  0
    2.0445   -3.1280    0.5271 H   0  0  0  0  0  0  0  0  0  0  0  0
    5.5105   -3.3503    0.9274 H   0  0  0  0  0  0  0  0  0  0  0  0
    5.8448   -1.9627    1.8952 H   0  0  0  0  0  0  0  0  0  0  0  0
    6.5659   -4.0674    2.8230 H   0  0  0  0  0  0  0  0  0  0  0  0
    5.7277   -3.0753    3.8863 H   0  0  0  0  0  0  0  0  0  0  0  0
    6.2165   -5.9284    2.0038 H   0  0  0  0  0  0  0  0  0  0  0  0
    4.6951   -5.5132    1.3243 H   0  0  0  0  0  0  0  0  0  0  0  0
    4.8857   -6.9715    2.2727 H   0  0  0  0  0  0  0  0  0  0  0  0
    7.5642   -5.1051    4.4982 H   0  0  0  0  0  0  0  0  0  0  0  0
    7.2447   -5.5683    6.1313 H   0  0  0  0  0  0  0  0  0  0  0  0
    6.6191   -4.0626    5.5716 H   0  0  0  0  0  0  0  0  0  0  0  0
    4.9520   -5.3251    6.8574 H   0  0  0  0  0  0  0  0  0  0  0  0
    3.1627   -6.6642    7.3399 H   0  0  0  0  0  0  0  0  0  0  0  0
    5.7221   -9.3311    4.0939 H   0  0  0  0  0  0  0  0  0  0  0  0
    6.7761   -7.2565    3.6436 H   0  0  0  0  0  0  0  0  0  0  0  0
    6.8101   -7.5258    5.3225 H   0  0  0  0  0  0  0  0  0  0  0  0
    1.4549   -9.3589    3.6102 H   0  0  0  0  0  0  0  0  0  0  0  0
    2.0658  -10.9819    3.3142 H   0  0  0  0  0  0  0  0  0  0  0  0
    0.8908  -11.0286    5.9222 H   0  0  0  0  0  0  0  0  0  0  0  0
    3.9526  -13.2878    5.2699 H   0  0  0  0  0  0  0  0  0  0  0  0
    4.1828  -12.2163    3.8683 H   0  0  0  0  0  0  0  0  0  0  0  0
    2.5907  -12.7962    4.3128 H   0  0  0  0  0  0  0  0  0  0  0  0
    3.5227  -11.7551    7.6585 H   0  0  0  0  0  0  0  0  0  0  0  0
    4.5899  -10.4314    7.1567 H   0  0  0  0  0  0  0  0  0  0  0  0
    4.9403  -12.0428    6.6920 H   0  0  0  0  0  0  0  0  0  0  0  0
    2.0217  -10.1049    8.0336 H   0  0  0  0  0  0  0  0  0  0  0  0
    1.6900   -8.4189    7.9289 H   0  0  0  0  0  0  0  0  0  0  0  0
    3.3491   -8.9180    8.0279 H   0  0  0  0  0  0  0  0  0  0  0  0
    1.5499   -6.1529    5.4382 H   0  0  0  0  0  0  0  0  0  0  0  0
    0.1758   -8.3811    4.7788 H   0  0  0  0  0  0  0  0  0  0  0  0
   -0.7308   -5.5472    5.0733 H   0  0  0  0  0  0  0  0  0  0  0  0
   -0.4658   -6.7272    6.3542 H   0  0  0  0  0  0  0  0  0  0  0  0
   -1.7201   -7.0052    5.1508 H   0  0  0  0  0  0  0  0  0  0  0  0
    3.8674   -0.8015    3.2074 H   0  0  0  0  0  0  0  0  0  0  0  0
    3.8029    0.5137    5.1807 H   0  0  0  0  0  0  0  0  0  0  0  0
    2.7603   -0.2773    6.3573 H   0  0  0  0  0  0  0  0  0  0  0  0
    2.1086    0.2024    4.8310 H   0  0  0  0  0  0  0  0  0  0  0  0
    5.4460   -1.5360    5.4665 H   0  0  0  0  0  0  0  0  0  0  0  0
    4.6754   -3.1270    5.6472 H   0  0  0  0  0  0  0  0  0  0  0  0
    4.2435   -1.8603    6.7027 H   0  0  0  0  0  0  0  0  0  0  0  0
  1  2  1  0
  1 43  1  0
  1 44  1  0
  1 45  1  0
  2 37  1  0
  2  3  1  0
  2 46  1  1
  3  4  1  0
  3 47  1  0
  3 48  1  0
  4  5  1  0
  4 49  1  0
  4 50  1  0
  5 36  1  0
  5  6  2  3
  6 18  1  0
  6  7  1  0
  7  8  1  0
  7 51  1  0
  7 52  1  0
  8 40  1  0
  8  9  1  0
  8 53  1  1
  9 39  1  0
  9 10  1  0
  9 54  1  6
 10 11  1  0
 10 12  1  0
 10 55  1  6
 11 56  1  0
 11 57  1  0
 11 58  1  0
 12 13  2  0
 12 14  1  0
 14 15  1  6
 14 16  1  0
 14 39  1  0
 15 59  1  0
 15 60  1  0
 15 61  1  0
 16 17  1  0
 16 62  1  0
 16 63  1  0
 17 18  1  0
 17 64  1  0
 17 65  1  0
 18 19  1  6
 18 20  1  0
 19 66  1  0
 19 67  1  0
 19 68  1  0
 20 27  1  0
 20 21  1  1
 20 22  1  0
 21 69  1  0
 21 70  1  0
 21 71  1  0
 22 23  2  0
 22 72  1  0
 24 23  1  1
 23 73  1  0
 24 34  1  0
 24 25  1  0
 24 36  1  0
 25 26  2  0
 28 25  1  6
 26 27  1  0
 26 74  1  0
 27 75  1  0
 27 76  1  0
 28 31  1  0
 28 34  1  0
 28 29  1  0
 29 30  1  0
 29 77  1  0
 29 78  1  0
 30 31  1  0
 30 34  1  0
 30 79  1  6
 31 32  1  0
 31 33  1  0
 32 80  1  0
 32 81  1  0
 32 82  1  0
 33 83  1  0
 33 84  1  0
 33 85  1  0
 34 35  1  1
 35 86  1  0
 35 87  1  0
 35 88  1  0
 36 37  1  0
 36 89  1  1
 37 38  1  0
 37 90  1  1
 38 91  1  0
 38 92  1  0
 38 93  1  0
 39 40  1  0
 39 94  1  6
 40 41  1  0
 40 42  1  0
 41 95  1  0
 41 96  1  0
 41 97  1  0
 42 98  1  0
 42 99  1  0
 42100  1  0
M  END
>  <i_m_ct_stereo_status>  (37) 
1

>  <s_m_source_file>  (37) 
/var/tmp/pbs.5076255.sched01/tmpbdos_d33/0hajo06zg.sdf

>  <i_m_source_file_index>  (37) 
19

>  <i_lp_mmshare_version>  (37) 
48012

>  <i_f3d_flags>  (37) 
1

>  <s_epik_input>  (37) 
W0NIM11bQ0BIXTFDKD1PKVtDQEBdKFtDSDNdKShbQ0gyXVtDSDJdMilbQ0BIXShDMyhbQ0gzXSlbQ0gzXSlbQ0BIXTFbQ0BIXTNbQ0gyXS9DKD1DXDRbQ0BIXTVbQ0BASF0oW0NIM10pW0NASF0oW0NIM10pW0NIMl1bQ0gyXTQpW0NAXTIoW0NIM10pW0NAQF0oW0NIM10pKFtDSF09W0NIXTYpW0NIMl1bQ0hdPUMoW0NAXTU2NylbQ0BAXTg5QzcoW0NIM10pW0NAQEhdKFtDSDJdOClDOShbQ0gzXSlbQ0gzXQ==

>  <s_epik_cmdline>  (37) 
J2VwaWtfcHl0aG9uJywgJy1waHQnLCAnMi4wJywgJy1waCcsICc3LjAnLCAnLXRuJywgJzgnLCAnLW1hJywgJzIwMCcsICctaW1hZScsICc8aW5maWxlLm1hZT4nLCAnLW9tYWUnLCAnPG91dGZpbGUubWFlPic=

>  <r_lp_tautomer_probability>  (37) 
1

>  <r_epik_Ionization_Penalty>  (37) 
2.026e-14

>  <r_epik_Ionization_Penalty_Charging>  (37) 
0

>  <r_epik_Ionization_Penalty_Neutral>  (37) 
2.026e-14

>  <r_epik_State_Penalty>  (37) 
-0

>  <r_epik_Charging_Adjusted_Penalty>  (37) 
0

>  <i_epik_Tot_Q>  (37) 
0

>  <i_epik_Tot_abs_Q>  (37) 
0

>  <s_lp_Force_Field>  (37) 
OPLS3e

>  <r_lp_Energy>  (37) 
457.742

>  <b_lp_Chiralities_Consistent>  (37) 
1

>  <s_lp_Variant>  (37) 
11:0-2

>  <s_i_glide_gridfile>  (37) 
pfpi4k_grid

>  <i_i_glide_lignum>  (37) 
19

>  <i_i_glide_rotatable_bonds>  (37) 
0

>  <r_i_docking_score>  (37) 
-1.19024

>  <r_i_glide_ligand_efficiency>  (37) 
-0.028339

>  <r_i_glide_ligand_efficiency_sa>  (37) 
-0.098507

>  <r_i_glide_ligand_efficiency_ln>  (37) 
-0.251228

>  <r_i_glide_gscore>  (37) 
-1.19024

>  <r_i_glide_lipo>  (37) 
-0.102766

>  <r_i_glide_hbond>  (37) 
0

>  <r_i_glide_metal>  (37) 
-0

>  <r_i_glide_rewards>  (37) 
0

>  <r_i_glide_evdw>  (37) 
-20.183

>  <r_i_glide_ecoul>  (37) 
-0.221988

>  <r_i_glide_erotb>  (37) 
0

>  <r_i_glide_esite>  (37) 
-0.0450209

>  <r_i_glide_emodel>  (37) 
-20.938

>  <r_i_glide_energy>  (37) 
-20.405

>  <r_i_glide_einternal>  (37) 
0

>  <r_i_glide_intrahb_reward>  (37) 
-0

>  <i_i_glide_confnum>  (37) 
2

>  <i_i_glide_posenum>  (37) 
4

>  <r_i_glide_eff_state_penalty>  (37) 
0

>  <ligand_id>  (37) 
11

>  <original_smiles>  (37) 
CC1CCC2=C3CC4C5C(C)C(=O)C(C)(CCC3(C)C3(C)C=CC6(C(=CC3)C37CC(C3(C)C)C67C)C2C1C)C5C4(C)C

>  <smiles>  (37) 
[H]C1=C2C3(C([H])=C([H])C(C([H])([H])[H])(C1([H])[H])C1(C([H])([H])[H])C(=C4C([H])([H])C([H])([H])C([H])(C([H])([H])[H])C([H])(C([H])([H])[H])C43[H])C([H])([H])C3([H])C4([H])C([H])(C([H])([H])[H])C(=O)C(C([H])([H])[H])(C([H])([H])C1([H])[H])C4([H])C3(C([H])([H])[H])C([H])([H])[H])C1(C([H])([H])[H])C3([H])C([H])([H])C21C3(C([H])([H])[H])C([H])([H])[H]

$$$$
12:0:0
     RDKit          3D

 57 61  0  0  1  0  0  0  0  0999 V2000
    0.8637  -11.6634    3.2982 C   0  0  0  0  0  0  0  0  0  0  0  0
    2.2818  -11.1136    3.3443 C   0  0  0  0  0  0  0  0  0  0  0  0
    2.4293   -9.5837    3.6108 C   0  0  2  0  0  0  0  0  0  0  0  0
    1.8735   -9.1086    4.9573 C   0  0  0  0  0  0  0  0  0  0  0  0
    2.3546   -9.7267    6.1327 C   0  0  0  0  0  0  0  0  0  0  0  0
    1.8886   -9.3277    7.3997 C   0  0  0  0  0  0  0  0  0  0  0  0
    0.9447   -8.2852    7.5145 C   0  0  0  0  0  0  0  0  0  0  0  0
    0.4230   -7.8303    8.7042 O   0  0  0  0  0  0  0  0  0  0  0  0
    0.8634   -8.4379    9.9126 C   0  0  0  0  0  0  0  0  0  0  0  0
    0.4978   -7.6436    6.3429 C   0  0  0  0  0  0  0  0  0  0  0  0
    0.9382   -8.0380    5.0579 C   0  0  0  0  0  0  0  0  0  0  0  0
    0.4330   -7.2685    3.8140 C   0  0  2  0  0  0  0  0  0  0  0  0
   -1.0868   -6.9785    3.8628 C   0  0  0  0  0  0  0  0  0  0  0  0
   -1.7929   -8.2493    3.3987 C   0  0  0  0  0  0  0  0  0  0  0  0
   -0.6951   -9.0667    2.7522 C   0  0  0  0  0  0  0  0  0  0  0  0
    0.5241   -8.1367    2.5467 C   0  0  1  0  0  0  0  0  0  0  0  0
    0.2746   -7.4376    1.3241 O   0  0  0  0  0  0  0  0  0  0  0  0
    1.9813   -8.6755    2.4082 C   0  0  1  0  0  0  0  0  0  0  0  0
    2.8857   -7.4800    2.2278 N   0  0  2  0  0  0  0  0  0  0  0  0
    4.2847   -7.7985    1.8378 C   0  0  0  0  0  0  0  0  0  0  0  0
    4.9840   -6.6575    1.1141 C   0  0  0  0  0  0  0  0  0  0  0  0
    6.4949   -6.6252    1.0171 C   0  0  0  0  0  0  0  0  0  0  0  0
    5.7784   -5.6269    1.8864 C   0  0  0  0  0  0  0  0  0  0  0  0
    2.7901   -6.4572    3.3121 C   0  0  0  0  0  0  0  0  0  0  0  0
    1.3307   -6.0347    3.6095 C   0  0  0  0  0  0  0  0  0  0  0  0
    0.8133  -12.7047    3.1204 H   0  0  0  0  0  0  0  0  0  0  0  0
    0.3210  -11.2249    2.4725 H   0  0  0  0  0  0  0  0  0  0  0  0
    0.3376  -11.4918    4.2375 H   0  0  0  0  0  0  0  0  0  0  0  0
    2.8382  -11.6679    4.1036 H   0  0  0  0  0  0  0  0  0  0  0  0
    2.7692  -11.3575    2.3970 H   0  0  0  0  0  0  0  0  0  0  0  0
    3.5060   -9.4658    3.7194 H   0  0  0  0  0  0  0  0  0  0  0  0
    3.0784  -10.5220    6.0740 H   0  0  0  0  0  0  0  0  0  0  0  0
    2.2660   -9.8506    8.2606 H   0  0  0  0  0  0  0  0  0  0  0  0
    0.3654   -7.9578   10.7557 H   0  0  0  0  0  0  0  0  0  0  0  0
    1.9377   -8.3199   10.0590 H   0  0  0  0  0  0  0  0  0  0  0  0
    0.6103   -9.4978    9.9422 H   0  0  0  0  0  0  0  0  0  0  0  0
   -0.1917   -6.8273    6.4541 H   0  0  0  0  0  0  0  0  0  0  0  0
   -1.4743   -6.5793    4.7971 H   0  0  0  0  0  0  0  0  0  0  0  0
   -1.3127   -6.2584    3.0876 H   0  0  0  0  0  0  0  0  0  0  0  0
   -2.1891   -8.7906    4.2560 H   0  0  0  0  0  0  0  0  0  0  0  0
   -2.6157   -8.0645    2.7103 H   0  0  0  0  0  0  0  0  0  0  0  0
   -0.4974   -9.7866    3.5296 H   0  0  0  0  0  0  0  0  0  0  0  0
   -1.0272   -9.6080    1.8632 H   0  0  0  0  0  0  0  0  0  0  0  0
    0.1704   -8.1056    0.6557 H   0  0  0  0  0  0  0  0  0  0  0  0
    2.0687   -9.2651    1.4918 H   0  0  0  0  0  0  0  0  0  0  0  0
    4.8790   -8.0605    2.7235 H   0  0  0  0  0  0  0  0  0  0  0  0
    4.3034   -8.6733    1.1802 H   0  0  0  0  0  0  0  0  0  0  0  0
    4.4583   -6.3095    0.2211 H   0  0  0  0  0  0  0  0  0  0  0  0
    7.0623   -7.4104    1.5169 H   0  0  0  0  0  0  0  0  0  0  0  0
    6.9496   -6.2341    0.1116 H   0  0  0  0  0  0  0  0  0  0  0  0
    5.7257   -4.5965    1.5406 H   0  0  0  0  0  0  0  0  0  0  0  0
    5.8389   -5.7550    2.9682 H   0  0  0  0  0  0  0  0  0  0  0  0
    3.2794   -6.8320    4.2188 H   0  0  0  0  0  0  0  0  0  0  0  0
    3.3413   -5.5573    3.0332 H   0  0  0  0  0  0  0  0  0  0  0  0
    0.9613   -5.4208    2.7852 H   0  0  0  0  0  0  0  0  0  0  0  0
    1.3004   -5.4000    4.4954 H   0  0  0  0  0  0  0  0  0  0  0  0
    2.4856   -7.0167    1.4098 H   0  0  0  0  0  0  0  0  0  0  0  0
  1  2  1  0
  1 26  1  0
  1 27  1  0
  1 28  1  0
  2  3  1  0
  2 29  1  0
  2 30  1  0
  3 18  1  0
  3  4  1  0
  3 31  1  1
  4 11  2  0
  4  5  1  0
  5  6  2  0
  5 32  1  0
  6  7  1  0
  6 33  1  0
  7  8  1  0
  7 10  2  0
  8  9  1  0
  9 34  1  0
  9 35  1  0
  9 36  1  0
 10 11  1  0
 10 37  1  0
 11 12  1  0
 12 16  1  0
 12 25  1  6
 12 13  1  0
 13 14  1  0
 13 38  1  0
 13 39  1  0
 14 15  1  0
 14 40  1  0
 14 41  1  0
 15 16  1  0
 15 42  1  0
 15 43  1  0
 16 17  1  6
 16 18  1  0
 17 44  1  0
 18 19  1  0
 18 45  1  6
 19 20  1  0
 19 24  1  0
 19 57  1  6
 20 21  1  0
 20 46  1  0
 20 47  1  0
 21 23  1  0
 21 22  1  0
 21 48  1  0
 22 23  1  0
 22 49  1  0
 22 50  1  0
 23 51  1  0
 23 52  1  0
 24 25  1  0
 24 53  1  0
 24 54  1  0
 25 55  1  0
 25 56  1  0
M  CHG  1  19   1
M  END
>  <i_m_ct_stereo_status>  (38) 
1

>  <s_m_source_file>  (38) 
/var/tmp/pbs.5076255.sched01/tmpbdos_d33/0hajo06zg.sdf

>  <i_m_source_file_index>  (38) 
20

>  <i_lp_mmshare_version>  (38) 
48012

>  <i_f3d_flags>  (38) 
0

>  <s_epik_input>  (38) 
W0NIMl0xW0NIMl1bQ0hdMVtDSDJdTihbQ0gyXVtDSDJdMilbQ0BIXShbQ0BAXTMoW09IXSlbQ0gyXVtDSDJdW0NIMl00KVtDQEhdKFtDSDJdW0NIM10pYyhjNVtDQEBdMjM0KVtjSF1bY0hdYyhbY0hdNSlPW0NIM10=

>  <s_epik_cmdline>  (38) 
J2VwaWtfcHl0aG9uJywgJy1waHQnLCAnMi4wJywgJy1waCcsICc3LjAnLCAnLXRuJywgJzgnLCAnLW1hJywgJzIwMCcsICctaW1hZScsICc8aW5maWxlLm1hZT4nLCAnLW9tYWUnLCAnPG91dGZpbGUubWFlPic=

>  <r_lp_tautomer_probability>  (38) 
1

>  <r_epik_Ionization_Penalty>  (38) 
0.0114693

>  <r_epik_Ionization_Penalty_Charging>  (38) 
0.0114693

>  <r_epik_Ionization_Penalty_Neutral>  (38) 
1.72746e-08

>  <r_epik_State_Penalty>  (38) 
0.00882818

>  <r_epik_Charging_Adjusted_Penalty>  (38) 
0.0202975

>  <i_epik_Tot_Q>  (38) 
1

>  <i_epik_Tot_abs_Q>  (38) 
1

>  <s_lp_Force_Field>  (38) 
OPLS3e

>  <r_lp_Energy>  (38) 
69.414

>  <b_lp_Chiralities_Consistent>  (38) 
1

>  <s_lp_Variant>  (38) 
12:0-1

>  <s_i_glide_gridfile>  (38) 
pfpi4k_grid

>  <i_i_glide_lignum>  (38) 
20

>  <i_i_glide_rotatable_bonds>  (38) 
5

>  <r_i_docking_score>  (38) 
-3.36635

>  <r_i_glide_ligand_efficiency>  (38) 
-0.134654

>  <r_i_glide_ligand_efficiency_sa>  (38) 
-0.393731

>  <r_i_glide_ligand_efficiency_ln>  (38) 
-0.797926

>  <r_i_glide_gscore>  (38) 
-3.36635

>  <r_i_glide_lipo>  (38) 
-0.368893

>  <r_i_glide_hbond>  (38) 
-0.32

>  <r_i_glide_metal>  (38) 
-0

>  <r_i_glide_rewards>  (38) 
-1.0739

>  <r_i_glide_evdw>  (38) 
-21.0303

>  <r_i_glide_ecoul>  (38) 
-5.82566

>  <r_i_glide_erotb>  (38) 
0.323321

>  <r_i_glide_esite>  (38) 
-0.00151829

>  <r_i_glide_emodel>  (38) 
-33.0994

>  <r_i_glide_energy>  (38) 
-26.8559

>  <r_i_glide_einternal>  (38) 
1.43462

>  <r_i_glide_intrahb_reward>  (38) 
-0

>  <i_i_glide_confnum>  (38) 
1

>  <i_i_glide_posenum>  (38) 
11

>  <r_i_glide_eff_state_penalty>  (38) 
0

>  <ligand_id>  (38) 
12

>  <original_smiles>  (38) 
CCC1c2ccc(OC)cc2C23CCCC2(O)C1N(CC1CC1)CC3

>  <smiles>  (38) 
[H]OC12C([H])([H])C([H])([H])C([H])([H])C13c1c([H])c(OC([H])([H])[H])c([H])c([H])c1C([H])(C([H])([H])C([H])([H])[H])C2([H])[N+]([H])(C([H])([H])C1([H])C([H])([H])C1([H])[H])C([H])([H])C3([H])[H]

$$$$
12:0:1
     RDKit          3D

 57 61  0  0  1  0  0  0  0  0999 V2000
    1.0996  -11.4634    4.5746 C   0  0  0  0  0  0  0  0  0  0  0  0
    2.4597  -10.7695    4.4111 C   0  0  0  0  0  0  0  0  0  0  0  0
    2.4970   -9.2031    4.4178 C   0  0  2  0  0  0  0  0  0  0  0  0
    1.8621   -8.5351    5.6402 C   0  0  0  0  0  0  0  0  0  0  0  0
    2.3295   -8.8948    6.9215 C   0  0  0  0  0  0  0  0  0  0  0  0
    1.7700   -8.2946    8.0717 C   0  0  0  0  0  0  0  0  0  0  0  0
    0.7709   -7.3104    7.9542 C   0  0  0  0  0  0  0  0  0  0  0  0
    0.2516   -6.7263    9.0853 O   0  0  0  0  0  0  0  0  0  0  0  0
   -0.5419   -5.5472    8.9365 C   0  0  0  0  0  0  0  0  0  0  0  0
    0.3382   -6.9358    6.6551 C   0  0  0  0  0  0  0  0  0  0  0  0
    0.8643   -7.5327    5.5158 C   0  0  0  0  0  0  0  0  0  0  0  0
    0.3370   -7.0337    4.1429 C   0  0  2  0  0  0  0  0  0  0  0  0
   -1.1997   -6.8353    4.0993 C   0  0  0  0  0  0  0  0  0  0  0  0
   -1.7983   -8.2202    3.8547 C   0  0  0  0  0  0  0  0  0  0  0  0
   -0.6218   -9.0627    3.4118 C   0  0  0  0  0  0  0  0  0  0  0  0
    0.5262   -8.0973    3.0516 C   0  0  1  0  0  0  0  0  0  0  0  0
    0.2806   -7.6411    1.7146 O   0  0  0  0  0  0  0  0  0  0  0  0
    2.0218   -8.5441    3.0615 C   0  0  1  0  0  0  0  0  0  0  0  0
    2.8504   -7.3248    2.6946 N   0  0  2  0  0  0  0  0  0  0  0  0
    4.2835   -7.5916    2.3881 C   0  0  0  0  0  0  0  0  0  0  0  0
    4.9510   -6.4973    1.5595 C   0  0  0  0  0  0  0  0  0  0  0  0
    5.0201   -6.6271    0.0678 C   0  0  0  0  0  0  0  0  0  0  0  0
    6.2740   -6.7628    0.8983 C   0  0  0  0  0  0  0  0  0  0  0  0
    2.6355   -6.1371    3.5863 C   0  0  0  0  0  0  0  0  0  0  0  0
    1.1419   -5.7901    3.7532 C   0  0  0  0  0  0  0  0  0  0  0  0
    1.2090  -12.5541    4.6974 H   0  0  0  0  0  0  0  0  0  0  0  0
    0.4696  -11.2293    3.7065 H   0  0  0  0  0  0  0  0  0  0  0  0
    0.5931  -11.0915    5.4549 H   0  0  0  0  0  0  0  0  0  0  0  0
    3.1174  -11.0999    5.2120 H   0  0  0  0  0  0  0  0  0  0  0  0
    2.9183  -11.1134    3.4826 H   0  0  0  0  0  0  0  0  0  0  0  0
    3.5609   -8.9817    4.5283 H   0  0  0  0  0  0  0  0  0  0  0  0
    3.1072   -9.6210    7.0303 H   0  0  0  0  0  0  0  0  0  0  0  0
    2.1251   -8.5831    9.0507 H   0  0  0  0  0  0  0  0  0  0  0  0
   -0.9105   -5.1604    9.8883 H   0  0  0  0  0  0  0  0  0  0  0  0
   -1.4182   -5.7262    8.3241 H   0  0  0  0  0  0  0  0  0  0  0  0
    0.0468   -4.7708    8.4578 H   0  0  0  0  0  0  0  0  0  0  0  0
   -0.4006   -6.1730    6.4931 H   0  0  0  0  0  0  0  0  0  0  0  0
   -1.6590   -6.3255    4.9508 H   0  0  0  0  0  0  0  0  0  0  0  0
   -1.4633   -6.2581    3.2136 H   0  0  0  0  0  0  0  0  0  0  0  0
   -2.1814   -8.6133    4.7965 H   0  0  0  0  0  0  0  0  0  0  0  0
   -2.6125   -8.2179    3.1394 H   0  0  0  0  0  0  0  0  0  0  0  0
   -0.3846   -9.6102    4.3197 H   0  0  0  0  0  0  0  0  0  0  0  0
   -0.8754   -9.7820    2.6623 H   0  0  0  0  0  0  0  0  0  0  0  0
    0.1945   -8.4199    1.1790 H   0  0  0  0  0  0  0  0  0  0  0  0
    2.1964   -9.2729    2.2684 H   0  0  0  0  0  0  0  0  0  0  0  0
    4.8681   -7.7153    3.3162 H   0  0  0  0  0  0  0  0  0  0  0  0
    4.3636   -8.5477    1.8432 H   0  0  0  0  0  0  0  0  0  0  0  0
    4.8815   -5.4966    1.9868 H   0  0  0  0  0  0  0  0  0  0  0  0
    4.6050   -7.5297   -0.3751 H   0  0  0  0  0  0  0  0  0  0  0  0
    4.8920   -5.7135   -0.5046 H   0  0  0  0  0  0  0  0  0  0  0  0
    6.9794   -5.9458    0.8390 H   0  0  0  0  0  0  0  0  0  0  0  0
    6.7154   -7.7526    0.9950 H   0  0  0  0  0  0  0  0  0  0  0  0
    3.1217   -6.3175    4.5557 H   0  0  0  0  0  0  0  0  0  0  0  0
    3.1167   -5.2516    3.1725 H   0  0  0  0  0  0  0  0  0  0  0  0
    0.7659   -5.3551    2.8249 H   0  0  0  0  0  0  0  0  0  0  0  0
    1.0438   -5.0139    4.5148 H   0  0  0  0  0  0  0  0  0  0  0  0
    2.4452   -7.0496    1.8005 H   0  0  0  0  0  0  0  0  0  0  0  0
  1  2  1  0
  1 26  1  0
  1 27  1  0
  1 28  1  0
  2  3  1  0
  2 29  1  0
  2 30  1  0
  3 18  1  0
  3  4  1  0
  3 31  1  1
  4 11  2  0
  4  5  1  0
  5  6  2  0
  5 32  1  0
  6  7  1  0
  6 33  1  0
  7  8  1  0
  7 10  2  0
  8  9  1  0
  9 34  1  0
  9 35  1  0
  9 36  1  0
 10 11  1  0
 10 37  1  0
 11 12  1  0
 12 16  1  0
 12 25  1  6
 12 13  1  0
 13 14  1  0
 13 38  1  0
 13 39  1  0
 14 15  1  0
 14 40  1  0
 14 41  1  0
 15 16  1  0
 15 42  1  0
 15 43  1  0
 16 17  1  6
 16 18  1  0
 17 44  1  0
 18 19  1  0
 18 45  1  6
 19 20  1  0
 19 24  1  0
 19 57  1  6
 20 21  1  0
 20 46  1  0
 20 47  1  0
 21 23  1  0
 21 22  1  0
 21 48  1  0
 22 23  1  0
 22 49  1  0
 22 50  1  0
 23 51  1  0
 23 52  1  0
 24 25  1  0
 24 53  1  0
 24 54  1  0
 25 55  1  0
 25 56  1  0
M  CHG  1  19   1
M  END
>  <i_m_ct_stereo_status>  (39) 
1

>  <s_m_source_file>  (39) 
/var/tmp/pbs.5076255.sched01/tmpbdos_d33/0hajo06zg.sdf

>  <i_m_source_file_index>  (39) 
20

>  <i_lp_mmshare_version>  (39) 
48012

>  <i_f3d_flags>  (39) 
0

>  <s_epik_input>  (39) 
W0NIMl0xW0NIMl1bQ0hdMVtDSDJdTihbQ0gyXVtDSDJdMilbQ0BIXShbQ0BAXTMoW09IXSlbQ0gyXVtDSDJdW0NIMl00KVtDQEhdKFtDSDJdW0NIM10pYyhjNVtDQEBdMjM0KVtjSF1bY0hdYyhbY0hdNSlPW0NIM10=

>  <s_epik_cmdline>  (39) 
J2VwaWtfcHl0aG9uJywgJy1waHQnLCAnMi4wJywgJy1waCcsICc3LjAnLCAnLXRuJywgJzgnLCAnLW1hJywgJzIwMCcsICctaW1hZScsICc8aW5maWxlLm1hZT4nLCAnLW9tYWUnLCAnPG91dGZpbGUubWFlPic=

>  <r_lp_tautomer_probability>  (39) 
1

>  <r_epik_Ionization_Penalty>  (39) 
0.0114693

>  <r_epik_Ionization_Penalty_Charging>  (39) 
0.0114693

>  <r_epik_Ionization_Penalty_Neutral>  (39) 
1.72746e-08

>  <r_epik_State_Penalty>  (39) 
0.00882818

>  <r_epik_Charging_Adjusted_Penalty>  (39) 
0.0202975

>  <i_epik_Tot_Q>  (39) 
1

>  <i_epik_Tot_abs_Q>  (39) 
1

>  <s_lp_Force_Field>  (39) 
OPLS3e

>  <r_lp_Energy>  (39) 
69.414

>  <b_lp_Chiralities_Consistent>  (39) 
1

>  <s_lp_Variant>  (39) 
12:0-1

>  <s_i_glide_gridfile>  (39) 
pfpi4k_grid

>  <i_i_glide_lignum>  (39) 
20

>  <i_i_glide_rotatable_bonds>  (39) 
5

>  <r_i_docking_score>  (39) 
-3.27989

>  <r_i_glide_ligand_efficiency>  (39) 
-0.131196

>  <r_i_glide_ligand_efficiency_sa>  (39) 
-0.383618

>  <r_i_glide_ligand_efficiency_ln>  (39) 
-0.777432

>  <r_i_glide_gscore>  (39) 
-3.27989

>  <r_i_glide_lipo>  (39) 
-0.22731

>  <r_i_glide_hbond>  (39) 
-0.495623

>  <r_i_glide_metal>  (39) 
-0

>  <r_i_glide_rewards>  (39) 
-1.0739

>  <r_i_glide_evdw>  (39) 
-20.1796

>  <r_i_glide_ecoul>  (39) 
-5.30094

>  <r_i_glide_erotb>  (39) 
0.323321

>  <r_i_glide_esite>  (39) 
-0.0022609

>  <r_i_glide_emodel>  (39) 
-29.1381

>  <r_i_glide_energy>  (39) 
-25.4805

>  <r_i_glide_einternal>  (39) 
5.54947

>  <r_i_glide_intrahb_reward>  (39) 
-0

>  <i_i_glide_confnum>  (39) 
1

>  <i_i_glide_posenum>  (39) 
33

>  <r_i_glide_eff_state_penalty>  (39) 
0

>  <ligand_id>  (39) 
12

>  <original_smiles>  (39) 
CCC1c2ccc(OC)cc2C23CCCC2(O)C1N(CC1CC1)CC3

>  <smiles>  (39) 
[H]OC12C([H])([H])C([H])([H])C([H])([H])C13c1c([H])c(OC([H])([H])[H])c([H])c([H])c1C([H])(C([H])([H])C([H])([H])[H])C2([H])[N+]([H])(C([H])([H])C1([H])C([H])([H])C1([H])[H])C([H])([H])C3([H])[H]

$$$$
12:0:2
     RDKit          3D

 57 61  0  0  1  0  0  0  0  0999 V2000
    4.1843   -9.2669    5.6696 C   0  0  0  0  0  0  0  0  0  0  0  0
    4.7466   -8.0517    4.9257 C   0  0  0  0  0  0  0  0  0  0  0  0
    3.7789   -7.2539    3.9883 C   0  0  2  0  0  0  0  0  0  0  0  0
    2.4713   -6.7921    4.6474 C   0  0  0  0  0  0  0  0  0  0  0  0
    2.5659   -6.0088    5.8174 C   0  0  0  0  0  0  0  0  0  0  0  0
    1.4032   -5.5529    6.4678 C   0  0  0  0  0  0  0  0  0  0  0  0
    0.1278   -5.8559    5.9401 C   0  0  0  0  0  0  0  0  0  0  0  0
   -1.0586   -5.4467    6.4918 O   0  0  0  0  0  0  0  0  0  0  0  0
   -1.0335   -4.7556    7.7353 C   0  0  0  0  0  0  0  0  0  0  0  0
    0.0416   -6.6158    4.7558 C   0  0  0  0  0  0  0  0  0  0  0  0
    1.1934   -7.0897    4.0963 C   0  0  0  0  0  0  0  0  0  0  0  0
    1.0321   -7.8889    2.7753 C   0  0  2  0  0  0  0  0  0  0  0  0
   -0.1063   -8.9410    2.8168 C   0  0  0  0  0  0  0  0  0  0  0  0
    0.4640  -10.1732    3.5411 C   0  0  0  0  0  0  0  0  0  0  0  0
    1.9599   -9.9449    3.5263 C   0  0  0  0  0  0  0  0  0  0  0  0
    2.2512   -8.7933    2.5548 C   0  0  1  0  0  0  0  0  0  0  0  0
    2.2723   -9.3952    1.2773 O   0  0  0  0  0  0  0  0  0  0  0  0
    3.5485   -7.9382    2.5993 C   0  0  1  0  0  0  0  0  0  0  0  0
    3.4775   -6.9270    1.4620 N   0  0  2  0  0  0  0  0  0  0  0  0
    4.7294   -6.1644    1.2006 C   0  0  0  0  0  0  0  0  0  0  0  0
    4.7502   -5.4640   -0.1482 C   0  0  0  0  0  0  0  0  0  0  0  0
    5.6870   -4.3115   -0.3882 C   0  0  0  0  0  0  0  0  0  0  0  0
    4.2010   -4.0734   -0.2929 C   0  0  0  0  0  0  0  0  0  0  0  0
    2.2433   -6.0716    1.4869 C   0  0  0  0  0  0  0  0  0  0  0  0
    0.9468   -6.8927    1.6108 C   0  0  0  0  0  0  0  0  0  0  0  0
    4.8988   -9.7283    6.3526 H   0  0  0  0  0  0  0  0  0  0  0  0
    3.9651  -10.0377    4.9442 H   0  0  0  0  0  0  0  0  0  0  0  0
    3.2895   -8.9987    6.2313 H   0  0  0  0  0  0  0  0  0  0  0  0
    5.1434   -7.3613    5.6730 H   0  0  0  0  0  0  0  0  0  0  0  0
    5.6111   -8.3853    4.3463 H   0  0  0  0  0  0  0  0  0  0  0  0
    4.3236   -6.3271    3.8145 H   0  0  0  0  0  0  0  0  0  0  0  0
    3.5294   -5.7498    6.2260 H   0  0  0  0  0  0  0  0  0  0  0  0
    1.5186   -4.9650    7.3635 H   0  0  0  0  0  0  0  0  0  0  0  0
   -2.0563   -4.5166    8.0321 H   0  0  0  0  0  0  0  0  0  0  0  0
   -0.4858   -3.8147    7.6615 H   0  0  0  0  0  0  0  0  0  0  0  0
   -0.5984   -5.3676    8.5275 H   0  0  0  0  0  0  0  0  0  0  0  0
   -0.9411   -6.8179    4.3587 H   0  0  0  0  0  0  0  0  0  0  0  0
   -1.0509   -8.6031    3.2442 H   0  0  0  0  0  0  0  0  0  0  0  0
   -0.3345   -9.2769    1.8034 H   0  0  0  0  0  0  0  0  0  0  0  0
    0.1159  -10.2038    4.5792 H   0  0  0  0  0  0  0  0  0  0  0  0
    0.1826  -11.1242    3.0842 H   0  0  0  0  0  0  0  0  0  0  0  0
    2.0759   -9.6033    4.5303 H   0  0  0  0  0  0  0  0  0  0  0  0
    2.5415  -10.8406    3.3762 H   0  0  0  0  0  0  0  0  0  0  0  0
    1.4566   -9.8558    1.1371 H   0  0  0  0  0  0  0  0  0  0  0  0
    4.4137   -8.5642    2.3662 H   0  0  0  0  0  0  0  0  0  0  0  0
    4.8837   -5.4026    1.9745 H   0  0  0  0  0  0  0  0  0  0  0  0
    5.5896   -6.8435    1.2613 H   0  0  0  0  0  0  0  0  0  0  0  0
    4.6168   -6.1455   -0.9851 H   0  0  0  0  0  0  0  0  0  0  0  0
    6.3038   -3.9543    0.4387 H   0  0  0  0  0  0  0  0  0  0  0  0
    6.1229   -4.1870   -1.3741 H   0  0  0  0  0  0  0  0  0  0  0  0
    3.6581   -3.8505   -1.2073 H   0  0  0  0  0  0  0  0  0  0  0  0
    3.8150   -3.5944    0.6071 H   0  0  0  0  0  0  0  0  0  0  0  0
    2.3358   -5.3335    2.2895 H   0  0  0  0  0  0  0  0  0  0  0  0
    2.1784   -5.4943    0.5673 H   0  0  0  0  0  0  0  0  0  0  0  0
    0.7580   -7.4092    0.6713 H   0  0  0  0  0  0  0  0  0  0  0  0
    0.1031   -6.2293    1.7641 H   0  0  0  0  0  0  0  0  0  0  0  0
    3.3564   -7.5257    0.6429 H   0  0  0  0  0  0  0  0  0  0  0  0
  1  2  1  0
  1 26  1  0
  1 27  1  0
  1 28  1  0
  2  3  1  0
  2 29  1  0
  2 30  1  0
  3 18  1  0
  3  4  1  0
  3 31  1  6
  4 11  2  0
  4  5  1  0
  5  6  2  0
  5 32  1  0
  6  7  1  0
  6 33  1  0
  7  8  1  0
  7 10  2  0
  8  9  1  0
  9 34  1  0
  9 35  1  0
  9 36  1  0
 10 11  1  0
 10 37  1  0
 11 12  1  0
 12 16  1  0
 12 25  1  6
 12 13  1  0
 13 14  1  0
 13 38  1  0
 13 39  1  0
 14 15  1  0
 14 40  1  0
 14 41  1  0
 15 16  1  0
 15 42  1  0
 15 43  1  0
 16 17  1  6
 16 18  1  0
 17 44  1  0
 18 19  1  0
 18 45  1  6
 19 20  1  0
 19 24  1  0
 19 57  1  6
 20 21  1  0
 20 46  1  0
 20 47  1  0
 21 23  1  0
 21 22  1  0
 21 48  1  0
 22 23  1  0
 22 49  1  0
 22 50  1  0
 23 51  1  0
 23 52  1  0
 24 25  1  0
 24 53  1  0
 24 54  1  0
 25 55  1  0
 25 56  1  0
M  CHG  1  19   1
M  END
>  <i_m_ct_stereo_status>  (40) 
1

>  <s_m_source_file>  (40) 
/var/tmp/pbs.5076255.sched01/tmpbdos_d33/0hajo06zg.sdf

>  <i_m_source_file_index>  (40) 
20

>  <i_lp_mmshare_version>  (40) 
48012

>  <i_f3d_flags>  (40) 
0

>  <s_epik_input>  (40) 
W0NIMl0xW0NIMl1bQ0hdMVtDSDJdTihbQ0gyXVtDSDJdMilbQ0BIXShbQ0BAXTMoW09IXSlbQ0gyXVtDSDJdW0NIMl00KVtDQEhdKFtDSDJdW0NIM10pYyhjNVtDQEBdMjM0KVtjSF1bY0hdYyhbY0hdNSlPW0NIM10=

>  <s_epik_cmdline>  (40) 
J2VwaWtfcHl0aG9uJywgJy1waHQnLCAnMi4wJywgJy1waCcsICc3LjAnLCAnLXRuJywgJzgnLCAnLW1hJywgJzIwMCcsICctaW1hZScsICc8aW5maWxlLm1hZT4nLCAnLW9tYWUnLCAnPG91dGZpbGUubWFlPic=

>  <r_lp_tautomer_probability>  (40) 
1

>  <r_epik_Ionization_Penalty>  (40) 
0.0114693

>  <r_epik_Ionization_Penalty_Charging>  (40) 
0.0114693

>  <r_epik_Ionization_Penalty_Neutral>  (40) 
1.72746e-08

>  <r_epik_State_Penalty>  (40) 
0.00882818

>  <r_epik_Charging_Adjusted_Penalty>  (40) 
0.0202975

>  <i_epik_Tot_Q>  (40) 
1

>  <i_epik_Tot_abs_Q>  (40) 
1

>  <s_lp_Force_Field>  (40) 
OPLS3e

>  <r_lp_Energy>  (40) 
69.414

>  <b_lp_Chiralities_Consistent>  (40) 
1

>  <s_lp_Variant>  (40) 
12:0-1

>  <s_i_glide_gridfile>  (40) 
pfpi4k_grid

>  <i_i_glide_lignum>  (40) 
20

>  <i_i_glide_rotatable_bonds>  (40) 
5

>  <r_i_docking_score>  (40) 
-2.48638

>  <r_i_glide_ligand_efficiency>  (40) 
-0.0994553

>  <r_i_glide_ligand_efficiency_sa>  (40) 
-0.290809

>  <r_i_glide_ligand_efficiency_ln>  (40) 
-0.589347

>  <r_i_glide_gscore>  (40) 
-2.48638

>  <r_i_glide_lipo>  (40) 
-0.14364

>  <r_i_glide_hbond>  (40) 
-0.217968

>  <r_i_glide_metal>  (40) 
-0

>  <r_i_glide_rewards>  (40) 
-1.0739

>  <r_i_glide_evdw>  (40) 
-18.5676

>  <r_i_glide_ecoul>  (40) 
-2.97213

>  <r_i_glide_erotb>  (40) 
0.323321

>  <r_i_glide_esite>  (40) 
0

>  <r_i_glide_emodel>  (40) 
-25.9472

>  <r_i_glide_energy>  (40) 
-21.5397

>  <r_i_glide_einternal>  (40) 
1.57368

>  <r_i_glide_intrahb_reward>  (40) 
-0

>  <i_i_glide_confnum>  (40) 
1

>  <i_i_glide_posenum>  (40) 
21

>  <r_i_glide_eff_state_penalty>  (40) 
0

>  <ligand_id>  (40) 
12

>  <original_smiles>  (40) 
CCC1c2ccc(OC)cc2C23CCCC2(O)C1N(CC1CC1)CC3

>  <smiles>  (40) 
[H]OC12C([H])([H])C([H])([H])C([H])([H])C13c1c([H])c(OC([H])([H])[H])c([H])c([H])c1C([H])(C([H])([H])C([H])([H])[H])C2([H])[N+]([H])(C([H])([H])C1([H])C([H])([H])C1([H])[H])C([H])([H])C3([H])[H]

$$$$
12:1:0
     RDKit          3D

 56 60  0  0  1  0  0  0  0  0999 V2000
    0.6972  -12.0589    4.6496 C   0  0  0  0  0  0  0  0  0  0  0  0
    1.1217  -11.3309    3.3642 C   0  0  0  0  0  0  0  0  0  0  0  0
    1.9937  -10.0376    3.4992 C   0  0  2  0  0  0  0  0  0  0  0  0
    1.8156   -9.2471    4.8115 C   0  0  0  0  0  0  0  0  0  0  0  0
    2.1583   -9.8668    6.0290 C   0  0  0  0  0  0  0  0  0  0  0  0
    1.9267   -9.2205    7.2521 C   0  0  0  0  0  0  0  0  0  0  0  0
    1.4679   -7.8879    7.2930 C   0  0  0  0  0  0  0  0  0  0  0  0
    1.2513   -7.1832    8.4546 O   0  0  0  0  0  0  0  0  0  0  0  0
    1.5134   -7.8416    9.6842 C   0  0  0  0  0  0  0  0  0  0  0  0
    1.2207   -7.2236    6.0724 C   0  0  0  0  0  0  0  0  0  0  0  0
    1.3649   -7.8915    4.8277 C   0  0  0  0  0  0  0  0  0  0  0  0
    1.1012   -7.1285    3.5148 C   0  0  2  0  0  0  0  0  0  0  0  0
   -0.1743   -6.2664    3.5689 C   0  0  0  0  0  0  0  0  0  0  0  0
   -1.3417   -7.2320    3.2822 C   0  0  0  0  0  0  0  0  0  0  0  0
   -0.6993   -8.5136    2.7080 C   0  0  0  0  0  0  0  0  0  0  0  0
    0.7445   -8.0956    2.3652 C   0  0  1  0  0  0  0  0  0  0  0  0
    0.5945   -7.4421    1.0991 O   0  0  0  0  0  0  0  0  0  0  0  0
    1.8850   -9.1409    2.2253 C   0  0  1  0  0  0  0  0  0  0  0  0
    3.1358   -8.4170    1.8487 N   0  0  0  0  0  0  0  0  0  0  0  0
    4.2370   -9.3012    1.4509 C   0  0  0  0  0  0  0  0  0  0  0  0
    5.5357   -8.6011    1.0998 C   0  0  0  0  0  0  0  0  0  0  0  0
    6.7927   -9.4135    0.8796 C   0  0  0  0  0  0  0  0  0  0  0  0
    6.6614   -8.5585    2.1139 C   0  0  0  0  0  0  0  0  0  0  0  0
    3.5258   -7.3528    2.7922 C   0  0  0  0  0  0  0  0  0  0  0  0
    2.3860   -6.3651    3.1267 C   0  0  0  0  0  0  0  0  0  0  0  0
    0.0303  -12.8952    4.4587 H   0  0  0  0  0  0  0  0  0  0  0  0
    0.1710  -11.3783    5.3261 H   0  0  0  0  0  0  0  0  0  0  0  0
    1.5712  -12.4240    5.1886 H   0  0  0  0  0  0  0  0  0  0  0  0
    1.6736  -12.0524    2.7602 H   0  0  0  0  0  0  0  0  0  0  0  0
    0.2196  -11.1286    2.7911 H   0  0  0  0  0  0  0  0  0  0  0  0
    3.0093  -10.4178    3.5841 H   0  0  0  0  0  0  0  0  0  0  0  0
    2.5634  -10.8694    6.0427 H   0  0  0  0  0  0  0  0  0  0  0  0
    2.1098   -9.7872    8.1471 H   0  0  0  0  0  0  0  0  0  0  0  0
    1.3226   -7.1492   10.5040 H   0  0  0  0  0  0  0  0  0  0  0  0
    2.5507   -8.1700    9.7675 H   0  0  0  0  0  0  0  0  0  0  0  0
    0.8594   -8.7017    9.8175 H   0  0  0  0  0  0  0  0  0  0  0  0
    0.9231   -6.1930    6.1080 H   0  0  0  0  0  0  0  0  0  0  0  0
   -0.3093   -5.6811    4.4768 H   0  0  0  0  0  0  0  0  0  0  0  0
   -0.1014   -5.5466    2.7543 H   0  0  0  0  0  0  0  0  0  0  0  0
   -1.8939   -7.4626    4.1958 H   0  0  0  0  0  0  0  0  0  0  0  0
   -2.0435   -6.7984    2.5694 H   0  0  0  0  0  0  0  0  0  0  0  0
   -0.7153   -9.2691    3.4921 H   0  0  0  0  0  0  0  0  0  0  0  0
   -1.2540   -8.9206    1.8601 H   0  0  0  0  0  0  0  0  0  0  0  0
    0.4095   -8.1231    0.4624 H   0  0  0  0  0  0  0  0  0  0  0  0
    1.6514   -9.7966    1.3841 H   0  0  0  0  0  0  0  0  0  0  0  0
    4.4584  -10.0383    2.2224 H   0  0  0  0  0  0  0  0  0  0  0  0
    3.9253   -9.8521    0.5633 H   0  0  0  0  0  0  0  0  0  0  0  0
    5.4136   -7.7148    0.4738 H   0  0  0  0  0  0  0  0  0  0  0  0
    6.7166  -10.4937    0.9939 H   0  0  0  0  0  0  0  0  0  0  0  0
    7.4907   -9.0745    0.1184 H   0  0  0  0  0  0  0  0  0  0  0  0
    7.2535   -7.6463    2.1644 H   0  0  0  0  0  0  0  0  0  0  0  0
    6.5031   -9.0636    3.0678 H   0  0  0  0  0  0  0  0  0  0  0  0
    3.9365   -7.7909    3.7010 H   0  0  0  0  0  0  0  0  0  0  0  0
    4.3306   -6.7503    2.3583 H   0  0  0  0  0  0  0  0  0  0  0  0
    2.2144   -5.7221    2.2612 H   0  0  0  0  0  0  0  0  0  0  0  0
    2.6965   -5.7015    3.9322 H   0  0  0  0  0  0  0  0  0  0  0  0
  1  2  1  0
  1 26  1  0
  1 27  1  0
  1 28  1  0
  2  3  1  0
  2 29  1  0
  2 30  1  0
  3 18  1  0
  3  4  1  0
  3 31  1  1
  4 11  2  0
  4  5  1  0
  5  6  2  0
  5 32  1  0
  6  7  1  0
  6 33  1  0
  7  8  1  0
  7 10  2  0
  8  9  1  0
  9 34  1  0
  9 35  1  0
  9 36  1  0
 10 11  1  0
 10 37  1  0
 11 12  1  0
 12 16  1  0
 12 25  1  6
 12 13  1  0
 13 14  1  0
 13 38  1  0
 13 39  1  0
 14 15  1  0
 14 40  1  0
 14 41  1  0
 15 16  1  0
 15 42  1  0
 15 43  1  0
 16 17  1  6
 16 18  1  0
 17 44  1  0
 18 19  1  0
 18 45  1  6
 19 20  1  0
 19 24  1  0
 20 21  1  0
 20 46  1  0
 20 47  1  0
 21 23  1  0
 21 22  1  0
 21 48  1  0
 22 23  1  0
 22 49  1  0
 22 50  1  0
 23 51  1  0
 23 52  1  0
 24 25  1  0
 24 53  1  0
 24 54  1  0
 25 55  1  0
 25 56  1  0
M  END
>  <i_m_ct_stereo_status>  (41) 
1

>  <s_m_source_file>  (41) 
/var/tmp/pbs.5076255.sched01/tmpbdos_d33/0hajo06zg.sdf

>  <i_m_source_file_index>  (41) 
21

>  <i_lp_mmshare_version>  (41) 
48012

>  <i_f3d_flags>  (41) 
0

>  <s_epik_input>  (41) 
W0NIMl0xW0NIMl1bQ0hdMVtDSDJdTihbQ0gyXVtDSDJdMilbQ0BIXShbQ0BAXTMoW09IXSlbQ0gyXVtDSDJdW0NIMl00KVtDQEhdKFtDSDJdW0NIM10pYyhjNVtDQEBdMjM0KVtjSF1bY0hdYyhbY0hdNSlPW0NIM10=

>  <s_epik_cmdline>  (41) 
J2VwaWtfcHl0aG9uJywgJy1waHQnLCAnMi4wJywgJy1waCcsICc3LjAnLCAnLXRuJywgJzgnLCAnLW1hJywgJzIwMCcsICctaW1hZScsICc8aW5maWxlLm1hZT4nLCAnLW9tYWUnLCAnPG91dGZpbGUubWFlPic=

>  <r_lp_tautomer_probability>  (41) 
1

>  <r_epik_Ionization_Penalty>  (41) 
2.34288

>  <r_epik_Ionization_Penalty_Charging>  (41) 
0

>  <r_epik_Ionization_Penalty_Neutral>  (41) 
2.34288

>  <r_epik_State_Penalty>  (41) 
2.49663

>  <r_epik_Charging_Adjusted_Penalty>  (41) 
2.49663

>  <i_epik_Tot_Q>  (41) 
0

>  <i_epik_Tot_abs_Q>  (41) 
0

>  <s_lp_Force_Field>  (41) 
OPLS3e

>  <r_lp_Energy>  (41) 
72.295

>  <b_lp_Chiralities_Consistent>  (41) 
1

>  <s_lp_Variant>  (41) 
12:0-2

>  <s_i_glide_gridfile>  (41) 
pfpi4k_grid

>  <i_i_glide_lignum>  (41) 
21

>  <i_i_glide_rotatable_bonds>  (41) 
5

>  <r_i_docking_score>  (41) 
-3.40621

>  <r_i_glide_ligand_efficiency>  (41) 
-0.136249

>  <r_i_glide_ligand_efficiency_sa>  (41) 
-0.398393

>  <r_i_glide_ligand_efficiency_ln>  (41) 
-0.807375

>  <r_i_glide_gscore>  (41) 
-3.40621

>  <r_i_glide_lipo>  (41) 
-0.441857

>  <r_i_glide_hbond>  (41) 
-0.32

>  <r_i_glide_metal>  (41) 
-0

>  <r_i_glide_rewards>  (41) 
-1.08077

>  <r_i_glide_evdw>  (41) 
-22.4097

>  <r_i_glide_ecoul>  (41) 
-5.12078

>  <r_i_glide_erotb>  (41) 
0.325015

>  <r_i_glide_esite>  (41) 
0

>  <r_i_glide_emodel>  (41) 
-29.2837

>  <r_i_glide_energy>  (41) 
-27.5305

>  <r_i_glide_einternal>  (41) 
7.80359

>  <r_i_glide_intrahb_reward>  (41) 
-0

>  <i_i_glide_confnum>  (41) 
5

>  <i_i_glide_posenum>  (41) 
11

>  <r_i_glide_eff_state_penalty>  (41) 
0

>  <ligand_id>  (41) 
12

>  <original_smiles>  (41) 
CCC1c2ccc(OC)cc2C23CCCC2(O)C1N(CC1CC1)CC3

>  <smiles>  (41) 
[H]OC12C([H])([H])C([H])([H])C([H])([H])C13c1c([H])c(OC([H])([H])[H])c([H])c([H])c1C([H])(C([H])([H])C([H])([H])[H])C2([H])N(C([H])([H])C1([H])C([H])([H])C1([H])[H])C([H])([H])C3([H])[H]

$$$$
12:1:1
     RDKit          3D

 56 60  0  0  1  0  0  0  0  0999 V2000
    1.0035  -11.5471    3.2524 C   0  0  0  0  0  0  0  0  0  0  0  0
    2.3581  -10.8218    3.1104 C   0  0  0  0  0  0  0  0  0  0  0  0
    2.4012   -9.2801    3.3862 C   0  0  2  0  0  0  0  0  0  0  0  0
    1.9454   -8.8567    4.7818 C   0  0  0  0  0  0  0  0  0  0  0  0
    2.5779   -9.4305    5.9014 C   0  0  0  0  0  0  0  0  0  0  0  0
    2.1977   -9.0532    7.2221 C   0  0  0  0  0  0  0  0  0  0  0  0
    1.1978   -8.0649    7.4015 C   0  0  0  0  0  0  0  0  0  0  0  0
    0.8593   -7.6962    8.6859 O   0  0  0  0  0  0  0  0  0  0  0  0
    0.2429   -6.4203    8.8657 C   0  0  0  0  0  0  0  0  0  0  0  0
    0.5887   -7.4962    6.2823 C   0  0  0  0  0  0  0  0  0  0  0  0
    0.9350   -7.8704    4.9686 C   0  0  0  0  0  0  0  0  0  0  0  0
    0.2215   -7.1636    3.8026 C   0  0  2  0  0  0  0  0  0  0  0  0
   -1.3248   -7.0265    3.9952 C   0  0  0  0  0  0  0  0  0  0  0  0
   -1.9325   -8.3664    3.5761 C   0  0  0  0  0  0  0  0  0  0  0  0
   -0.7897   -9.0893    2.8646 C   0  0  0  0  0  0  0  0  0  0  0  0
    0.2774   -8.0232    2.5314 C   0  0  1  0  0  0  0  0  0  0  0  0
   -0.2038   -7.3921    1.3382 O   0  0  0  0  0  0  0  0  0  0  0  0
    1.7644   -8.3988    2.2469 C   0  0  1  0  0  0  0  0  0  0  0  0
    2.5027   -7.1256    1.9582 N   0  0  0  0  0  0  0  0  0  0  0  0
    3.8568   -7.3105    1.4513 C   0  0  0  0  0  0  0  0  0  0  0  0
    4.4591   -6.0677    0.8393 C   0  0  0  0  0  0  0  0  0  0  0  0
    5.9474   -5.9939    0.5913 C   0  0  0  0  0  0  0  0  0  0  0  0
    5.3248   -5.1358    1.6617 C   0  0  0  0  0  0  0  0  0  0  0  0
    2.3951   -6.1064    3.0261 C   0  0  0  0  0  0  0  0  0  0  0  0
    0.9542   -5.8362    3.5103 C   0  0  0  0  0  0  0  0  0  0  0  0
    1.0950  -12.6382    3.1237 H   0  0  0  0  0  0  0  0  0  0  0  0
    0.3171  -11.1830    2.4979 H   0  0  0  0  0  0  0  0  0  0  0  0
    0.5907  -11.3894    4.2428 H   0  0  0  0  0  0  0  0  0  0  0  0
    3.0838  -11.3187    3.7540 H   0  0  0  0  0  0  0  0  0  0  0  0
    2.7180  -10.9916    2.0992 H   0  0  0  0  0  0  0  0  0  0  0  0
    3.4720   -9.0735    3.3940 H   0  0  0  0  0  0  0  0  0  0  0  0
    3.3633  -10.1547    5.7866 H   0  0  0  0  0  0  0  0  0  0  0  0
    2.6780   -9.5016    8.0631 H   0  0  0  0  0  0  0  0  0  0  0  0
    0.0133   -6.2383    9.9199 H   0  0  0  0  0  0  0  0  0  0  0  0
   -0.6965   -6.3193    8.3234 H   0  0  0  0  0  0  0  0  0  0  0  0
    0.9271   -5.6431    8.5274 H   0  0  0  0  0  0  0  0  0  0  0  0
   -0.1711   -6.7384    6.3741 H   0  0  0  0  0  0  0  0  0  0  0  0
   -1.6551   -6.6975    4.9747 H   0  0  0  0  0  0  0  0  0  0  0  0
   -1.7084   -6.3021    3.2863 H   0  0  0  0  0  0  0  0  0  0  0  0
   -2.2212   -8.9420    4.4488 H   0  0  0  0  0  0  0  0  0  0  0  0
   -2.8099   -8.2518    2.9427 H   0  0  0  0  0  0  0  0  0  0  0  0
   -0.4330   -9.7426    3.6350 H   0  0  0  0  0  0  0  0  0  0  0  0
   -1.1431   -9.6783    2.0209 H   0  0  0  0  0  0  0  0  0  0  0  0
   -0.1881   -8.0628    0.6743 H   0  0  0  0  0  0  0  0  0  0  0  0
    1.8126   -9.0038    1.3434 H   0  0  0  0  0  0  0  0  0  0  0  0
    4.5211   -7.6470    2.2517 H   0  0  0  0  0  0  0  0  0  0  0  0
    3.8662   -8.0931    0.6892 H   0  0  0  0  0  0  0  0  0  0  0  0
    3.8333   -5.6059    0.0681 H   0  0  0  0  0  0  0  0  0  0  0  0
    6.5665   -6.8457    0.9043 H   0  0  0  0  0  0  0  0  0  0  0  0
    6.2852   -5.4688   -0.2782 H   0  0  0  0  0  0  0  0  0  0  0  0
    5.2364   -4.0714    1.4583 H   0  0  0  0  0  0  0  0  0  0  0  0
    5.5074   -5.4068    2.7019 H   0  0  0  0  0  0  0  0  0  0  0  0
    3.0341   -6.3781    3.8682 H   0  0  0  0  0  0  0  0  0  0  0  0
    2.7808   -5.1542    2.6563 H   0  0  0  0  0  0  0  0  0  0  0  0
    0.4300   -5.2795    2.7361 H   0  0  0  0  0  0  0  0  0  0  0  0
    0.9590   -5.2020    4.3992 H   0  0  0  0  0  0  0  0  0  0  0  0
  1  2  1  0
  1 26  1  0
  1 27  1  0
  1 28  1  0
  2  3  1  0
  2 29  1  0
  2 30  1  0
  3 18  1  0
  3  4  1  0
  3 31  1  1
  4 11  2  0
  4  5  1  0
  5  6  2  0
  5 32  1  0
  6  7  1  0
  6 33  1  0
  7  8  1  0
  7 10  2  0
  8  9  1  0
  9 34  1  0
  9 35  1  0
  9 36  1  0
 10 11  1  0
 10 37  1  0
 11 12  1  0
 12 16  1  0
 12 25  1  6
 12 13  1  0
 13 14  1  0
 13 38  1  0
 13 39  1  0
 14 15  1  0
 14 40  1  0
 14 41  1  0
 15 16  1  0
 15 42  1  0
 15 43  1  0
 16 17  1  6
 16 18  1  0
 17 44  1  0
 18 19  1  0
 18 45  1  6
 19 20  1  0
 19 24  1  0
 20 21  1  0
 20 46  1  0
 20 47  1  0
 21 23  1  0
 21 22  1  0
 21 48  1  0
 22 23  1  0
 22 49  1  0
 22 50  1  0
 23 51  1  0
 23 52  1  0
 24 25  1  0
 24 53  1  0
 24 54  1  0
 25 55  1  0
 25 56  1  0
M  END
>  <i_m_ct_stereo_status>  (42) 
1

>  <s_m_source_file>  (42) 
/var/tmp/pbs.5076255.sched01/tmpbdos_d33/0hajo06zg.sdf

>  <i_m_source_file_index>  (42) 
21

>  <i_lp_mmshare_version>  (42) 
48012

>  <i_f3d_flags>  (42) 
0

>  <s_epik_input>  (42) 
W0NIMl0xW0NIMl1bQ0hdMVtDSDJdTihbQ0gyXVtDSDJdMilbQ0BIXShbQ0BAXTMoW09IXSlbQ0gyXVtDSDJdW0NIMl00KVtDQEhdKFtDSDJdW0NIM10pYyhjNVtDQEBdMjM0KVtjSF1bY0hdYyhbY0hdNSlPW0NIM10=

>  <s_epik_cmdline>  (42) 
J2VwaWtfcHl0aG9uJywgJy1waHQnLCAnMi4wJywgJy1waCcsICc3LjAnLCAnLXRuJywgJzgnLCAnLW1hJywgJzIwMCcsICctaW1hZScsICc8aW5maWxlLm1hZT4nLCAnLW9tYWUnLCAnPG91dGZpbGUubWFlPic=

>  <r_lp_tautomer_probability>  (42) 
1

>  <r_epik_Ionization_Penalty>  (42) 
2.34288

>  <r_epik_Ionization_Penalty_Charging>  (42) 
0

>  <r_epik_Ionization_Penalty_Neutral>  (42) 
2.34288

>  <r_epik_State_Penalty>  (42) 
2.49663

>  <r_epik_Charging_Adjusted_Penalty>  (42) 
2.49663

>  <i_epik_Tot_Q>  (42) 
0

>  <i_epik_Tot_abs_Q>  (42) 
0

>  <s_lp_Force_Field>  (42) 
OPLS3e

>  <r_lp_Energy>  (42) 
72.295

>  <b_lp_Chiralities_Consistent>  (42) 
1

>  <s_lp_Variant>  (42) 
12:0-2

>  <s_i_glide_gridfile>  (42) 
pfpi4k_grid

>  <i_i_glide_lignum>  (42) 
21

>  <i_i_glide_rotatable_bonds>  (42) 
5

>  <r_i_docking_score>  (42) 
-3.23225

>  <r_i_glide_ligand_efficiency>  (42) 
-0.12929

>  <r_i_glide_ligand_efficiency_sa>  (42) 
-0.378047

>  <r_i_glide_ligand_efficiency_ln>  (42) 
-0.766141

>  <r_i_glide_gscore>  (42) 
-3.23225

>  <r_i_glide_lipo>  (42) 
-0.447181

>  <r_i_glide_hbond>  (42) 
-0.32

>  <r_i_glide_metal>  (42) 
-0

>  <r_i_glide_rewards>  (42) 
-1.08077

>  <r_i_glide_evdw>  (42) 
-21.6997

>  <r_i_glide_ecoul>  (42) 
-4.16221

>  <r_i_glide_erotb>  (42) 
0.325015

>  <r_i_glide_esite>  (42) 
0

>  <r_i_glide_emodel>  (42) 
-27.054

>  <r_i_glide_energy>  (42) 
-25.8619

>  <r_i_glide_einternal>  (42) 
6.37659

>  <r_i_glide_intrahb_reward>  (42) 
-0

>  <i_i_glide_confnum>  (42) 
1

>  <i_i_glide_posenum>  (42) 
7

>  <r_i_glide_eff_state_penalty>  (42) 
0

>  <ligand_id>  (42) 
12

>  <original_smiles>  (42) 
CCC1c2ccc(OC)cc2C23CCCC2(O)C1N(CC1CC1)CC3

>  <smiles>  (42) 
[H]OC12C([H])([H])C([H])([H])C([H])([H])C13c1c([H])c(OC([H])([H])[H])c([H])c([H])c1C([H])(C([H])([H])C([H])([H])[H])C2([H])N(C([H])([H])C1([H])C([H])([H])C1([H])[H])C([H])([H])C3([H])[H]

$$$$
12:1:2
     RDKit          3D

 56 60  0  0  1  0  0  0  0  0999 V2000
    0.9061  -11.6790    3.1498 C   0  0  0  0  0  0  0  0  0  0  0  0
    2.3014  -11.0310    3.0977 C   0  0  0  0  0  0  0  0  0  0  0  0
    2.4091   -9.5086    3.4439 C   0  0  2  0  0  0  0  0  0  0  0  0
    1.8831   -9.1069    4.8270 C   0  0  0  0  0  0  0  0  0  0  0  0
    2.4211   -9.7635    5.9535 C   0  0  0  0  0  0  0  0  0  0  0  0
    1.9849   -9.4295    7.2599 C   0  0  0  0  0  0  0  0  0  0  0  0
    1.0106   -8.4183    7.4466 C   0  0  0  0  0  0  0  0  0  0  0  0
    0.5148   -8.0335    8.6601 O   0  0  0  0  0  0  0  0  0  0  0  0
    1.0079   -8.6809    9.8328 C   0  0  0  0  0  0  0  0  0  0  0  0
    0.5086   -7.7451    6.3116 C   0  0  0  0  0  0  0  0  0  0  0  0
    0.9159   -8.0738    5.0004 C   0  0  0  0  0  0  0  0  0  0  0  0
    0.3264   -7.2851    3.8038 C   0  0  2  0  0  0  0  0  0  0  0  0
   -1.2166   -7.0740    3.8958 C   0  0  0  0  0  0  0  0  0  0  0  0
   -1.8683   -8.3594    3.3762 C   0  0  0  0  0  0  0  0  0  0  0  0
   -0.7183   -9.1135    2.7150 C   0  0  0  0  0  0  0  0  0  0  0  0
    0.4233   -8.0993    2.5021 C   0  0  1  0  0  0  0  0  0  0  0  0
    0.0376   -7.4152    1.3034 O   0  0  0  0  0  0  0  0  0  0  0  0
    1.9008   -8.5476    2.3018 C   0  0  1  0  0  0  0  0  0  0  0  0
    2.7302   -7.3166    2.1088 N   0  0  0  0  0  0  0  0  0  0  0  0
    4.1051   -7.5606    1.6891 C   0  0  0  0  0  0  0  0  0  0  0  0
    4.8145   -6.3434    1.1371 C   0  0  0  0  0  0  0  0  0  0  0  0
    6.3123   -6.3488    0.9524 C   0  0  0  0  0  0  0  0  0  0  0  0
    5.6907   -5.4814    2.0158 C   0  0  0  0  0  0  0  0  0  0  0  0
    2.6039   -6.3308    3.2079 C   0  0  0  0  0  0  0  0  0  0  0  0
    1.1502   -5.9944    3.6049 C   0  0  0  0  0  0  0  0  0  0  0  0
    0.9251  -12.7410    2.9690 H   0  0  0  0  0  0  0  0  0  0  0  0
    0.2849  -11.2667    2.3720 H   0  0  0  0  0  0  0  0  0  0  0  0
    0.4474  -11.5388    4.1197 H   0  0  0  0  0  0  0  0  0  0  0  0
    2.9592  -11.5957    3.7556 H   0  0  0  0  0  0  0  0  0  0  0  0
    2.7036  -11.1733    2.0914 H   0  0  0  0  0  0  0  0  0  0  0  0
    3.4854   -9.3653    3.5299 H   0  0  0  0  0  0  0  0  0  0  0  0
    3.1641  -10.5295    5.8429 H   0  0  0  0  0  0  0  0  0  0  0  0
    2.4053   -9.9716    8.0818 H   0  0  0  0  0  0  0  0  0  0  0  0
    0.5135   -8.2650   10.7075 H   0  0  0  0  0  0  0  0  0  0  0  0
    2.0795   -8.5242    9.9559 H   0  0  0  0  0  0  0  0  0  0  0  0
    0.7991   -9.7504    9.8130 H   0  0  0  0  0  0  0  0  0  0  0  0
   -0.2037   -6.9556    6.4720 H   0  0  0  0  0  0  0  0  0  0  0  0
   -1.5880   -6.7681    4.8713 H   0  0  0  0  0  0  0  0  0  0  0  0
   -1.5046   -6.3086    3.1839 H   0  0  0  0  0  0  0  0  0  0  0  0
   -2.2494   -8.9633    4.1959 H   0  0  0  0  0  0  0  0  0  0  0  0
   -2.6771   -8.1810    2.6758 H   0  0  0  0  0  0  0  0  0  0  0  0
   -0.4582   -9.8100    3.4896 H   0  0  0  0  0  0  0  0  0  0  0  0
   -1.0352   -9.6584    1.8290 H   0  0  0  0  0  0  0  0  0  0  0  0
    0.0449   -8.0688    0.6278 H   0  0  0  0  0  0  0  0  0  0  0  0
    1.9850   -9.1247    1.3793 H   0  0  0  0  0  0  0  0  0  0  0  0
    4.7021   -7.9456    2.5232 H   0  0  0  0  0  0  0  0  0  0  0  0
    4.1283   -8.3336    0.9160 H   0  0  0  0  0  0  0  0  0  0  0  0
    4.2466   -5.8295    0.3543 H   0  0  0  0  0  0  0  0  0  0  0  0
    6.8599   -7.2401    1.2792 H   0  0  0  0  0  0  0  0  0  0  0  0
    6.7222   -5.8428    0.0911 H   0  0  0  0  0  0  0  0  0  0  0  0
    5.6667   -4.4083    1.8430 H   0  0  0  0  0  0  0  0  0  0  0  0
    5.7999   -5.7864    3.0592 H   0  0  0  0  0  0  0  0  0  0  0  0
    3.1683   -6.6643    4.0811 H   0  0  0  0  0  0  0  0  0  0  0  0
    3.0697   -5.3929    2.9012 H   0  0  0  0  0  0  0  0  0  0  0  0
    0.7042   -5.3838    2.8218 H   0  0  0  0  0  0  0  0  0  0  0  0
    1.1295   -5.3944    4.5164 H   0  0  0  0  0  0  0  0  0  0  0  0
  1  2  1  0
  1 26  1  0
  1 27  1  0
  1 28  1  0
  2  3  1  0
  2 29  1  0
  2 30  1  0
  3 18  1  0
  3  4  1  0
  3 31  1  1
  4 11  2  0
  4  5  1  0
  5  6  2  0
  5 32  1  0
  6  7  1  0
  6 33  1  0
  7  8  1  0
  7 10  2  0
  8  9  1  0
  9 34  1  0
  9 35  1  0
  9 36  1  0
 10 11  1  0
 10 37  1  0
 11 12  1  0
 12 16  1  0
 12 25  1  6
 12 13  1  0
 13 14  1  0
 13 38  1  0
 13 39  1  0
 14 15  1  0
 14 40  1  0
 14 41  1  0
 15 16  1  0
 15 42  1  0
 15 43  1  0
 16 17  1  6
 16 18  1  0
 17 44  1  0
 18 19  1  0
 18 45  1  6
 19 20  1  0
 19 24  1  0
 20 21  1  0
 20 46  1  0
 20 47  1  0
 21 23  1  0
 21 22  1  0
 21 48  1  0
 22 23  1  0
 22 49  1  0
 22 50  1  0
 23 51  1  0
 23 52  1  0
 24 25  1  0
 24 53  1  0
 24 54  1  0
 25 55  1  0
 25 56  1  0
M  END
>  <i_m_ct_stereo_status>  (43) 
1

>  <s_m_source_file>  (43) 
/var/tmp/pbs.5076255.sched01/tmpbdos_d33/0hajo06zg.sdf

>  <i_m_source_file_index>  (43) 
21

>  <i_lp_mmshare_version>  (43) 
48012

>  <i_f3d_flags>  (43) 
0

>  <s_epik_input>  (43) 
W0NIMl0xW0NIMl1bQ0hdMVtDSDJdTihbQ0gyXVtDSDJdMilbQ0BIXShbQ0BAXTMoW09IXSlbQ0gyXVtDSDJdW0NIMl00KVtDQEhdKFtDSDJdW0NIM10pYyhjNVtDQEBdMjM0KVtjSF1bY0hdYyhbY0hdNSlPW0NIM10=

>  <s_epik_cmdline>  (43) 
J2VwaWtfcHl0aG9uJywgJy1waHQnLCAnMi4wJywgJy1waCcsICc3LjAnLCAnLXRuJywgJzgnLCAnLW1hJywgJzIwMCcsICctaW1hZScsICc8aW5maWxlLm1hZT4nLCAnLW9tYWUnLCAnPG91dGZpbGUubWFlPic=

>  <r_lp_tautomer_probability>  (43) 
1

>  <r_epik_Ionization_Penalty>  (43) 
2.34288

>  <r_epik_Ionization_Penalty_Charging>  (43) 
0

>  <r_epik_Ionization_Penalty_Neutral>  (43) 
2.34288

>  <r_epik_State_Penalty>  (43) 
2.49663

>  <r_epik_Charging_Adjusted_Penalty>  (43) 
2.49663

>  <i_epik_Tot_Q>  (43) 
0

>  <i_epik_Tot_abs_Q>  (43) 
0

>  <s_lp_Force_Field>  (43) 
OPLS3e

>  <r_lp_Energy>  (43) 
72.295

>  <b_lp_Chiralities_Consistent>  (43) 
1

>  <s_lp_Variant>  (43) 
12:0-2

>  <s_i_glide_gridfile>  (43) 
pfpi4k_grid

>  <i_i_glide_lignum>  (43) 
21

>  <i_i_glide_rotatable_bonds>  (43) 
5

>  <r_i_docking_score>  (43) 
-3.1521

>  <r_i_glide_ligand_efficiency>  (43) 
-0.126084

>  <r_i_glide_ligand_efficiency_sa>  (43) 
-0.368671

>  <r_i_glide_ligand_efficiency_ln>  (43) 
-0.747141

>  <r_i_glide_gscore>  (43) 
-3.1521

>  <r_i_glide_lipo>  (43) 
-0.333408

>  <r_i_glide_hbond>  (43) 
-0.32

>  <r_i_glide_metal>  (43) 
-0

>  <r_i_glide_rewards>  (43) 
-1.08077

>  <r_i_glide_evdw>  (43) 
-20.5355

>  <r_i_glide_ecoul>  (43) 
-4.77438

>  <r_i_glide_erotb>  (43) 
0.325015

>  <r_i_glide_esite>  (43) 
0

>  <r_i_glide_emodel>  (43) 
-29.2214

>  <r_i_glide_energy>  (43) 
-25.3099

>  <r_i_glide_einternal>  (43) 
1.88863

>  <r_i_glide_intrahb_reward>  (43) 
-0

>  <i_i_glide_confnum>  (43) 
1

>  <i_i_glide_posenum>  (43) 
21

>  <r_i_glide_eff_state_penalty>  (43) 
0

>  <ligand_id>  (43) 
12

>  <original_smiles>  (43) 
CCC1c2ccc(OC)cc2C23CCCC2(O)C1N(CC1CC1)CC3

>  <smiles>  (43) 
[H]OC12C([H])([H])C([H])([H])C([H])([H])C13c1c([H])c(OC([H])([H])[H])c([H])c([H])c1C([H])(C([H])([H])C([H])([H])[H])C2([H])N(C([H])([H])C1([H])C([H])([H])C1([H])[H])C([H])([H])C3([H])[H]

$$$$
13:0:0
     RDKit          3D

 29 33  0  0  1  0  0  0  0  0999 V2000
    5.0038   -3.8558   -4.1516 O   0  0  0  0  0  0  0  0  0  0  0  0
    4.1937   -3.1566   -3.2458 C   0  0  1  0  0  0  0  0  0  0  0  0
    2.7436   -3.4507   -3.5959 C   0  0  0  0  0  0  0  0  0  0  0  0
    1.8603   -3.2735   -2.3289 C   0  0  0  0  0  0  0  0  0  0  0  0
    2.5517   -3.3219   -0.9346 C   0  0  1  0  0  0  0  0  0  0  0  0
    3.2248   -4.6318   -0.6606 N   0  0  0  0  0  0  0  0  0  0  0  0
    4.6613   -4.4712   -0.9661 C   0  0  0  0  0  0  0  0  0  0  0  0
    4.6160   -3.1830   -1.7242 C   0  0  1  0  0  0  0  0  0  0  0  0
    5.6785   -2.1348   -2.0475 C   0  0  2  0  0  0  0  0  0  0  0  0
    5.4081   -0.7273   -1.4805 C   0  0  0  0  0  0  0  0  0  0  0  0
    3.9617   -1.1615   -1.7129 C   0  0  1  0  0  0  0  0  0  0  0  0
    4.5218   -1.7114   -2.9983 C   0  0  2  0  0  0  0  0  0  0  0  0
    3.7067   -2.3867   -0.8630 C   0  0  1  0  0  0  0  0  0  0  0  0
    5.0335   -4.7521   -3.8396 H   0  0  0  0  0  0  0  0  0  0  0  0
    2.3616   -2.8243   -4.3971 H   0  0  0  0  0  0  0  0  0  0  0  0
    2.6295   -4.4638   -4.0283 H   0  0  0  0  0  0  0  0  0  0  0  0
    1.4699   -2.2679   -2.4160 H   0  0  0  0  0  0  0  0  0  0  0  0
    1.0174   -3.9487   -2.3197 H   0  0  0  0  0  0  0  0  0  0  0  0
    1.8471   -3.0722   -0.1517 H   0  0  0  0  0  0  0  0  0  0  0  0
    3.0995   -4.9236    0.2793 H   0  0  0  0  0  0  0  0  0  0  0  0
    5.2840   -4.3854   -0.0732 H   0  0  0  0  0  0  0  0  0  0  0  0
    5.0157   -5.2817   -1.6043 H   0  0  0  0  0  0  0  0  0  0  0  0
    6.5844   -2.3777   -2.6105 H   0  0  0  0  0  0  0  0  0  0  0  0
    5.6740   -0.6411   -0.4140 H   0  0  0  0  0  0  0  0  0  0  0  0
    5.7638    0.0947   -2.1090 H   0  0  0  0  0  0  0  0  0  0  0  0
    3.1946   -0.4210   -1.9208 H   0  0  0  0  0  0  0  0  0  0  0  0
    4.7821   -1.0316   -3.8205 H   0  0  0  0  0  0  0  0  0  0  0  0
    4.0700   -2.2547    0.1574 H   0  0  0  0  0  0  0  0  0  0  0  0
    2.9084   -5.2706   -1.3604 H   0  0  0  0  0  0  0  0  0  0  0  0
  2  1  1  6
  1 14  1  0
  2  8  1  0
  2 12  1  0
  2  3  1  0
  3  4  1  0
  3 15  1  0
  3 16  1  0
  4  5  1  0
  4 17  1  0
  4 18  1  0
  5 13  1  0
  5  6  1  0
  5 19  1  1
  6  7  1  0
  6 20  1  0
  6 29  1  0
  8  7  1  1
  7 21  1  0
  7 22  1  0
  8 13  1  0
  8  9  1  0
  9 12  1  0
  9 10  1  0
  9 23  1  6
 10 11  1  0
 10 24  1  0
 10 25  1  0
 11 12  1  0
 11 13  1  0
 11 26  1  6
 12 27  1  6
 13 28  1  1
M  CHG  1   6   1
M  END
>  <i_m_ct_stereo_status>  (44) 
1

>  <s_m_source_file>  (44) 
/var/tmp/pbs.5076255.sched01/tmpbdos_d33/0hajo06zg.sdf

>  <i_m_source_file_index>  (44) 
22

>  <i_lp_mmshare_version>  (44) 
48012

>  <i_f3d_flags>  (44) 
2

>  <s_epik_input>  (44) 
W09IXVtDQEBdMShbQ0BAXTIzNClbQ0BASF01W0NASF0zW0NIMl1bQ0BASF01W0NIXTRbQ0BASF0oW0NIMl1bQ0gyXTEpW05IXVtDSDJdMg==

>  <s_epik_cmdline>  (44) 
J2VwaWtfcHl0aG9uJywgJy1waHQnLCAnMi4wJywgJy1waCcsICc3LjAnLCAnLXRuJywgJzgnLCAnLW1hJywgJzIwMCcsICctaW1hZScsICc8aW5maWxlLm1hZT4nLCAnLW9tYWUnLCAnPG91dGZpbGUubWFlPic=

>  <r_lp_tautomer_probability>  (44) 
1

>  <r_epik_Ionization_Penalty>  (44) 
3.51756e-05

>  <r_epik_Ionization_Penalty_Charging>  (44) 
3.51145e-05

>  <r_epik_Ionization_Penalty_Neutral>  (44) 
6.10532e-08

>  <r_epik_State_Penalty>  (44) 
-0

>  <r_epik_Charging_Adjusted_Penalty>  (44) 
3.51145e-05

>  <i_epik_Tot_Q>  (44) 
1

>  <i_epik_Tot_abs_Q>  (44) 
1

>  <s_lp_Force_Field>  (44) 
OPLS3e

>  <r_lp_Energy>  (44) 
88.7265

>  <b_lp_Chiralities_Consistent>  (44) 
0

>  <s_lp_Variant>  (44) 
13:0-1

>  <s_i_glide_gridfile>  (44) 
pfpi4k_grid

>  <i_i_glide_lignum>  (44) 
22

>  <i_i_glide_rotatable_bonds>  (44) 
1

>  <r_i_docking_score>  (44) 
-4.66539

>  <r_i_glide_ligand_efficiency>  (44) 
-0.358876

>  <r_i_glide_ligand_efficiency_sa>  (44) 
-0.843838

>  <r_i_glide_ligand_efficiency_ln>  (44) 
-1.30868

>  <r_i_glide_gscore>  (44) 
-4.66539

>  <r_i_glide_lipo>  (44) 
-0.470602

>  <r_i_glide_hbond>  (44) 
0

>  <r_i_glide_metal>  (44) 
-0

>  <r_i_glide_rewards>  (44) 
-2.19374

>  <r_i_glide_evdw>  (44) 
-6.10497

>  <r_i_glide_ecoul>  (44) 
-10.9552

>  <r_i_glide_erotb>  (44) 
0

>  <r_i_glide_esite>  (44) 
-0.0525214

>  <r_i_glide_emodel>  (44) 
-23.7729

>  <r_i_glide_energy>  (44) 
-17.0601

>  <r_i_glide_einternal>  (44) 
0.464551

>  <r_i_glide_intrahb_reward>  (44) 
-0

>  <i_i_glide_confnum>  (44) 
1

>  <i_i_glide_posenum>  (44) 
21

>  <r_i_glide_eff_state_penalty>  (44) 
0

>  <ligand_id>  (44) 
13

>  <original_smiles>  (44) 
OC12CCC3NCC14C1CC(C12)C34

>  <smiles>  (44) 
[H]OC12C([H])([H])C([H])([H])C3([H])C4([H])C5([H])C([H])([H])C([H])(C51[H])C42C([H])([H])[N+]3([H])[H]

$$$$
13:0:1
     RDKit          3D

 29 33  0  0  1  0  0  0  0  0999 V2000
    6.6115   -1.4725   -0.3691 O   0  0  0  0  0  0  0  0  0  0  0  0
    5.5944   -2.3678   -0.7884 C   0  0  1  0  0  0  0  0  0  0  0  0
    5.7365   -3.6504    0.0463 C   0  0  0  0  0  0  0  0  0  0  0  0
    4.4469   -4.5028    0.0297 C   0  0  0  0  0  0  0  0  0  0  0  0
    3.1586   -3.6662   -0.1478 C   0  0  1  0  0  0  0  0  0  0  0  0
    3.0402   -2.6058    0.9026 N   0  0  0  0  0  0  0  0  0  0  0  0
    3.4813   -1.3074    0.3235 C   0  0  0  0  0  0  0  0  0  0  0  0
    4.1503   -1.7936   -0.9270 C   0  0  1  0  0  0  0  0  0  0  0  0
    4.5913   -1.1606   -2.2501 C   0  0  2  0  0  0  0  0  0  0  0  0
    3.9257   -1.7304   -3.5167 C   0  0  0  0  0  0  0  0  0  0  0  0
    3.9922   -3.0263   -2.6744 C   0  0  1  0  0  0  0  0  0  0  0  0
    5.3659   -2.4986   -2.2903 C   0  0  2  0  0  0  0  0  0  0  0  0
    3.1868   -2.8193   -1.4070 C   0  0  1  0  0  0  0  0  0  0  0  0
    6.4440   -1.2695    0.5393 H   0  0  0  0  0  0  0  0  0  0  0  0
    6.5762   -4.2510   -0.3151 H   0  0  0  0  0  0  0  0  0  0  0  0
    5.9793   -3.4100    1.0851 H   0  0  0  0  0  0  0  0  0  0  0  0
    4.4985   -5.1987   -0.8110 H   0  0  0  0  0  0  0  0  0  0  0  0
    4.3926   -5.1176    0.9322 H   0  0  0  0  0  0  0  0  0  0  0  0
    2.2921   -4.3209   -0.1549 H   0  0  0  0  0  0  0  0  0  0  0  0
    2.0780   -2.4921    1.1691 H   0  0  0  0  0  0  0  0  0  0  0  0
    2.6308   -0.6677    0.0924 H   0  0  0  0  0  0  0  0  0  0  0  0
    4.1572   -0.7685    0.9873 H   0  0  0  0  0  0  0  0  0  0  0  0
    5.2342   -0.2728   -2.2890 H   0  0  0  0  0  0  0  0  0  0  0  0
    2.9118   -1.3736   -3.6961 H   0  0  0  0  0  0  0  0  0  0  0  0
    4.5436   -1.7020   -4.4174 H   0  0  0  0  0  0  0  0  0  0  0  0
    3.9767   -3.9766   -3.2098 H   0  0  0  0  0  0  0  0  0  0  0  0
    6.2030   -2.5634   -2.9914 H   0  0  0  0  0  0  0  0  0  0  0  0
    2.2074   -2.4065   -1.6347 H   0  0  0  0  0  0  0  0  0  0  0  0
    3.6123   -2.8494    1.6904 H   0  0  0  0  0  0  0  0  0  0  0  0
  2  1  1  6
  1 14  1  0
  2  8  1  0
  2 12  1  0
  2  3  1  0
  3  4  1  0
  3 15  1  0
  3 16  1  0
  4  5  1  0
  4 17  1  0
  4 18  1  0
  5 13  1  0
  5  6  1  0
  5 19  1  6
  6  7  1  0
  6 20  1  0
  6 29  1  0
  8  7  1  1
  7 21  1  0
  7 22  1  0
  8 13  1  0
  8  9  1  0
  9 12  1  0
  9 10  1  0
  9 23  1  1
 10 11  1  0
 10 24  1  0
 10 25  1  0
 11 12  1  0
 11 13  1  0
 11 26  1  6
 12 27  1  6
 13 28  1  6
M  CHG  1   6   1
M  END
>  <i_m_ct_stereo_status>  (45) 
1

>  <s_m_source_file>  (45) 
/var/tmp/pbs.5076255.sched01/tmpbdos_d33/0hajo06zg.sdf

>  <i_m_source_file_index>  (45) 
22

>  <i_lp_mmshare_version>  (45) 
48012

>  <i_f3d_flags>  (45) 
2

>  <s_epik_input>  (45) 
W09IXVtDQEBdMShbQ0BAXTIzNClbQ0BASF01W0NASF0zW0NIMl1bQ0BASF01W0NIXTRbQ0BASF0oW0NIMl1bQ0gyXTEpW05IXVtDSDJdMg==

>  <s_epik_cmdline>  (45) 
J2VwaWtfcHl0aG9uJywgJy1waHQnLCAnMi4wJywgJy1waCcsICc3LjAnLCAnLXRuJywgJzgnLCAnLW1hJywgJzIwMCcsICctaW1hZScsICc8aW5maWxlLm1hZT4nLCAnLW9tYWUnLCAnPG91dGZpbGUubWFlPic=

>  <r_lp_tautomer_probability>  (45) 
1

>  <r_epik_Ionization_Penalty>  (45) 
3.51756e-05

>  <r_epik_Ionization_Penalty_Charging>  (45) 
3.51145e-05

>  <r_epik_Ionization_Penalty_Neutral>  (45) 
6.10532e-08

>  <r_epik_State_Penalty>  (45) 
-0

>  <r_epik_Charging_Adjusted_Penalty>  (45) 
3.51145e-05

>  <i_epik_Tot_Q>  (45) 
1

>  <i_epik_Tot_abs_Q>  (45) 
1

>  <s_lp_Force_Field>  (45) 
OPLS3e

>  <r_lp_Energy>  (45) 
88.7265

>  <b_lp_Chiralities_Consistent>  (45) 
0

>  <s_lp_Variant>  (45) 
13:0-1

>  <s_i_glide_gridfile>  (45) 
pfpi4k_grid

>  <i_i_glide_lignum>  (45) 
22

>  <i_i_glide_rotatable_bonds>  (45) 
1

>  <r_i_docking_score>  (45) 
-4.56701

>  <r_i_glide_ligand_efficiency>  (45) 
-0.351308

>  <r_i_glide_ligand_efficiency_sa>  (45) 
-0.826043

>  <r_i_glide_ligand_efficiency_ln>  (45) 
-1.28109

>  <r_i_glide_gscore>  (45) 
-4.56701

>  <r_i_glide_lipo>  (45) 
-0.334719

>  <r_i_glide_hbond>  (45) 
-0.117345

>  <r_i_glide_metal>  (45) 
-0

>  <r_i_glide_rewards>  (45) 
-2.19374

>  <r_i_glide_evdw>  (45) 
-17.4208

>  <r_i_glide_ecoul>  (45) 
-6.81167

>  <r_i_glide_erotb>  (45) 
0

>  <r_i_glide_esite>  (45) 
-0.0284067

>  <r_i_glide_emodel>  (45) 
-31.6186

>  <r_i_glide_energy>  (45) 
-24.2325

>  <r_i_glide_einternal>  (45) 
0.43036

>  <r_i_glide_intrahb_reward>  (45) 
-0

>  <i_i_glide_confnum>  (45) 
1

>  <i_i_glide_posenum>  (45) 
1

>  <r_i_glide_eff_state_penalty>  (45) 
0

>  <ligand_id>  (45) 
13

>  <original_smiles>  (45) 
OC12CCC3NCC14C1CC(C12)C34

>  <smiles>  (45) 
[H]OC12C([H])([H])C([H])([H])C3([H])C4([H])C5([H])C([H])([H])C([H])(C51[H])C42C([H])([H])[N+]3([H])[H]

$$$$
13:0:2
     RDKit          3D

 29 33  0  0  1  0  0  0  0  0999 V2000
    7.1480   -2.2573   -1.4153 O   0  0  0  0  0  0  0  0  0  0  0  0
    5.8252   -2.7088   -1.1337 C   0  0  1  0  0  0  0  0  0  0  0  0
    5.9274   -3.8930   -0.1617 C   0  0  0  0  0  0  0  0  0  0  0  0
    4.5928   -4.1710    0.5709 C   0  0  0  0  0  0  0  0  0  0  0  0
    3.7355   -2.9083    0.7690 C   0  0  1  0  0  0  0  0  0  0  0  0
    4.4796   -1.8367    1.4856 N   0  0  0  0  0  0  0  0  0  0  0  0
    4.9704   -0.8512    0.4941 C   0  0  0  0  0  0  0  0  0  0  0  0
    4.7803   -1.6280   -0.7664 C   0  0  1  0  0  0  0  0  0  0  0  0
    4.6770   -1.2996   -2.2441 C   0  0  2  0  0  0  0  0  0  0  0  0
    3.3550   -1.6273   -2.9624 C   0  0  0  0  0  0  0  0  0  0  0  0
    3.4050   -2.7834   -1.9429 C   0  0  1  0  0  0  0  0  0  0  0  0
    4.8804   -2.8195   -2.3249 C   0  0  2  0  0  0  0  0  0  0  0  0
    3.4368   -2.2108   -0.5365 C   0  0  1  0  0  0  0  0  0  0  0  0
    7.6052   -2.9884   -1.8100 H   0  0  0  0  0  0  0  0  0  0  0  0
    6.2174   -4.8052   -0.6845 H   0  0  0  0  0  0  0  0  0  0  0  0
    6.7034   -3.7144    0.5871 H   0  0  0  0  0  0  0  0  0  0  0  0
    4.0035   -4.8678   -0.0180 H   0  0  0  0  0  0  0  0  0  0  0  0
    4.7822   -4.6678    1.5211 H   0  0  0  0  0  0  0  0  0  0  0  0
    2.8139   -3.1572    1.2850 H   0  0  0  0  0  0  0  0  0  0  0  0
    3.8553   -1.3501    2.1205 H   0  0  0  0  0  0  0  0  0  0  0  0
    4.3721    0.0550    0.4831 H   0  0  0  0  0  0  0  0  0  0  0  0
    6.0070   -0.5755    0.6521 H   0  0  0  0  0  0  0  0  0  0  0  0
    5.4375   -0.7068   -2.7321 H   0  0  0  0  0  0  0  0  0  0  0  0
    2.5776   -0.8947   -2.7489 H   0  0  0  0  0  0  0  0  0  0  0  0
    3.4232   -1.8875   -4.0276 H   0  0  0  0  0  0  0  0  0  0  0  0
    2.8309   -3.6778   -2.1878 H   0  0  0  0  0  0  0  0  0  0  0  0
    5.2224   -3.1836   -3.2949 H   0  0  0  0  0  0  0  0  0  0  0  0
    2.6658   -1.4557   -0.3990 H   0  0  0  0  0  0  0  0  0  0  0  0
    5.2658   -2.2404    1.9844 H   0  0  0  0  0  0  0  0  0  0  0  0
  2  1  1  6
  1 14  1  0
  2  8  1  0
  2 12  1  0
  2  3  1  0
  3  4  1  0
  3 15  1  0
  3 16  1  0
  4  5  1  0
  4 17  1  0
  4 18  1  0
  5 13  1  0
  5  6  1  0
  5 19  1  1
  6  7  1  0
  6 20  1  0
  6 29  1  0
  8  7  1  1
  7 21  1  0
  7 22  1  0
  8 13  1  0
  8  9  1  0
  9 12  1  0
  9 10  1  0
  9 23  1  6
 10 11  1  0
 10 24  1  0
 10 25  1  0
 11 12  1  0
 11 13  1  0
 11 26  1  1
 12 27  1  6
 13 28  1  1
M  CHG  1   6   1
M  END
>  <i_m_ct_stereo_status>  (46) 
1

>  <s_m_source_file>  (46) 
/var/tmp/pbs.5076255.sched01/tmpbdos_d33/0hajo06zg.sdf

>  <i_m_source_file_index>  (46) 
22

>  <i_lp_mmshare_version>  (46) 
48012

>  <i_f3d_flags>  (46) 
2

>  <s_epik_input>  (46) 
W09IXVtDQEBdMShbQ0BAXTIzNClbQ0BASF01W0NASF0zW0NIMl1bQ0BASF01W0NIXTRbQ0BASF0oW0NIMl1bQ0gyXTEpW05IXVtDSDJdMg==

>  <s_epik_cmdline>  (46) 
J2VwaWtfcHl0aG9uJywgJy1waHQnLCAnMi4wJywgJy1waCcsICc3LjAnLCAnLXRuJywgJzgnLCAnLW1hJywgJzIwMCcsICctaW1hZScsICc8aW5maWxlLm1hZT4nLCAnLW9tYWUnLCAnPG91dGZpbGUubWFlPic=

>  <r_lp_tautomer_probability>  (46) 
1

>  <r_epik_Ionization_Penalty>  (46) 
3.51756e-05

>  <r_epik_Ionization_Penalty_Charging>  (46) 
3.51145e-05

>  <r_epik_Ionization_Penalty_Neutral>  (46) 
6.10532e-08

>  <r_epik_State_Penalty>  (46) 
-0

>  <r_epik_Charging_Adjusted_Penalty>  (46) 
3.51145e-05

>  <i_epik_Tot_Q>  (46) 
1

>  <i_epik_Tot_abs_Q>  (46) 
1

>  <s_lp_Force_Field>  (46) 
OPLS3e

>  <r_lp_Energy>  (46) 
88.7265

>  <b_lp_Chiralities_Consistent>  (46) 
0

>  <s_lp_Variant>  (46) 
13:0-1

>  <s_i_glide_gridfile>  (46) 
pfpi4k_grid

>  <i_i_glide_lignum>  (46) 
22

>  <i_i_glide_rotatable_bonds>  (46) 
1

>  <r_i_docking_score>  (46) 
-4.46616

>  <r_i_glide_ligand_efficiency>  (46) 
-0.343551

>  <r_i_glide_ligand_efficiency_sa>  (46) 
-0.807803

>  <r_i_glide_ligand_efficiency_ln>  (46) 
-1.2528

>  <r_i_glide_gscore>  (46) 
-4.46616

>  <r_i_glide_lipo>  (46) 
-0.310983

>  <r_i_glide_hbond>  (46) 
-0.16

>  <r_i_glide_metal>  (46) 
-0

>  <r_i_glide_rewards>  (46) 
-2.19374

>  <r_i_glide_evdw>  (46) 
-16.6125

>  <r_i_glide_ecoul>  (46) 
-6.47208

>  <r_i_glide_erotb>  (46) 
0

>  <r_i_glide_esite>  (46) 
0

>  <r_i_glide_emodel>  (46) 
-30.2304

>  <r_i_glide_energy>  (46) 
-23.0845

>  <r_i_glide_einternal>  (46) 
0.447296

>  <r_i_glide_intrahb_reward>  (46) 
-0

>  <i_i_glide_confnum>  (46) 
2

>  <i_i_glide_posenum>  (46) 
15

>  <r_i_glide_eff_state_penalty>  (46) 
0

>  <ligand_id>  (46) 
13

>  <original_smiles>  (46) 
OC12CCC3NCC14C1CC(C12)C34

>  <smiles>  (46) 
[H]OC12C([H])([H])C([H])([H])C3([H])C4([H])C5([H])C([H])([H])C([H])(C51[H])C42C([H])([H])[N+]3([H])[H]

$$$$
16:0:0
     RDKit          3D

 66 72  0  0  1  0  0  0  0  0999 V2000
   -1.1196    4.3543    4.0063 C   0  0  0  0  0  0  0  0  0  0  0  0
   -0.2190    3.3775    4.7842 C   0  0  2  0  0  0  0  0  0  0  0  0
    0.7369    2.6427    3.8251 C   0  0  0  0  0  0  0  0  0  0  0  0
    1.7056    1.7042    4.5671 C   0  0  0  0  0  0  0  0  0  0  0  0
    0.9684    0.5572    5.3160 C   0  0  1  0  0  0  0  0  0  0  0  0
    1.8164   -0.4654    6.2338 C   0  0  2  0  0  0  0  0  0  0  0  0
    3.3286   -0.1760    6.5046 C   0  0  0  0  0  0  0  0  0  0  0  0
    2.0845   -1.6151    5.4292 O   0  0  0  0  0  0  0  0  0  0  0  0
    1.0869   -2.6090    5.2648 C   0  0  1  0  0  0  0  0  0  0  0  0
    1.6696   -3.9647    5.7218 C   0  0  0  0  0  0  0  0  0  0  0  0
    1.0489   -5.0798    5.0216 N   0  0  0  0  0  0  0  0  0  0  0  0
   -0.0135   -5.7335    5.5777 N   0  0  0  0  0  0  0  0  0  0  0  0
   -0.4307   -6.6464    4.7541 N   0  0  0  0  0  0  0  0  0  0  0  0
    0.3802   -6.5997    3.6261 C   0  0  0  0  0  0  0  0  0  0  0  0
    0.3896   -7.3081    2.3995 C   0  0  0  0  0  0  0  0  0  0  0  0
   -0.5472   -8.2793    2.0877 N   0  0  0  0  0  0  0  0  0  0  0  0
    1.3214   -6.9674    1.4752 N   0  0  0  0  0  0  0  0  0  0  0  0
    2.2119   -6.0116    1.7626 C   0  0  0  0  0  0  0  0  0  0  0  0
    2.3094   -5.2590    2.8647 N   0  0  0  0  0  0  0  0  0  0  0  0
    1.3510   -5.6058    3.7809 C   0  0  0  0  0  0  0  0  0  0  0  0
   -0.2326   -2.2511    5.9629 C   0  0  2  0  0  0  0  0  0  0  0  0
   -1.3309   -1.6177    5.0113 C   0  0  0  0  0  0  0  0  0  0  0  0
   -1.3544   -0.0824    4.5953 C   0  0  0  0  0  0  0  0  0  0  0  0
   -0.5855    0.8695    5.5688 C   0  0  1  0  0  0  0  0  0  0  0  0
   -1.2308    0.2152    6.5976 O   0  0  0  0  0  0  0  0  0  0  0  0
   -1.0535    0.8693    7.8389 O   0  0  0  0  0  0  0  0  0  0  0  0
    0.2703    1.2632    8.1131 C   0  0  1  0  0  0  0  0  0  0  0  0
    1.4046    2.2604    7.7020 C   0  0  0  0  0  0  0  0  0  0  0  0
   -0.6713    2.4462    8.5532 C   0  0  0  0  0  0  0  0  0  0  0  0
   -1.2961    3.0974    7.1850 C   0  0  0  0  0  0  0  0  0  0  0  0
   -1.0348    2.4189    5.7122 C   0  0  1  0  0  0  0  0  0  0  0  0
    0.9167    0.0863    8.5917 O   0  0  0  0  0  0  0  0  0  0  0  0
    1.1237   -0.9396    7.5820 C   0  0  1  0  0  0  0  0  0  0  0  0
   -0.0215   -1.7281    7.3029 O   0  0  0  0  0  0  0  0  0  0  0  0
   -1.7615    3.8295    3.2969 H   0  0  0  0  0  0  0  0  0  0  0  0
   -0.5243    5.0681    3.4312 H   0  0  0  0  0  0  0  0  0  0  0  0
   -1.7543    4.9271    4.6809 H   0  0  0  0  0  0  0  0  0  0  0  0
    0.4133    4.0206    5.3932 H   0  0  0  0  0  0  0  0  0  0  0  0
    0.1701    2.0911    3.0762 H   0  0  0  0  0  0  0  0  0  0  0  0
    1.3177    3.3768    3.2637 H   0  0  0  0  0  0  0  0  0  0  0  0
    2.3926    1.2717    3.8401 H   0  0  0  0  0  0  0  0  0  0  0  0
    2.3447    2.3121    5.1966 H   0  0  0  0  0  0  0  0  0  0  0  0
    0.9165   -0.0652    4.4291 H   0  0  0  0  0  0  0  0  0  0  0  0
    3.5405    0.3602    7.4284 H   0  0  0  0  0  0  0  0  0  0  0  0
    3.8074    0.3509    5.6777 H   0  0  0  0  0  0  0  0  0  0  0  0
    3.8951   -1.1029    6.6349 H   0  0  0  0  0  0  0  0  0  0  0  0
    0.9179   -2.6765    4.1919 H   0  0  0  0  0  0  0  0  0  0  0  0
    2.7389   -4.0140    5.5176 H   0  0  0  0  0  0  0  0  0  0  0  0
    1.5490   -4.1059    6.7993 H   0  0  0  0  0  0  0  0  0  0  0  0
   -1.2294   -8.6180    2.7614 H   0  0  0  0  0  0  0  0  0  0  0  0
    2.9377   -5.8014    0.9811 H   0  0  0  0  0  0  0  0  0  0  0  0
   -0.6952   -3.2033    6.2027 H   0  0  0  0  0  0  0  0  0  0  0  0
   -1.3510   -2.2042    4.0928 H   0  0  0  0  0  0  0  0  0  0  0  0
   -2.2908   -1.8227    5.4908 H   0  0  0  0  0  0  0  0  0  0  0  0
   -0.9888    0.0362    3.5770 H   0  0  0  0  0  0  0  0  0  0  0  0
   -2.3998    0.2242    4.5225 H   0  0  0  0  0  0  0  0  0  0  0  0
    2.2249    1.8471    7.1774 H   0  0  0  0  0  0  0  0  0  0  0  0
    1.8916    2.6260    8.6054 H   0  0  0  0  0  0  0  0  0  0  0  0
    1.1407    3.1437    7.1386 H   0  0  0  0  0  0  0  0  0  0  0  0
   -1.4495    2.2280    9.3073 H   0  0  0  0  0  0  0  0  0  0  0  0
   -0.1359    3.2203    9.1069 H   0  0  0  0  0  0  0  0  0  0  0  0
   -2.3772    3.1107    7.3438 H   0  0  0  0  0  0  0  0  0  0  0  0
   -1.0193    4.1532    7.1644 H   0  0  0  0  0  0  0  0  0  0  0  0
   -2.0371    2.4135    5.2863 H   0  0  0  0  0  0  0  0  0  0  0  0
    1.7905   -1.6585    8.0642 H   0  0  0  0  0  0  0  0  0  0  0  0
   -0.4542   -8.8115    1.2221 H   0  0  0  0  0  0  0  0  0  0  0  0
  1  2  1  0
  1 35  1  0
  1 36  1  0
  1 37  1  0
  2 31  1  0
  2  3  1  0
  2 38  1  1
  3  4  1  0
  3 39  1  0
  3 40  1  0
  4  5  1  0
  4 41  1  0
  4 42  1  0
  5 24  1  0
  5  6  1  0
  5 43  1  6
  6 33  1  0
  6  7  1  1
  6  8  1  0
  7 44  1  0
  7 45  1  0
  7 46  1  0
  8  9  1  0
  9 10  1  0
  9 21  1  0
  9 47  1  6
 10 11  1  0
 10 48  1  0
 10 49  1  0
 11 20  1  0
 11 12  1  0
 12 13  2  0
 13 14  1  0
 14 20  2  0
 14 15  1  0
 15 16  1  0
 15 17  2  0
 16 50  1  0
 16 66  1  0
 17 18  1  0
 18 19  2  0
 18 51  1  0
 19 20  1  0
 21 34  1  0
 21 22  1  0
 21 52  1  1
 22 23  1  0
 22 53  1  0
 22 54  1  0
 23 24  1  0
 23 55  1  0
 23 56  1  0
 24 31  1  0
 24 25  1  1
 25 26  1  0
 26 27  1  0
 27 28  1  6
 27 29  1  0
 27 32  1  0
 28 57  1  0
 28 58  1  0
 28 59  1  0
 29 30  1  0
 29 60  1  0
 29 61  1  0
 30 31  1  0
 30 62  1  0
 30 63  1  0
 31 64  1  6
 32 33  1  0
 33 34  1  0
 33 65  1  1
M  END
>  <i_m_ct_stereo_status>  (47) 
1

>  <s_m_source_file>  (47) 
/var/tmp/pbs.5076255.sched01/tmpbdos_d33/0hajo06zg.sdf

>  <i_m_source_file_index>  (47) 
25

>  <i_lp_mmshare_version>  (47) 
48012

>  <i_f3d_flags>  (47) 
0

>  <s_epik_input>  (47) 
W0NIMl0xW0NIMl1bQ0BASF0oW0NIM10pW0NAQEhdMltDSDJdW0NIMl1bQ0BAXShPTzMpKFtDSDNdKU9bQ0BIXShbQ0BAXTQoW0NASF0xW0NAXTIzNSlbQ0gzXSlPW0NAQEhdKFtDSDJdW0NIMl01KVtDQEBIXShPNClbQ0gyXW4obm42KWMoYzY3KVtuSF1bY0hdbmNcNz1OL1tIXQ==

>  <s_epik_cmdline>  (47) 
J2VwaWtfcHl0aG9uJywgJy1waHQnLCAnMi4wJywgJy1waCcsICc3LjAnLCAnLXRuJywgJzgnLCAnLW1hJywgJzIwMCcsICctaW1hZScsICc8aW5maWxlLm1hZT4nLCAnLW9tYWUnLCAnPG91dGZpbGUubWFlPic=

>  <r_lp_tautomer_probability>  (47) 
1

>  <r_epik_Ionization_Penalty>  (47) 
2.34737e-05

>  <r_epik_Ionization_Penalty_Charging>  (47) 
0

>  <r_epik_Ionization_Penalty_Neutral>  (47) 
2.34737e-05

>  <r_epik_State_Penalty>  (47) 
-0

>  <r_epik_Charging_Adjusted_Penalty>  (47) 
0

>  <i_epik_Tot_Q>  (47) 
0

>  <i_epik_Tot_abs_Q>  (47) 
0

>  <s_epik_Chemistry_Notes>  (47) 
This compound contains an acetal/aminal-like group ( X-CH(R)-Y where X, Y are N, S, or O) that may be acid/base labile, releasing an aldehyde.

>  <s_lp_Force_Field>  (47) 
OPLS3e

>  <r_lp_Energy>  (47) 
240.388

>  <b_lp_Chiralities_Consistent>  (47) 
1

>  <s_lp_Variant>  (47) 
16:0-1

>  <s_i_glide_gridfile>  (47) 
pfpi4k_grid

>  <i_i_glide_lignum>  (47) 
25

>  <i_i_glide_rotatable_bonds>  (47) 
2

>  <r_i_docking_score>  (47) 
-3.01162

>  <r_i_glide_ligand_efficiency>  (47) 
-0.0885772

>  <r_i_glide_ligand_efficiency_sa>  (47) 
-0.286956

>  <r_i_glide_ligand_efficiency_ln>  (47) 
-0.665352

>  <r_i_glide_gscore>  (47) 
-3.01162

>  <r_i_glide_lipo>  (47) 
-0.0204828

>  <r_i_glide_hbond>  (47) 
-0.551812

>  <r_i_glide_metal>  (47) 
-0

>  <r_i_glide_rewards>  (47) 
-0.187245

>  <r_i_glide_evdw>  (47) 
-23.3089

>  <r_i_glide_ecoul>  (47) 
-7.43841

>  <r_i_glide_erotb>  (47) 
0.181116

>  <r_i_glide_esite>  (47) 
-0.151993

>  <r_i_glide_emodel>  (47) 
-34.764

>  <r_i_glide_energy>  (47) 
-30.7473

>  <r_i_glide_einternal>  (47) 
3.44587

>  <r_i_glide_intrahb_reward>  (47) 
-0

>  <i_i_glide_confnum>  (47) 
4

>  <i_i_glide_posenum>  (47) 
25

>  <r_i_glide_eff_state_penalty>  (47) 
0

>  <ligand_id>  (47) 
16

>  <original_smiles>  (47) 
CC1CCC2C3(C)OC(Cn4nnc5c(=N)nc[nH]c54)C4CCC25OOC(C)(CCC15)OC3O4

>  <smiles>  (47) 
[H]c1nc(N([H])[H])c2nnn(C([H])([H])C3([H])OC4(C([H])([H])[H])C5([H])OC3([H])C([H])([H])C([H])([H])C36OOC(C([H])([H])[H])(O5)C([H])([H])C([H])([H])C3([H])C([H])(C([H])([H])[H])C([H])([H])C([H])([H])C46[H])c2n1

$$$$
16:0:1
     RDKit          3D

 66 72  0  0  1  0  0  0  0  0999 V2000
   -2.7384    3.3439    4.3074 C   0  0  0  0  0  0  0  0  0  0  0  0
   -1.2902    2.8319    4.2487 C   0  0  2  0  0  0  0  0  0  0  0  0
   -0.9896    2.2332    2.8627 C   0  0  0  0  0  0  0  0  0  0  0  0
    0.4743    1.7827    2.7306 C   0  0  0  0  0  0  0  0  0  0  0  0
    0.8298    0.6328    3.7166 C   0  0  1  0  0  0  0  0  0  0  0  0
    2.3426    0.0943    3.7889 C   0  0  2  0  0  0  0  0  0  0  0  0
    3.4582    0.8619    3.0176 C   0  0  0  0  0  0  0  0  0  0  0  0
    2.3983   -1.0513    2.9280 O   0  0  0  0  0  0  0  0  0  0  0  0
    1.9668   -2.3034    3.4218 C   0  0  1  0  0  0  0  0  0  0  0  0
    3.1315   -3.3077    3.2827 C   0  0  0  0  0  0  0  0  0  0  0  0
    3.5533   -3.4534    1.8994 N   0  0  0  0  0  0  0  0  0  0  0  0
    2.8884   -4.3347    1.0992 N   0  0  0  0  0  0  0  0  0  0  0  0
    3.3982   -4.2587   -0.1077 N   0  0  0  0  0  0  0  0  0  0  0  0
    4.4239   -3.3199   -0.0731 C   0  0  0  0  0  0  0  0  0  0  0  0
    5.3113   -2.8067   -1.0418 C   0  0  0  0  0  0  0  0  0  0  0  0
    5.3205   -3.2040   -2.3836 N   0  0  0  0  0  0  0  0  0  0  0  0
    6.2131   -1.8618   -0.6637 N   0  0  0  0  0  0  0  0  0  0  0  0
    6.2324   -1.4608    0.6197 C   0  0  0  0  0  0  0  0  0  0  0  0
    5.4706   -1.8657    1.6398 N   0  0  0  0  0  0  0  0  0  0  0  0
    4.5603   -2.7984    1.2201 C   0  0  0  0  0  0  0  0  0  0  0  0
    1.3763   -2.2238    4.8403 C   0  0  2  0  0  0  0  0  0  0  0  0
   -0.2069   -2.1263    4.8872 C   0  0  0  0  0  0  0  0  0  0  0  0
   -1.0126   -0.7620    4.6760 C   0  0  0  0  0  0  0  0  0  0  0  0
   -0.1910    0.5258    4.9527 C   0  0  1  0  0  0  0  0  0  0  0  0
    0.2163   -0.0951    6.1252 O   0  0  0  0  0  0  0  0  0  0  0  0
    0.9101    0.7989    6.9792 O   0  0  0  0  0  0  0  0  0  0  0  0
    1.8710    1.6061    6.3059 C   0  0  1  0  0  0  0  0  0  0  0  0
    2.0540    2.8071    5.3093 C   0  0  0  0  0  0  0  0  0  0  0  0
    1.1046    2.5343    7.3129 C   0  0  0  0  0  0  0  0  0  0  0  0
   -0.4196    2.7087    6.7461 C   0  0  0  0  0  0  0  0  0  0  0  0
   -0.9372    1.8759    5.4344 C   0  0  1  0  0  0  0  0  0  0  0  0
    3.0390    0.8091    6.1696 O   0  0  0  0  0  0  0  0  0  0  0  0
    2.8862   -0.2934    5.2280 C   0  0  1  0  0  0  0  0  0  0  0  0
    2.1742   -1.4076    5.7392 O   0  0  0  0  0  0  0  0  0  0  0  0
   -3.4590    2.5435    4.1508 H   0  0  0  0  0  0  0  0  0  0  0  0
   -2.9298    4.0767    3.5244 H   0  0  0  0  0  0  0  0  0  0  0  0
   -2.9610    3.8086    5.2670 H   0  0  0  0  0  0  0  0  0  0  0  0
   -0.6892    3.7355    4.3175 H   0  0  0  0  0  0  0  0  0  0  0  0
   -1.6706    1.4096    2.6444 H   0  0  0  0  0  0  0  0  0  0  0  0
   -1.1922    2.9805    2.0964 H   0  0  0  0  0  0  0  0  0  0  0  0
    0.6336    1.4416    1.7094 H   0  0  0  0  0  0  0  0  0  0  0  0
    1.1087    2.6627    2.8076 H   0  0  0  0  0  0  0  0  0  0  0  0
    0.4397   -0.1333    3.0525 H   0  0  0  0  0  0  0  0  0  0  0  0
    4.0059    1.5901    3.6137 H   0  0  0  0  0  0  0  0  0  0  0  0
    3.0958    1.3400    2.1053 H   0  0  0  0  0  0  0  0  0  0  0  0
    4.2527    0.1885    2.6991 H   0  0  0  0  0  0  0  0  0  0  0  0
    1.1839   -2.6461    2.7492 H   0  0  0  0  0  0  0  0  0  0  0  0
    3.9885   -2.9811    3.8745 H   0  0  0  0  0  0  0  0  0  0  0  0
    2.8490   -4.2922    3.6623 H   0  0  0  0  0  0  0  0  0  0  0  0
    4.6774   -3.9137   -2.7103 H   0  0  0  0  0  0  0  0  0  0  0  0
    6.9604   -0.7086    0.8589 H   0  0  0  0  0  0  0  0  0  0  0  0
    1.5370   -3.2145    5.2613 H   0  0  0  0  0  0  0  0  0  0  0  0
   -0.5900   -2.8644    4.1949 H   0  0  0  0  0  0  0  0  0  0  0  0
   -0.5001   -2.5099    5.8679 H   0  0  0  0  0  0  0  0  0  0  0  0
   -1.4520   -0.7342    3.6841 H   0  0  0  0  0  0  0  0  0  0  0  0
   -1.8897   -0.8025    5.3237 H   0  0  0  0  0  0  0  0  0  0  0  0
    2.4331    2.5611    4.3555 H   0  0  0  0  0  0  0  0  0  0  0  0
    2.8432    3.4567    5.6844 H   0  0  0  0  0  0  0  0  0  0  0  0
    1.2161    3.4538    5.1089 H   0  0  0  0  0  0  0  0  0  0  0  0
    1.1054    2.2432    8.3816 H   0  0  0  0  0  0  0  0  0  0  0  0
    1.5532    3.5252    7.4231 H   0  0  0  0  0  0  0  0  0  0  0  0
   -1.0777    2.4426    7.5741 H   0  0  0  0  0  0  0  0  0  0  0  0
   -0.6042    3.7682    6.6026 H   0  0  0  0  0  0  0  0  0  0  0  0
   -1.9034    1.5034    5.7679 H   0  0  0  0  0  0  0  0  0  0  0  0
    3.8985   -0.6766    5.1072 H   0  0  0  0  0  0  0  0  0  0  0  0
    5.9814   -2.8391   -3.0521 H   0  0  0  0  0  0  0  0  0  0  0  0
  1  2  1  0
  1 35  1  0
  1 36  1  0
  1 37  1  0
  2 31  1  0
  2  3  1  0
  2 38  1  1
  3  4  1  0
  3 39  1  0
  3 40  1  0
  4  5  1  0
  4 41  1  0
  4 42  1  0
  5 24  1  0
  5  6  1  0
  5 43  1  6
  6 33  1  0
  6  7  1  6
  6  8  1  0
  7 44  1  0
  7 45  1  0
  7 46  1  0
  8  9  1  0
  9 10  1  0
  9 21  1  0
  9 47  1  6
 10 11  1  0
 10 48  1  0
 10 49  1  0
 11 20  1  0
 11 12  1  0
 12 13  2  0
 13 14  1  0
 14 20  2  0
 14 15  1  0
 15 16  1  0
 15 17  2  0
 16 50  1  0
 16 66  1  0
 17 18  1  0
 18 19  2  0
 18 51  1  0
 19 20  1  0
 21 34  1  0
 21 22  1  0
 21 52  1  1
 22 23  1  0
 22 53  1  0
 22 54  1  0
 23 24  1  0
 23 55  1  0
 23 56  1  0
 24 31  1  0
 24 25  1  1
 25 26  1  0
 26 27  1  0
 27 28  1  6
 27 29  1  0
 27 32  1  0
 28 57  1  0
 28 58  1  0
 28 59  1  0
 29 30  1  0
 29 60  1  0
 29 61  1  0
 30 31  1  0
 30 62  1  0
 30 63  1  0
 31 64  1  1
 32 33  1  0
 33 34  1  0
 33 65  1  6
M  END
>  <i_m_ct_stereo_status>  (48) 
1

>  <s_m_source_file>  (48) 
/var/tmp/pbs.5076255.sched01/tmpbdos_d33/0hajo06zg.sdf

>  <i_m_source_file_index>  (48) 
25

>  <i_lp_mmshare_version>  (48) 
48012

>  <i_f3d_flags>  (48) 
0

>  <s_epik_input>  (48) 
W0NIMl0xW0NIMl1bQ0BASF0oW0NIM10pW0NAQEhdMltDSDJdW0NIMl1bQ0BAXShPTzMpKFtDSDNdKU9bQ0BIXShbQ0BAXTQoW0NASF0xW0NAXTIzNSlbQ0gzXSlPW0NAQEhdKFtDSDJdW0NIMl01KVtDQEBIXShPNClbQ0gyXW4obm42KWMoYzY3KVtuSF1bY0hdbmNcNz1OL1tIXQ==

>  <s_epik_cmdline>  (48) 
J2VwaWtfcHl0aG9uJywgJy1waHQnLCAnMi4wJywgJy1waCcsICc3LjAnLCAnLXRuJywgJzgnLCAnLW1hJywgJzIwMCcsICctaW1hZScsICc8aW5maWxlLm1hZT4nLCAnLW9tYWUnLCAnPG91dGZpbGUubWFlPic=

>  <r_lp_tautomer_probability>  (48) 
1

>  <r_epik_Ionization_Penalty>  (48) 
2.34737e-05

>  <r_epik_Ionization_Penalty_Charging>  (48) 
0

>  <r_epik_Ionization_Penalty_Neutral>  (48) 
2.34737e-05

>  <r_epik_State_Penalty>  (48) 
-0

>  <r_epik_Charging_Adjusted_Penalty>  (48) 
0

>  <i_epik_Tot_Q>  (48) 
0

>  <i_epik_Tot_abs_Q>  (48) 
0

>  <s_epik_Chemistry_Notes>  (48) 
This compound contains an acetal/aminal-like group ( X-CH(R)-Y where X, Y are N, S, or O) that may be acid/base labile, releasing an aldehyde.

>  <s_lp_Force_Field>  (48) 
OPLS3e

>  <r_lp_Energy>  (48) 
240.388

>  <b_lp_Chiralities_Consistent>  (48) 
1

>  <s_lp_Variant>  (48) 
16:0-1

>  <s_i_glide_gridfile>  (48) 
pfpi4k_grid

>  <i_i_glide_lignum>  (48) 
25

>  <i_i_glide_rotatable_bonds>  (48) 
2

>  <r_i_docking_score>  (48) 
-2.16156

>  <r_i_glide_ligand_efficiency>  (48) 
-0.0635753

>  <r_i_glide_ligand_efficiency_sa>  (48) 
-0.205959

>  <r_i_glide_ligand_efficiency_ln>  (48) 
-0.477549

>  <r_i_glide_gscore>  (48) 
-2.16156

>  <r_i_glide_lipo>  (48) 
-0.0445576

>  <r_i_glide_hbond>  (48) 
-0.0705169

>  <r_i_glide_metal>  (48) 
-0

>  <r_i_glide_rewards>  (48) 
-0.349877

>  <r_i_glide_evdw>  (48) 
-26.8808

>  <r_i_glide_ecoul>  (48) 
-3.33058

>  <r_i_glide_erotb>  (48) 
0.181116

>  <r_i_glide_esite>  (48) 
-0.0340977

>  <r_i_glide_emodel>  (48) 
-34.252

>  <r_i_glide_energy>  (48) 
-30.2114

>  <r_i_glide_einternal>  (48) 
0.12472

>  <r_i_glide_intrahb_reward>  (48) 
-0

>  <i_i_glide_confnum>  (48) 
1

>  <i_i_glide_posenum>  (48) 
17

>  <r_i_glide_eff_state_penalty>  (48) 
0

>  <ligand_id>  (48) 
16

>  <original_smiles>  (48) 
CC1CCC2C3(C)OC(Cn4nnc5c(=N)nc[nH]c54)C4CCC25OOC(C)(CCC15)OC3O4

>  <smiles>  (48) 
[H]c1nc(N([H])[H])c2nnn(C([H])([H])C3([H])OC4(C([H])([H])[H])C5([H])OC3([H])C([H])([H])C([H])([H])C36OOC(C([H])([H])[H])(O5)C([H])([H])C([H])([H])C3([H])C([H])(C([H])([H])[H])C([H])([H])C([H])([H])C46[H])c2n1

$$$$
16:0:2
     RDKit          3D

 66 72  0  0  1  0  0  0  0  0999 V2000
    1.4819  -10.9514    2.9500 C   0  0  0  0  0  0  0  0  0  0  0  0
    1.1148   -9.8254    3.9350 C   0  0  2  0  0  0  0  0  0  0  0  0
    0.2859   -8.7373    3.2247 C   0  0  0  0  0  0  0  0  0  0  0  0
   -0.1633   -7.6235    4.1866 C   0  0  0  0  0  0  0  0  0  0  0  0
    1.0366   -6.8466    4.7990 C   0  0  1  0  0  0  0  0  0  0  0  0
    0.7570   -5.7051    5.9037 C   0  0  2  0  0  0  0  0  0  0  0  0
   -0.6810   -5.5321    6.4868 C   0  0  0  0  0  0  0  0  0  0  0  0
    0.7203   -4.4660    5.1893 O   0  0  0  0  0  0  0  0  0  0  0  0
    1.9362   -3.8066    4.8723 C   0  0  1  0  0  0  0  0  0  0  0  0
    1.9074   -2.3951    5.4981 C   0  0  0  0  0  0  0  0  0  0  0  0
    0.9517   -1.5084    4.8477 N   0  0  0  0  0  0  0  0  0  0  0  0
   -0.3648   -1.5216    5.2234 N   0  0  0  0  0  0  0  0  0  0  0  0
   -1.0086   -0.6203    4.5463 N   0  0  0  0  0  0  0  0  0  0  0  0
   -0.0954    0.0170    3.7048 C   0  0  0  0  0  0  0  0  0  0  0  0
   -0.1932    1.0693    2.7649 C   0  0  0  0  0  0  0  0  0  0  0  0
   -1.3739    1.7520    2.4982 N   0  0  0  0  0  0  0  0  0  0  0  0
    0.9335    1.4424    2.1093 N   0  0  0  0  0  0  0  0  0  0  0  0
    2.0830    0.8131    2.3661 C   0  0  0  0  0  0  0  0  0  0  0  0
    2.3239   -0.1825    3.2274 N   0  0  0  0  0  0  0  0  0  0  0  0
    1.1721   -0.5500    3.8797 C   0  0  0  0  0  0  0  0  0  0  0  0
    3.1782   -4.6213    5.2661 C   0  0  2  0  0  0  0  0  0  0  0  0
    3.8158   -5.4691    4.0805 C   0  0  0  0  0  0  0  0  0  0  0  0
    3.2583   -6.8888    3.6217 C   0  0  0  0  0  0  0  0  0  0  0  0
    2.4242   -7.6468    4.7070 C   0  0  1  0  0  0  0  0  0  0  0  0
    3.4294   -7.3254    5.5961 O   0  0  0  0  0  0  0  0  0  0  0  0
    3.2962   -8.0107    6.8259 O   0  0  0  0  0  0  0  0  0  0  0  0
    1.9915   -8.0076    7.3574 C   0  0  1  0  0  0  0  0  0  0  0  0
    0.5355   -8.5574    7.1633 C   0  0  0  0  0  0  0  0  0  0  0  0
    2.5574   -9.4619    7.5486 C   0  0  0  0  0  0  0  0  0  0  0  0
    2.6646  -10.1320    6.0571 C   0  0  0  0  0  0  0  0  0  0  0  0
    2.3610   -9.2638    4.6986 C   0  0  1  0  0  0  0  0  0  0  0  0
    1.8555   -6.7426    8.0025 O   0  0  0  0  0  0  0  0  0  0  0  0
    1.8080   -5.6062    7.0911 C   0  0  1  0  0  0  0  0  0  0  0  0
    3.0661   -5.1803    6.6029 O   0  0  0  0  0  0  0  0  0  0  0  0
    2.1181  -10.5871    2.1419 H   0  0  0  0  0  0  0  0  0  0  0  0
    0.5891  -11.3838    2.4929 H   0  0  0  0  0  0  0  0  0  0  0  0
    2.0083  -11.7678    3.4474 H   0  0  0  0  0  0  0  0  0  0  0  0
    0.4346  -10.2990    4.6418 H   0  0  0  0  0  0  0  0  0  0  0  0
    0.8494   -8.3192    2.3916 H   0  0  0  0  0  0  0  0  0  0  0  0
   -0.5990   -9.1956    2.7800 H   0  0  0  0  0  0  0  0  0  0  0  0
   -0.7978   -6.9269    3.6406 H   0  0  0  0  0  0  0  0  0  0  0  0
   -0.8312   -8.0656    4.9169 H   0  0  0  0  0  0  0  0  0  0  0  0
    1.1213   -6.1885    3.9412 H   0  0  0  0  0  0  0  0  0  0  0  0
   -0.8643   -6.0578    7.4227 H   0  0  0  0  0  0  0  0  0  0  0  0
   -1.4507   -5.8153    5.7688 H   0  0  0  0  0  0  0  0  0  0  0  0
   -0.8783   -4.4911    6.7583 H   0  0  0  0  0  0  0  0  0  0  0  0
    1.9502   -3.6758    3.7920 H   0  0  0  0  0  0  0  0  0  0  0  0
    1.6710   -2.4430    6.5644 H   0  0  0  0  0  0  0  0  0  0  0  0
    2.8854   -1.9157    5.4147 H   0  0  0  0  0  0  0  0  0  0  0  0
   -2.2629    1.4786    2.9132 H   0  0  0  0  0  0  0  0  0  0  0  0
    2.9413    1.1782    1.8094 H   0  0  0  0  0  0  0  0  0  0  0  0
    3.9627   -3.8879    5.4350 H   0  0  0  0  0  0  0  0  0  0  0  0
    3.8789   -4.8334    3.1951 H   0  0  0  0  0  0  0  0  0  0  0  0
    4.8587   -5.6320    4.3596 H   0  0  0  0  0  0  0  0  0  0  0  0
    2.6876   -6.7884    2.7009 H   0  0  0  0  0  0  0  0  0  0  0  0
    4.1124   -7.4997    3.3215 H   0  0  0  0  0  0  0  0  0  0  0  0
   -0.1854   -7.8571    6.8401 H   0  0  0  0  0  0  0  0  0  0  0  0
    0.1407   -8.8417    8.1358 H   0  0  0  0  0  0  0  0  0  0  0  0
    0.3853   -9.4190    6.5308 H   0  0  0  0  0  0  0  0  0  0  0  0
    3.4942   -9.5792    8.1216 H   0  0  0  0  0  0  0  0  0  0  0  0
    1.9150  -10.0859    8.1743 H   0  0  0  0  0  0  0  0  0  0  0  0
    3.6898  -10.5027    5.9803 H   0  0  0  0  0  0  0  0  0  0  0  0
    2.0642  -11.0443    6.0555 H   0  0  0  0  0  0  0  0  0  0  0  0
    3.2072   -9.5330    4.0690 H   0  0  0  0  0  0  0  0  0  0  0  0
    1.5192   -4.7707    7.7315 H   0  0  0  0  0  0  0  0  0  0  0  0
   -1.3849    2.4844    1.8032 H   0  0  0  0  0  0  0  0  0  0  0  0
  1  2  1  0
  1 35  1  0
  1 36  1  0
  1 37  1  0
  2 31  1  0
  2  3  1  0
  2 38  1  1
  3  4  1  0
  3 39  1  0
  3 40  1  0
  4  5  1  0
  4 41  1  0
  4 42  1  0
  5 24  1  0
  5  6  1  0
  5 43  1  6
  6 33  1  0
  6  7  1  1
  6  8  1  0
  7 44  1  0
  7 45  1  0
  7 46  1  0
  8  9  1  0
  9 10  1  0
  9 21  1  0
  9 47  1  6
 10 11  1  0
 10 48  1  0
 10 49  1  0
 11 20  1  0
 11 12  1  0
 12 13  2  0
 13 14  1  0
 14 20  2  0
 14 15  1  0
 15 16  1  0
 15 17  2  0
 16 50  1  0
 16 66  1  0
 17 18  1  0
 18 19  2  0
 18 51  1  0
 19 20  1  0
 21 34  1  0
 21 22  1  0
 21 52  1  1
 22 23  1  0
 22 53  1  0
 22 54  1  0
 23 24  1  0
 23 55  1  0
 23 56  1  0
 24 31  1  0
 24 25  1  1
 25 26  1  0
 26 27  1  0
 27 28  1  6
 27 29  1  0
 27 32  1  0
 28 57  1  0
 28 58  1  0
 28 59  1  0
 29 30  1  0
 29 60  1  0
 29 61  1  0
 30 31  1  0
 30 62  1  0
 30 63  1  0
 31 64  1  6
 32 33  1  0
 33 34  1  0
 33 65  1  1
M  END
>  <i_m_ct_stereo_status>  (49) 
1

>  <s_m_source_file>  (49) 
/var/tmp/pbs.5076255.sched01/tmpbdos_d33/0hajo06zg.sdf

>  <i_m_source_file_index>  (49) 
25

>  <i_lp_mmshare_version>  (49) 
48012

>  <i_f3d_flags>  (49) 
0

>  <s_epik_input>  (49) 
W0NIMl0xW0NIMl1bQ0BASF0oW0NIM10pW0NAQEhdMltDSDJdW0NIMl1bQ0BAXShPTzMpKFtDSDNdKU9bQ0BIXShbQ0BAXTQoW0NASF0xW0NAXTIzNSlbQ0gzXSlPW0NAQEhdKFtDSDJdW0NIMl01KVtDQEBIXShPNClbQ0gyXW4obm42KWMoYzY3KVtuSF1bY0hdbmNcNz1OL1tIXQ==

>  <s_epik_cmdline>  (49) 
J2VwaWtfcHl0aG9uJywgJy1waHQnLCAnMi4wJywgJy1waCcsICc3LjAnLCAnLXRuJywgJzgnLCAnLW1hJywgJzIwMCcsICctaW1hZScsICc8aW5maWxlLm1hZT4nLCAnLW9tYWUnLCAnPG91dGZpbGUubWFlPic=

>  <r_lp_tautomer_probability>  (49) 
1

>  <r_epik_Ionization_Penalty>  (49) 
2.34737e-05

>  <r_epik_Ionization_Penalty_Charging>  (49) 
0

>  <r_epik_Ionization_Penalty_Neutral>  (49) 
2.34737e-05

>  <r_epik_State_Penalty>  (49) 
-0

>  <r_epik_Charging_Adjusted_Penalty>  (49) 
0

>  <i_epik_Tot_Q>  (49) 
0

>  <i_epik_Tot_abs_Q>  (49) 
0

>  <s_epik_Chemistry_Notes>  (49) 
This compound contains an acetal/aminal-like group ( X-CH(R)-Y where X, Y are N, S, or O) that may be acid/base labile, releasing an aldehyde.

>  <s_lp_Force_Field>  (49) 
OPLS3e

>  <r_lp_Energy>  (49) 
240.388

>  <b_lp_Chiralities_Consistent>  (49) 
1

>  <s_lp_Variant>  (49) 
16:0-1

>  <s_i_glide_gridfile>  (49) 
pfpi4k_grid

>  <i_i_glide_lignum>  (49) 
25

>  <i_i_glide_rotatable_bonds>  (49) 
2

>  <r_i_docking_score>  (49) 
-2.11927

>  <r_i_glide_ligand_efficiency>  (49) 
-0.0623316

>  <r_i_glide_ligand_efficiency_sa>  (49) 
-0.20193

>  <r_i_glide_ligand_efficiency_ln>  (49) 
-0.468207

>  <r_i_glide_gscore>  (49) 
-2.11927

>  <r_i_glide_lipo>  (49) 
-0.20165

>  <r_i_glide_hbond>  (49) 
-0.216595

>  <r_i_glide_metal>  (49) 
-0

>  <r_i_glide_rewards>  (49) 
-0.187245

>  <r_i_glide_evdw>  (49) 
-25.2223

>  <r_i_glide_ecoul>  (49) 
-2.16971

>  <r_i_glide_erotb>  (49) 
0.181116

>  <r_i_glide_esite>  (49) 
-0.108327

>  <r_i_glide_emodel>  (49) 
-30.9987

>  <r_i_glide_energy>  (49) 
-27.392

>  <r_i_glide_einternal>  (49) 
0.801336

>  <r_i_glide_intrahb_reward>  (49) 
-0

>  <i_i_glide_confnum>  (49) 
2

>  <i_i_glide_posenum>  (49) 
9

>  <r_i_glide_eff_state_penalty>  (49) 
0

>  <ligand_id>  (49) 
16

>  <original_smiles>  (49) 
CC1CCC2C3(C)OC(Cn4nnc5c(=N)nc[nH]c54)C4CCC25OOC(C)(CCC15)OC3O4

>  <smiles>  (49) 
[H]c1nc(N([H])[H])c2nnn(C([H])([H])C3([H])OC4(C([H])([H])[H])C5([H])OC3([H])C([H])([H])C([H])([H])C36OOC(C([H])([H])[H])(O5)C([H])([H])C([H])([H])C3([H])C([H])(C([H])([H])[H])C([H])([H])C([H])([H])C46[H])c2n1

$$$$
17:0:0
     RDKit          3D

 48 51  0  0  1  0  0  0  0  0999 V2000
    4.1995   -0.6005   -4.1570 C   0  0  0  0  0  0  0  0  0  0  0  0
    4.4337   -1.5282   -3.3990 C   0  0  0  0  0  0  0  0  0  0  0  0
    4.7377   -2.6652   -2.5090 C   0  0  1  0  0  0  0  0  0  0  0  0
    4.6186   -3.8580   -3.2699 O   0  0  0  0  0  0  0  0  0  0  0  0
    6.1894   -2.6683   -1.9912 C   0  0  0  0  0  0  0  0  0  0  0  0
    6.1798   -3.4035   -0.6402 C   0  0  0  0  0  0  0  0  0  0  0  0
    4.7076   -3.7383   -0.3258 C   0  0  1  0  0  0  0  0  0  0  0  0
    4.3174   -3.7819    1.1799 C   0  0  1  0  0  0  0  0  0  0  0  0
    5.2366   -4.7292    1.9845 C   0  0  0  0  0  0  0  0  0  0  0  0
    5.1147   -4.5704    3.4846 C   0  0  0  0  0  0  0  0  0  0  0  0
    4.4894   -3.5482    4.0933 C   0  0  0  0  0  0  0  0  0  0  0  0
    4.3043   -3.4939    5.5973 C   0  0  0  0  0  0  0  0  0  0  0  0
    2.8072   -3.5602    5.8805 C   0  0  0  0  0  0  0  0  0  0  0  0
    2.3336   -4.3386    6.7030 O   0  0  0  0  0  0  0  0  0  0  0  0
    1.9300   -2.5686    5.1152 C   0  0  0  0  0  0  0  0  0  0  0  0
    2.2769   -2.5145    3.6075 C   0  0  0  0  0  0  0  0  0  0  0  0
    3.8018   -2.4218    3.3288 C   0  0  2  0  0  0  0  0  0  0  0  0
    4.2232   -2.3816    1.8297 C   0  0  2  0  0  0  0  0  0  0  0  0
    3.3452   -1.4476    0.9795 C   0  0  0  0  0  0  0  0  0  0  0  0
    3.8325   -1.3711   -0.4739 C   0  0  0  0  0  0  0  0  0  0  0  0
    3.8921   -2.7538   -1.1952 C   0  0  1  0  0  0  0  0  0  0  0  0
    2.4564   -3.2587   -1.4617 C   0  0  0  0  0  0  0  0  0  0  0  0
    3.9758    0.2148   -4.8070 H   0  0  0  0  0  0  0  0  0  0  0  0
    4.0017   -4.4402   -2.8472 H   0  0  0  0  0  0  0  0  0  0  0  0
    6.8942   -3.1122   -2.7017 H   0  0  0  0  0  0  0  0  0  0  0  0
    6.5263   -1.6481   -1.8175 H   0  0  0  0  0  0  0  0  0  0  0  0
    6.7802   -4.3087   -0.6804 H   0  0  0  0  0  0  0  0  0  0  0  0
    6.6268   -2.7661    0.1238 H   0  0  0  0  0  0  0  0  0  0  0  0
    4.5359   -4.7383   -0.7257 H   0  0  0  0  0  0  0  0  0  0  0  0
    3.3149   -4.2068    1.2332 H   0  0  0  0  0  0  0  0  0  0  0  0
    5.0009   -5.7627    1.7269 H   0  0  0  0  0  0  0  0  0  0  0  0
    6.2891   -4.5762    1.7400 H   0  0  0  0  0  0  0  0  0  0  0  0
    5.5629   -5.3539    4.0803 H   0  0  0  0  0  0  0  0  0  0  0  0
    4.8198   -4.3181    6.0898 H   0  0  0  0  0  0  0  0  0  0  0  0
    4.7018   -2.5612    5.9960 H   0  0  0  0  0  0  0  0  0  0  0  0
    0.8792   -2.8251    5.2575 H   0  0  0  0  0  0  0  0  0  0  0  0
    2.0768   -1.5882    5.5692 H   0  0  0  0  0  0  0  0  0  0  0  0
    1.8734   -3.4044    3.1217 H   0  0  0  0  0  0  0  0  0  0  0  0
    1.7550   -1.6581    3.1783 H   0  0  0  0  0  0  0  0  0  0  0  0
    4.1485   -1.4879    3.7731 H   0  0  0  0  0  0  0  0  0  0  0  0
    5.2286   -1.9615    1.8129 H   0  0  0  0  0  0  0  0  0  0  0  0
    2.3056   -1.7805    0.9836 H   0  0  0  0  0  0  0  0  0  0  0  0
    3.3428   -0.4434    1.4115 H   0  0  0  0  0  0  0  0  0  0  0  0
    3.1746   -0.6972   -1.0199 H   0  0  0  0  0  0  0  0  0  0  0  0
    4.8109   -0.8893   -0.4691 H   0  0  0  0  0  0  0  0  0  0  0  0
    1.8862   -3.3478   -0.5397 H   0  0  0  0  0  0  0  0  0  0  0  0
    2.4273   -4.2333   -1.9200 H   0  0  0  0  0  0  0  0  0  0  0  0
    1.9083   -2.5868   -2.1207 H   0  0  0  0  0  0  0  0  0  0  0  0
  1  2  3  0
  1 23  1  0
  3  2  1  6
  3 21  1  0
  3  4  1  0
  3  5  1  0
  4 24  1  0
  5  6  1  0
  5 25  1  0
  5 26  1  0
  6  7  1  0
  6 27  1  0
  6 28  1  0
  7 21  1  0
  7  8  1  0
  7 29  1  6
  8 18  1  0
  8  9  1  0
  8 30  1  6
  9 10  1  0
  9 31  1  0
  9 32  1  0
 10 11  2  0
 10 33  1  0
 11 17  1  0
 11 12  1  0
 12 13  1  0
 12 34  1  0
 12 35  1  0
 13 14  2  0
 13 15  1  0
 15 16  1  0
 15 36  1  0
 15 37  1  0
 16 17  1  0
 16 38  1  0
 16 39  1  0
 17 18  1  0
 17 40  1  1
 18 19  1  0
 18 41  1  1
 19 20  1  0
 19 42  1  0
 19 43  1  0
 20 21  1  0
 20 44  1  0
 20 45  1  0
 21 22  1  6
 22 46  1  0
 22 47  1  0
 22 48  1  0
M  END
>  <i_m_ct_stereo_status>  (50) 
1

>  <s_m_source_file>  (50) 
/var/tmp/pbs.5076255.sched01/tmpbdos_d33/0hajo06zg.sdf

>  <i_m_source_file_index>  (50) 
26

>  <i_lp_mmshare_version>  (50) 
48012

>  <i_f3d_flags>  (50) 
0

>  <s_epik_input>  (50) 
W0NIXSNDW0NAQF0xKFtPSF0pW0NIMl1bQ0gyXVtDQEhdKFtDQF0xMltDSDNdKVtDQEBIXTNbQ0BASF0oW0NIMl1bQ0gyXTIpW0NAQEhdNEMoPVtDSF1bQ0gyXTMpW0NIMl1DKD1PKVtDSDJdW0NIMl00

>  <s_epik_cmdline>  (50) 
J2VwaWtfcHl0aG9uJywgJy1waHQnLCAnMi4wJywgJy1waCcsICc3LjAnLCAnLXRuJywgJzgnLCAnLW1hJywgJzIwMCcsICctaW1hZScsICc8aW5maWxlLm1hZT4nLCAnLW9tYWUnLCAnPG91dGZpbGUubWFlPic=

>  <r_lp_tautomer_probability>  (50) 
1

>  <r_epik_Ionization_Penalty>  (50) 
2.03209e-07

>  <r_epik_Ionization_Penalty_Charging>  (50) 
0

>  <r_epik_Ionization_Penalty_Neutral>  (50) 
2.03209e-07

>  <r_epik_State_Penalty>  (50) 
-0

>  <r_epik_Charging_Adjusted_Penalty>  (50) 
0

>  <i_epik_Tot_Q>  (50) 
0

>  <i_epik_Tot_abs_Q>  (50) 
0

>  <s_lp_Force_Field>  (50) 
OPLS3e

>  <r_lp_Energy>  (50) 
37.5252

>  <b_lp_Chiralities_Consistent>  (50) 
1

>  <s_lp_Variant>  (50) 
17:0-1

>  <s_i_glide_gridfile>  (50) 
pfpi4k_grid

>  <i_i_glide_lignum>  (50) 
26

>  <i_i_glide_rotatable_bonds>  (50) 
2

>  <r_i_docking_score>  (50) 
-3.91961

>  <r_i_glide_ligand_efficiency>  (50) 
-0.178164

>  <r_i_glide_ligand_efficiency_sa>  (50) 
-0.499223

>  <r_i_glide_ligand_efficiency_ln>  (50) 
-0.958095

>  <r_i_glide_gscore>  (50) 
-3.91961

>  <r_i_glide_lipo>  (50) 
-0.687192

>  <r_i_glide_hbond>  (50) 
-0.32

>  <r_i_glide_metal>  (50) 
-0

>  <r_i_glide_rewards>  (50) 
-1.37441

>  <r_i_glide_evdw>  (50) 
-22.8256

>  <r_i_glide_ecoul>  (50) 
-4.01857

>  <r_i_glide_erotb>  (50) 
0.206062

>  <r_i_glide_esite>  (50) 
0

>  <r_i_glide_emodel>  (50) 
-32.5081

>  <r_i_glide_energy>  (50) 
-26.8442

>  <r_i_glide_einternal>  (50) 
1.20259

>  <r_i_glide_intrahb_reward>  (50) 
-0

>  <i_i_glide_confnum>  (50) 
1

>  <i_i_glide_posenum>  (50) 
9

>  <r_i_glide_eff_state_penalty>  (50) 
0

>  <ligand_id>  (50) 
17

>  <original_smiles>  (50) 
C#CC1(O)CCC2C3CC=C4CC(=O)CCC4C3CCC21C

>  <smiles>  (50) 
[H]C#CC1(O[H])C([H])([H])C([H])([H])C2([H])C3([H])C([H])([H])C([H])=C4C([H])([H])C(=O)C([H])([H])C([H])([H])C4([H])C3([H])C([H])([H])C([H])([H])C12C([H])([H])[H]

$$$$
17:0:1
     RDKit          3D

 48 51  0  0  1  0  0  0  0  0999 V2000
    4.4665   -0.2493   -2.7195 C   0  0  0  0  0  0  0  0  0  0  0  0
    4.5823   -1.3746   -2.2629 C   0  0  0  0  0  0  0  0  0  0  0  0
    4.7279   -2.7458   -1.7379 C   0  0  1  0  0  0  0  0  0  0  0  0
    4.6696   -3.6556   -2.8272 O   0  0  0  0  0  0  0  0  0  0  0  0
    6.0975   -2.9913   -1.0769 C   0  0  0  0  0  0  0  0  0  0  0  0
    5.8835   -4.1031   -0.0337 C   0  0  0  0  0  0  0  0  0  0  0  0
    4.3712   -4.4064   -0.0045 C   0  0  1  0  0  0  0  0  0  0  0  0
    3.7805   -4.8757    1.3588 C   0  0  1  0  0  0  0  0  0  0  0  0
    4.5577   -6.0851    1.9262 C   0  0  0  0  0  0  0  0  0  0  0  0
    4.2424   -6.3821    3.3801 C   0  0  0  0  0  0  0  0  0  0  0  0
    3.5762   -5.5520    4.1940 C   0  0  0  0  0  0  0  0  0  0  0  0
    3.1907   -5.9433    5.6123 C   0  0  0  0  0  0  0  0  0  0  0  0
    1.6696   -5.9856    5.6908 C   0  0  0  0  0  0  0  0  0  0  0  0
    1.0629   -6.9366    6.1725 O   0  0  0  0  0  0  0  0  0  0  0  0
    0.9319   -4.7499    5.1687 C   0  0  0  0  0  0  0  0  0  0  0  0
    1.4772   -4.2664    3.8028 C   0  0  0  0  0  0  0  0  0  0  0  0
    3.0258   -4.2013    3.7455 C   0  0  2  0  0  0  0  0  0  0  0  0
    3.6425   -3.7364    2.3919 C   0  0  2  0  0  0  0  0  0  0  0  0
    2.9102   -2.5307    1.7759 C   0  0  0  0  0  0  0  0  0  0  0  0
    3.5870   -2.0488    0.4807 C   0  0  0  0  0  0  0  0  0  0  0  0
    3.7074   -3.1540   -0.6213 C   0  0  1  0  0  0  0  0  0  0  0  0
    2.3100   -3.4647   -1.2037 C   0  0  0  0  0  0  0  0  0  0  0  0
    4.3585    0.7388   -3.1168 H   0  0  0  0  0  0  0  0  0  0  0  0
    4.0541   -4.3461   -2.6243 H   0  0  0  0  0  0  0  0  0  0  0  0
    6.8758   -3.2427   -1.8052 H   0  0  0  0  0  0  0  0  0  0  0  0
    6.4373   -2.0920   -0.5560 H   0  0  0  0  0  0  0  0  0  0  0  0
    6.4450   -5.0012   -0.2943 H   0  0  0  0  0  0  0  0  0  0  0  0
    6.2473   -3.7603    0.9353 H   0  0  0  0  0  0  0  0  0  0  0  0
    4.2202   -5.2234   -0.7105 H   0  0  0  0  0  0  0  0  0  0  0  0
    2.7691   -5.2274    1.1565 H   0  0  0  0  0  0  0  0  0  0  0  0
    4.3235   -6.9738    1.3389 H   0  0  0  0  0  0  0  0  0  0  0  0
    5.6362   -5.9410    1.8684 H   0  0  0  0  0  0  0  0  0  0  0  0
    4.5841   -7.3398    3.7519 H   0  0  0  0  0  0  0  0  0  0  0  0
    3.6136   -6.9116    5.8833 H   0  0  0  0  0  0  0  0  0  0  0  0
    3.5631   -5.2081    6.3231 H   0  0  0  0  0  0  0  0  0  0  0  0
   -0.1344   -4.9643    5.1011 H   0  0  0  0  0  0  0  0  0  0  0  0
    1.0484   -3.9687    5.9173 H   0  0  0  0  0  0  0  0  0  0  0  0
    1.1171   -4.9395    3.0232 H   0  0  0  0  0  0  0  0  0  0  0  0
    1.0425   -3.2845    3.6026 H   0  0  0  0  0  0  0  0  0  0  0  0
    3.3421   -3.4748    4.4942 H   0  0  0  0  0  0  0  0  0  0  0  0
    4.6532   -3.4027    2.6225 H   0  0  0  0  0  0  0  0  0  0  0  0
    1.8703   -2.7727    1.5565 H   0  0  0  0  0  0  0  0  0  0  0  0
    2.8868   -1.7076    2.4941 H   0  0  0  0  0  0  0  0  0  0  0  0
    3.0278   -1.1913    0.0964 H   0  0  0  0  0  0  0  0  0  0  0  0
    4.5746   -1.6625    0.7510 H   0  0  0  0  0  0  0  0  0  0  0  0
    1.6328   -3.7929   -0.4212 H   0  0  0  0  0  0  0  0  0  0  0  0
    2.3214   -4.2516   -1.9325 H   0  0  0  0  0  0  0  0  0  0  0  0
    1.8659   -2.6234   -1.7179 H   0  0  0  0  0  0  0  0  0  0  0  0
  1  2  3  0
  1 23  1  0
  3  2  1  6
  3 21  1  0
  3  4  1  0
  3  5  1  0
  4 24  1  0
  5  6  1  0
  5 25  1  0
  5 26  1  0
  6  7  1  0
  6 27  1  0
  6 28  1  0
  7 21  1  0
  7  8  1  0
  7 29  1  6
  8 18  1  0
  8  9  1  0
  8 30  1  6
  9 10  1  0
  9 31  1  0
  9 32  1  0
 10 11  2  0
 10 33  1  0
 11 17  1  0
 11 12  1  0
 12 13  1  0
 12 34  1  0
 12 35  1  0
 13 14  2  0
 13 15  1  0
 15 16  1  0
 15 36  1  0
 15 37  1  0
 16 17  1  0
 16 38  1  0
 16 39  1  0
 17 18  1  0
 17 40  1  1
 18 19  1  0
 18 41  1  1
 19 20  1  0
 19 42  1  0
 19 43  1  0
 20 21  1  0
 20 44  1  0
 20 45  1  0
 21 22  1  6
 22 46  1  0
 22 47  1  0
 22 48  1  0
M  END
>  <i_m_ct_stereo_status>  (51) 
1

>  <s_m_source_file>  (51) 
/var/tmp/pbs.5076255.sched01/tmpbdos_d33/0hajo06zg.sdf

>  <i_m_source_file_index>  (51) 
26

>  <i_lp_mmshare_version>  (51) 
48012

>  <i_f3d_flags>  (51) 
0

>  <s_epik_input>  (51) 
W0NIXSNDW0NAQF0xKFtPSF0pW0NIMl1bQ0gyXVtDQEhdKFtDQF0xMltDSDNdKVtDQEBIXTNbQ0BASF0oW0NIMl1bQ0gyXTIpW0NAQEhdNEMoPVtDSF1bQ0gyXTMpW0NIMl1DKD1PKVtDSDJdW0NIMl00

>  <s_epik_cmdline>  (51) 
J2VwaWtfcHl0aG9uJywgJy1waHQnLCAnMi4wJywgJy1waCcsICc3LjAnLCAnLXRuJywgJzgnLCAnLW1hJywgJzIwMCcsICctaW1hZScsICc8aW5maWxlLm1hZT4nLCAnLW9tYWUnLCAnPG91dGZpbGUubWFlPic=

>  <r_lp_tautomer_probability>  (51) 
1

>  <r_epik_Ionization_Penalty>  (51) 
2.03209e-07

>  <r_epik_Ionization_Penalty_Charging>  (51) 
0

>  <r_epik_Ionization_Penalty_Neutral>  (51) 
2.03209e-07

>  <r_epik_State_Penalty>  (51) 
-0

>  <r_epik_Charging_Adjusted_Penalty>  (51) 
0

>  <i_epik_Tot_Q>  (51) 
0

>  <i_epik_Tot_abs_Q>  (51) 
0

>  <s_lp_Force_Field>  (51) 
OPLS3e

>  <r_lp_Energy>  (51) 
37.5252

>  <b_lp_Chiralities_Consistent>  (51) 
1

>  <s_lp_Variant>  (51) 
17:0-1

>  <s_i_glide_gridfile>  (51) 
pfpi4k_grid

>  <i_i_glide_lignum>  (51) 
26

>  <i_i_glide_rotatable_bonds>  (51) 
2

>  <r_i_docking_score>  (51) 
-3.33867

>  <r_i_glide_ligand_efficiency>  (51) 
-0.151758

>  <r_i_glide_ligand_efficiency_sa>  (51) 
-0.425232

>  <r_i_glide_ligand_efficiency_ln>  (51) 
-0.816094

>  <r_i_glide_gscore>  (51) 
-3.33867

>  <r_i_glide_lipo>  (51) 
-0.252217

>  <r_i_glide_hbond>  (51) 
-0.295449

>  <r_i_glide_metal>  (51) 
-0

>  <r_i_glide_rewards>  (51) 
-1.37441

>  <r_i_glide_evdw>  (51) 
-21.1187

>  <r_i_glide_ecoul>  (51) 
-3.77724

>  <r_i_glide_erotb>  (51) 
0.206062

>  <r_i_glide_esite>  (51) 
-0.00013485

>  <r_i_glide_emodel>  (51) 
-29.6283

>  <r_i_glide_energy>  (51) 
-24.8959

>  <r_i_glide_einternal>  (51) 
1.16272

>  <r_i_glide_intrahb_reward>  (51) 
-0

>  <i_i_glide_confnum>  (51) 
2

>  <i_i_glide_posenum>  (51) 
40

>  <r_i_glide_eff_state_penalty>  (51) 
0

>  <ligand_id>  (51) 
17

>  <original_smiles>  (51) 
C#CC1(O)CCC2C3CC=C4CC(=O)CCC4C3CCC21C

>  <smiles>  (51) 
[H]C#CC1(O[H])C([H])([H])C([H])([H])C2([H])C3([H])C([H])([H])C([H])=C4C([H])([H])C(=O)C([H])([H])C([H])([H])C4([H])C3([H])C([H])([H])C([H])([H])C12C([H])([H])[H]

$$$$
17:0:2
     RDKit          3D

 48 51  0  0  1  0  0  0  0  0999 V2000
    2.8117   -3.9300    6.4693 C   0  0  0  0  0  0  0  0  0  0  0  0
    3.5357   -4.1756    5.5211 C   0  0  0  0  0  0  0  0  0  0  0  0
    4.4181   -4.4791    4.3778 C   0  0  1  0  0  0  0  0  0  0  0  0
    5.7622   -4.5875    4.8201 O   0  0  0  0  0  0  0  0  0  0  0  0
    4.1112   -5.8425    3.7277 C   0  0  0  0  0  0  0  0  0  0  0  0
    4.5665   -5.7428    2.2580 C   0  0  0  0  0  0  0  0  0  0  0  0
    5.0274   -4.2850    2.0382 C   0  0  1  0  0  0  0  0  0  0  0  0
    4.8284   -3.6943    0.6207 C   0  0  1  0  0  0  0  0  0  0  0  0
    5.4365   -4.5815   -0.4682 C   0  0  0  0  0  0  0  0  0  0  0  0
    5.0251   -4.2025   -1.8758 C   0  0  0  0  0  0  0  0  0  0  0  0
    3.9928   -3.4215   -2.1822 C   0  0  0  0  0  0  0  0  0  0  0  0
    3.6794   -3.0435   -3.6119 C   0  0  0  0  0  0  0  0  0  0  0  0
    3.8966   -1.5614   -3.7559 C   0  0  0  0  0  0  0  0  0  0  0  0
    4.4228   -1.0608   -4.7502 O   0  0  0  0  0  0  0  0  0  0  0  0
    3.3299   -0.6676   -2.6769 C   0  0  0  0  0  0  0  0  0  0  0  0
    3.5357   -1.2209   -1.2409 C   0  0  0  0  0  0  0  0  0  0  0  0
    3.1878   -2.7239   -1.1257 C   0  0  2  0  0  0  0  0  0  0  0  0
    3.3623   -3.3377    0.2998 C   0  0  2  0  0  0  0  0  0  0  0  0
    2.7709   -2.4682    1.4190 C   0  0  0  0  0  0  0  0  0  0  0  0
    2.8950   -3.1473    2.7875 C   0  0  0  0  0  0  0  0  0  0  0  0
    4.3600   -3.4827    3.1747 C   0  0  1  0  0  0  0  0  0  0  0  0
    5.0995   -2.1641    3.4684 C   0  0  0  0  0  0  0  0  0  0  0  0
    2.2039   -3.7100    7.3199 H   0  0  0  0  0  0  0  0  0  0  0  0
    6.1131   -5.4066    4.5223 H   0  0  0  0  0  0  0  0  0  0  0  0
    4.5670   -6.6906    4.2504 H   0  0  0  0  0  0  0  0  0  0  0  0
    3.0348   -6.0229    3.7375 H   0  0  0  0  0  0  0  0  0  0  0  0
    5.3734   -6.4461    2.0374 H   0  0  0  0  0  0  0  0  0  0  0  0
    3.7246   -5.9945    1.6103 H   0  0  0  0  0  0  0  0  0  0  0  0
    6.0989   -4.2935    2.2315 H   0  0  0  0  0  0  0  0  0  0  0  0
    5.3851   -2.7589    0.5863 H   0  0  0  0  0  0  0  0  0  0  0  0
    6.5219   -4.5261   -0.3857 H   0  0  0  0  0  0  0  0  0  0  0  0
    5.1475   -5.6335   -0.3490 H   0  0  0  0  0  0  0  0  0  0  0  0
    5.5985   -4.6217   -2.6950 H   0  0  0  0  0  0  0  0  0  0  0  0
    4.3023   -3.6136   -4.3077 H   0  0  0  0  0  0  0  0  0  0  0  0
    2.6397   -3.2831   -3.8394 H   0  0  0  0  0  0  0  0  0  0  0  0
    3.7445    0.3291   -2.7690 H   0  0  0  0  0  0  0  0  0  0  0  0
    2.2687   -0.6021   -2.9015 H   0  0  0  0  0  0  0  0  0  0  0  0
    4.5516   -1.0273   -0.9016 H   0  0  0  0  0  0  0  0  0  0  0  0
    2.8806   -0.6749   -0.5603 H   0  0  0  0  0  0  0  0  0  0  0  0
    2.1434   -2.8767   -1.4134 H   0  0  0  0  0  0  0  0  0  0  0  0
    2.8057   -4.2719    0.2842 H   0  0  0  0  0  0  0  0  0  0  0  0
    3.2658   -1.4954    1.4583 H   0  0  0  0  0  0  0  0  0  0  0  0
    1.7197   -2.2680    1.2126 H   0  0  0  0  0  0  0  0  0  0  0  0
    2.4641   -2.4817    3.5337 H   0  0  0  0  0  0  0  0  0  0  0  0
    2.2872   -4.0530    2.7825 H   0  0  0  0  0  0  0  0  0  0  0  0
    5.1112   -1.4857    2.6175 H   0  0  0  0  0  0  0  0  0  0  0  0
    6.1385   -2.3783    3.6680 H   0  0  0  0  0  0  0  0  0  0  0  0
    4.6908   -1.6377    4.3292 H   0  0  0  0  0  0  0  0  0  0  0  0
  1  2  3  0
  1 23  1  0
  3  2  1  1
  3 21  1  0
  3  4  1  0
  3  5  1  0
  4 24  1  0
  5  6  1  0
  5 25  1  0
  5 26  1  0
  6  7  1  0
  6 27  1  0
  6 28  1  0
  7 21  1  0
  7  8  1  0
  7 29  1  1
  8 18  1  0
  8  9  1  0
  8 30  1  1
  9 10  1  0
  9 31  1  0
  9 32  1  0
 10 11  2  0
 10 33  1  0
 11 17  1  0
 11 12  1  0
 12 13  1  0
 12 34  1  0
 12 35  1  0
 13 14  2  0
 13 15  1  0
 15 16  1  0
 15 36  1  0
 15 37  1  0
 16 17  1  0
 16 38  1  0
 16 39  1  0
 17 18  1  0
 17 40  1  6
 18 19  1  0
 18 41  1  6
 19 20  1  0
 19 42  1  0
 19 43  1  0
 20 21  1  0
 20 44  1  0
 20 45  1  0
 21 22  1  1
 22 46  1  0
 22 47  1  0
 22 48  1  0
M  END
>  <i_m_ct_stereo_status>  (52) 
1

>  <s_m_source_file>  (52) 
/var/tmp/pbs.5076255.sched01/tmpbdos_d33/0hajo06zg.sdf

>  <i_m_source_file_index>  (52) 
26

>  <i_lp_mmshare_version>  (52) 
48012

>  <i_f3d_flags>  (52) 
0

>  <s_epik_input>  (52) 
W0NIXSNDW0NAQF0xKFtPSF0pW0NIMl1bQ0gyXVtDQEhdKFtDQF0xMltDSDNdKVtDQEBIXTNbQ0BASF0oW0NIMl1bQ0gyXTIpW0NAQEhdNEMoPVtDSF1bQ0gyXTMpW0NIMl1DKD1PKVtDSDJdW0NIMl00

>  <s_epik_cmdline>  (52) 
J2VwaWtfcHl0aG9uJywgJy1waHQnLCAnMi4wJywgJy1waCcsICc3LjAnLCAnLXRuJywgJzgnLCAnLW1hJywgJzIwMCcsICctaW1hZScsICc8aW5maWxlLm1hZT4nLCAnLW9tYWUnLCAnPG91dGZpbGUubWFlPic=

>  <r_lp_tautomer_probability>  (52) 
1

>  <r_epik_Ionization_Penalty>  (52) 
2.03209e-07

>  <r_epik_Ionization_Penalty_Charging>  (52) 
0

>  <r_epik_Ionization_Penalty_Neutral>  (52) 
2.03209e-07

>  <r_epik_State_Penalty>  (52) 
-0

>  <r_epik_Charging_Adjusted_Penalty>  (52) 
0

>  <i_epik_Tot_Q>  (52) 
0

>  <i_epik_Tot_abs_Q>  (52) 
0

>  <s_lp_Force_Field>  (52) 
OPLS3e

>  <r_lp_Energy>  (52) 
37.5252

>  <b_lp_Chiralities_Consistent>  (52) 
1

>  <s_lp_Variant>  (52) 
17:0-1

>  <s_i_glide_gridfile>  (52) 
pfpi4k_grid

>  <i_i_glide_lignum>  (52) 
26

>  <i_i_glide_rotatable_bonds>  (52) 
2

>  <r_i_docking_score>  (52) 
-3.25817

>  <r_i_glide_ligand_efficiency>  (52) 
-0.148098

>  <r_i_glide_ligand_efficiency_sa>  (52) 
-0.414978

>  <r_i_glide_ligand_efficiency_ln>  (52) 
-0.796415

>  <r_i_glide_gscore>  (52) 
-3.25817

>  <r_i_glide_lipo>  (52) 
-0.403312

>  <r_i_glide_hbond>  (52) 
-0.32

>  <r_i_glide_metal>  (52) 
-0

>  <r_i_glide_rewards>  (52) 
-1.59778

>  <r_i_glide_evdw>  (52) 
-12.7443

>  <r_i_glide_ecoul>  (52) 
-3.37278

>  <r_i_glide_erotb>  (52) 
0.206062

>  <r_i_glide_esite>  (52) 
0

>  <r_i_glide_emodel>  (52) 
-20.6516

>  <r_i_glide_energy>  (52) 
-16.1171

>  <r_i_glide_einternal>  (52) 
1.08777

>  <r_i_glide_intrahb_reward>  (52) 
-0

>  <i_i_glide_confnum>  (52) 
1

>  <i_i_glide_posenum>  (52) 
14

>  <r_i_glide_eff_state_penalty>  (52) 
0

>  <ligand_id>  (52) 
17

>  <original_smiles>  (52) 
C#CC1(O)CCC2C3CC=C4CC(=O)CCC4C3CCC21C

>  <smiles>  (52) 
[H]C#CC1(O[H])C([H])([H])C([H])([H])C2([H])C3([H])C([H])([H])C([H])=C4C([H])([H])C(=O)C([H])([H])C([H])([H])C4([H])C3([H])C([H])([H])C([H])([H])C12C([H])([H])[H]

$$$$
18:0:0
     RDKit          3D

 47 53  0  0  1  0  0  0  0  0999 V2000
    2.7220   -3.4774   -0.6724 C   0  0  0  0  0  0  0  0  0  0  0  0
    3.6751   -2.7867    0.3429 C   0  0  2  0  0  0  0  0  0  0  0  0
    4.7375   -1.9721   -0.4491 C   0  0  2  0  0  0  0  0  0  0  0  0
    4.4695   -1.2646   -1.6611 O   0  0  0  0  0  0  0  0  0  0  0  0
    5.1785   -2.5150   -1.8018 C   0  0  1  0  0  0  0  0  0  0  0  0
    6.6831   -2.6644   -1.7230 C   0  0  0  0  0  0  0  0  0  0  0  0
    7.0386   -2.5472   -0.2233 C   0  0  2  0  0  0  0  0  0  0  0  0
    6.8864   -3.9042    0.4989 C   0  0  0  0  0  0  0  0  0  0  0  0
    7.9190   -4.5047    0.8120 O   0  0  0  0  0  0  0  0  0  0  0  0
    5.5367   -4.4755    0.7334 C   0  0  0  0  0  0  0  0  0  0  0  0
    5.2286   -5.7651    0.5244 C   0  0  0  0  0  0  0  0  0  0  0  0
    3.8342   -6.0526    0.9906 C   0  0  1  0  0  0  0  0  0  0  0  0
    3.5651   -7.3691    1.4537 O   0  0  0  0  0  0  0  0  0  0  0  0
    2.2417   -7.5478    2.0002 C   0  0  2  0  0  0  0  0  0  0  0  0
    1.1768   -6.8722    1.3298 O   0  0  0  0  0  0  0  0  0  0  0  0
    1.5830   -6.3091    2.5942 C   0  0  2  0  0  0  0  0  0  0  0  0
    2.1540   -4.8997    2.4570 C   0  0  1  0  0  0  0  0  0  0  0  0
    1.8882   -4.1521    3.6316 O   0  0  0  0  0  0  0  0  0  0  0  0
    3.6480   -4.9748    2.0805 C   0  0  1  0  0  0  0  0  0  0  0  0
    4.4182   -5.4494    3.3718 C   0  0  0  0  0  0  0  0  0  0  0  0
    4.3954   -3.7194    1.4296 C   0  0  2  0  0  0  0  0  0  0  0  0
    4.8566   -2.9898    2.5797 O   0  0  0  0  0  0  0  0  0  0  0  0
    4.9109   -1.5754    2.5955 C   0  0  0  0  0  0  0  0  0  0  0  0
    6.0385   -1.0825    1.7106 C   0  0  0  0  0  0  0  0  0  0  0  0
    6.0123   -1.5123    0.2405 C   0  0  2  0  0  0  0  0  0  0  0  0
    3.2157   -4.2654   -1.2312 H   0  0  0  0  0  0  0  0  0  0  0  0
    2.3601   -2.7601   -1.4109 H   0  0  0  0  0  0  0  0  0  0  0  0
    1.8256   -3.9029   -0.2392 H   0  0  0  0  0  0  0  0  0  0  0  0
    3.0141   -2.0867    0.8437 H   0  0  0  0  0  0  0  0  0  0  0  0
    4.6413   -3.2481   -2.3979 H   0  0  0  0  0  0  0  0  0  0  0  0
    6.9875   -3.6237   -2.1421 H   0  0  0  0  0  0  0  0  0  0  0  0
    7.1674   -1.8907   -2.3163 H   0  0  0  0  0  0  0  0  0  0  0  0
    8.0605   -2.1875   -0.0881 H   0  0  0  0  0  0  0  0  0  0  0  0
    5.8753   -6.5191    0.1121 H   0  0  0  0  0  0  0  0  0  0  0  0
    3.1702   -5.8990    0.1442 H   0  0  0  0  0  0  0  0  0  0  0  0
    1.9777   -8.5459    2.3374 H   0  0  0  0  0  0  0  0  0  0  0  0
    0.8868   -6.4745    3.4066 H   0  0  0  0  0  0  0  0  0  0  0  0
    1.5832   -4.4010    1.6937 H   0  0  0  0  0  0  0  0  0  0  0  0
    2.3577   -4.5425    4.3551 H   0  0  0  0  0  0  0  0  0  0  0  0
    4.3623   -4.7261    4.1887 H   0  0  0  0  0  0  0  0  0  0  0  0
    5.4815   -5.6173    3.1907 H   0  0  0  0  0  0  0  0  0  0  0  0
    4.0275   -6.3863    3.7731 H   0  0  0  0  0  0  0  0  0  0  0  0
    3.9699   -1.0811    2.3661 H   0  0  0  0  0  0  0  0  0  0  0  0
    5.1306   -1.2780    3.6208 H   0  0  0  0  0  0  0  0  0  0  0  0
    6.0254    0.0056    1.7648 H   0  0  0  0  0  0  0  0  0  0  0  0
    6.9989   -1.3690    2.1330 H   0  0  0  0  0  0  0  0  0  0  0  0
    6.2946   -0.5900   -0.2742 H   0  0  0  0  0  0  0  0  0  0  0  0
  1  2  1  0
  1 26  1  0
  1 27  1  0
  1 28  1  0
  2 21  1  0
  2  3  1  0
  2 29  1  1
  3  5  1  0
  3 25  1  0
  3  4  1  6
  4  5  1  0
  5  6  1  0
  5 30  1  6
  6  7  1  0
  6 31  1  0
  6 32  1  0
  7 25  1  0
  7  8  1  0
  7 33  1  6
  8  9  2  0
  8 10  1  0
 10 21  1  0
 10 11  2  0
 11 12  1  0
 11 34  1  0
 12 19  1  0
 12 13  1  0
 12 35  1  6
 13 14  1  0
 14 16  1  0
 14 15  1  0
 14 36  1  1
 15 16  1  0
 16 17  1  0
 16 37  1  1
 17 18  1  0
 17 19  1  0
 17 38  1  6
 18 39  1  0
 19 20  1  1
 19 21  1  0
 20 40  1  0
 20 41  1  0
 20 42  1  0
 21 22  1  1
 22 23  1  0
 23 24  1  0
 23 43  1  0
 23 44  1  0
 24 25  1  0
 24 45  1  0
 24 46  1  0
 25 47  1  6
M  END
>  <i_m_ct_stereo_status>  (53) 
1

>  <s_m_source_file>  (53) 
/var/tmp/pbs.5076255.sched01/tmpbdos_d33/0hajo06zg.sdf

>  <i_m_source_file_index>  (53) 
27

>  <i_lp_mmshare_version>  (53) 
48012

>  <i_f3d_flags>  (53) 
0

>  <s_epik_input>  (53) 
TzFbQ0BIXShPMilbQ0BIXTJbQ0BASF0oW09IXSlbQ0BAXTMoW0NIM10pW0NASF0xW0NIXT1DKEM0PU8pW0NAXTMoW0NAQEhdNVtDSDNdKU9bQ0gyXVtDSDJdW0NASF02W0NAQEhdNFtDSDJdW0NASF0oW0NAQF01NjcpTzc=

>  <s_epik_cmdline>  (53) 
J2VwaWtfcHl0aG9uJywgJy1waHQnLCAnMi4wJywgJy1waCcsICc3LjAnLCAnLXRuJywgJzgnLCAnLW1hJywgJzIwMCcsICctaW1hZScsICc8aW5maWxlLm1hZT4nLCAnLW9tYWUnLCAnPG91dGZpbGUubWFlPic=

>  <r_lp_tautomer_probability>  (53) 
1

>  <r_epik_Ionization_Penalty>  (53) 
1.39225e-06

>  <r_epik_Ionization_Penalty_Charging>  (53) 
0

>  <r_epik_Ionization_Penalty_Neutral>  (53) 
1.39225e-06

>  <r_epik_State_Penalty>  (53) 
-0

>  <r_epik_Charging_Adjusted_Penalty>  (53) 
0

>  <i_epik_Tot_Q>  (53) 
0

>  <i_epik_Tot_abs_Q>  (53) 
0

>  <s_epik_Chemistry_Notes>  (53) 
This compound contains an acetal/aminal-like group ( X-CH(R)-Y where X, Y are N, S, or O) that may be acid/base labile, releasing an aldehyde.

>  <s_lp_Force_Field>  (53) 
OPLS3e

>  <r_lp_Energy>  (53) 
69.2452

>  <b_lp_Chiralities_Consistent>  (53) 
1

>  <s_lp_Variant>  (53) 
18:0-1

>  <s_i_glide_gridfile>  (53) 
pfpi4k_grid

>  <i_i_glide_lignum>  (53) 
27

>  <i_i_glide_rotatable_bonds>  (53) 
1

>  <r_i_docking_score>  (53) 
-3.12728

>  <r_i_glide_ligand_efficiency>  (53) 
-0.125091

>  <r_i_glide_ligand_efficiency_sa>  (53) 
-0.365769

>  <r_i_glide_ligand_efficiency_ln>  (53) 
-0.74126

>  <r_i_glide_gscore>  (53) 
-3.12728

>  <r_i_glide_lipo>  (53) 
-0.519209

>  <r_i_glide_hbond>  (53) 
0

>  <r_i_glide_metal>  (53) 
-0

>  <r_i_glide_rewards>  (53) 
-1.21527

>  <r_i_glide_evdw>  (53) 
-26.7416

>  <r_i_glide_ecoul>  (53) 
-0.289513

>  <r_i_glide_erotb>  (53) 
0

>  <r_i_glide_esite>  (53) 
-0.0122993

>  <r_i_glide_emodel>  (53) 
-32.0059

>  <r_i_glide_energy>  (53) 
-27.0311

>  <r_i_glide_einternal>  (53) 
0.000206098

>  <r_i_glide_intrahb_reward>  (53) 
-0

>  <i_i_glide_confnum>  (53) 
1

>  <i_i_glide_posenum>  (53) 
17

>  <r_i_glide_eff_state_penalty>  (53) 
0

>  <ligand_id>  (53) 
18

>  <original_smiles>  (53) 
CC1C23OC2CC2C(=O)C4=CC5OC6OC6C(O)C5(C)C41OCCC23

>  <smiles>  (53) 
[H]OC1([H])C2([H])OC2([H])OC2([H])C([H])=C3C(=O)C4([H])C([H])([H])C5([H])OC56C4([H])C([H])([H])C([H])([H])OC3(C6([H])C([H])([H])[H])C21C([H])([H])[H]

$$$$
18:0:1
     RDKit          3D

 47 53  0  0  1  0  0  0  0  0999 V2000
    2.6193   -4.1882   -0.3182 C   0  0  0  0  0  0  0  0  0  0  0  0
    3.4490   -3.0859    0.4021 C   0  0  2  0  0  0  0  0  0  0  0  0
    4.2803   -2.3105   -0.6608 C   0  0  2  0  0  0  0  0  0  0  0  0
    3.8101   -2.0006   -1.9714 O   0  0  0  0  0  0  0  0  0  0  0  0
    4.7678   -3.0847   -1.8810 C   0  0  1  0  0  0  0  0  0  0  0  0
    6.2720   -2.9186   -1.9060 C   0  0  0  0  0  0  0  0  0  0  0  0
    6.6584   -2.3581   -0.5229 C   0  0  2  0  0  0  0  0  0  0  0  0
    6.8291   -3.4887    0.5124 C   0  0  0  0  0  0  0  0  0  0  0  0
    7.9753   -3.7855    0.8558 O   0  0  0  0  0  0  0  0  0  0  0  0
    5.6376   -4.2305    1.0055 C   0  0  0  0  0  0  0  0  0  0  0  0
    5.5991   -5.5614    1.1385 C   0  0  0  0  0  0  0  0  0  0  0  0
    4.3187   -5.9886    1.7942 C   0  0  1  0  0  0  0  0  0  0  0  0
    4.3565   -7.1743    2.5811 O   0  0  0  0  0  0  0  0  0  0  0  0
    3.1280   -7.4449    3.2872 C   0  0  2  0  0  0  0  0  0  0  0  0
    1.9279   -7.1870    2.5652 O   0  0  0  0  0  0  0  0  0  0  0  0
    2.2424   -6.2443    3.6139 C   0  0  2  0  0  0  0  0  0  0  0  0
    2.4861   -4.8348    3.0784 C   0  0  1  0  0  0  0  0  0  0  0  0
    2.1223   -3.8568    4.0395 O   0  0  0  0  0  0  0  0  0  0  0  0
    3.9510   -4.7199    2.6003 C   0  0  1  0  0  0  0  0  0  0  0  0
    4.8572   -4.6921    3.8892 C   0  0  0  0  0  0  0  0  0  0  0  0
    4.3938   -3.5526    1.6035 C   0  0  2  0  0  0  0  0  0  0  0  0
    4.7311   -2.4778    2.4981 O   0  0  0  0  0  0  0  0  0  0  0  0
    4.4970   -1.1212    2.1645 C   0  0  0  0  0  0  0  0  0  0  0  0
    5.4713   -0.6707    1.0966 C   0  0  0  0  0  0  0  0  0  0  0  0
    5.4604   -1.4535   -0.2218 C   0  0  2  0  0  0  0  0  0  0  0  0
    3.2372   -4.9980   -0.7057 H   0  0  0  0  0  0  0  0  0  0  0  0
    2.0963   -3.7654   -1.1766 H   0  0  0  0  0  0  0  0  0  0  0  0
    1.8417   -4.6428    0.2771 H   0  0  0  0  0  0  0  0  0  0  0  0
    2.6794   -2.4164    0.7734 H   0  0  0  0  0  0  0  0  0  0  0  0
    4.3720   -4.0310   -2.2268 H   0  0  0  0  0  0  0  0  0  0  0  0
    6.7629   -3.8610   -2.1101 H   0  0  0  0  0  0  0  0  0  0  0  0
    6.5471   -2.2655   -2.7195 H   0  0  0  0  0  0  0  0  0  0  0  0
    7.5938   -1.7950   -0.5656 H   0  0  0  0  0  0  0  0  0  0  0  0
    6.3787   -6.2536    0.8622 H   0  0  0  0  0  0  0  0  0  0  0  0
    3.6049   -6.1815    0.9988 H   0  0  0  0  0  0  0  0  0  0  0  0
    3.0841   -8.3597    3.8755 H   0  0  0  0  0  0  0  0  0  0  0  0
    1.6268   -6.3274    4.5014 H   0  0  0  0  0  0  0  0  0  0  0  0
    1.7797   -4.6844    2.2780 H   0  0  0  0  0  0  0  0  0  0  0  0
    2.3178   -3.0004    3.6877 H   0  0  0  0  0  0  0  0  0  0  0  0
    4.6832   -3.8125    4.5125 H   0  0  0  0  0  0  0  0  0  0  0  0
    5.9230   -4.6922    3.6563 H   0  0  0  0  0  0  0  0  0  0  0  0
    4.6900   -5.5516    4.5394 H   0  0  0  0  0  0  0  0  0  0  0  0
    3.4670   -0.8852    1.9044 H   0  0  0  0  0  0  0  0  0  0  0  0
    4.6916   -0.5360    3.0639 H   0  0  0  0  0  0  0  0  0  0  0  0
    5.2491    0.3737    0.8775 H   0  0  0  0  0  0  0  0  0  0  0  0
    6.4818   -0.6702    1.5087 H   0  0  0  0  0  0  0  0  0  0  0  0
    5.5251   -0.6624   -0.9717 H   0  0  0  0  0  0  0  0  0  0  0  0
  1  2  1  0
  1 26  1  0
  1 27  1  0
  1 28  1  0
  2 21  1  0
  2  3  1  0
  2 29  1  1
  3  5  1  0
  3 25  1  0
  3  4  1  6
  4  5  1  0
  5  6  1  0
  5 30  1  1
  6  7  1  0
  6 31  1  0
  6 32  1  0
  7 25  1  0
  7  8  1  0
  7 33  1  6
  8  9  2  0
  8 10  1  0
 10 21  1  0
 10 11  2  0
 11 12  1  0
 11 34  1  0
 12 19  1  0
 12 13  1  0
 12 35  1  6
 13 14  1  0
 14 16  1  0
 14 15  1  0
 14 36  1  1
 15 16  1  0
 16 17  1  0
 16 37  1  1
 17 18  1  0
 17 19  1  0
 17 38  1  6
 18 39  1  0
 19 20  1  1
 19 21  1  0
 20 40  1  0
 20 41  1  0
 20 42  1  0
 21 22  1  1
 22 23  1  0
 23 24  1  0
 23 43  1  0
 23 44  1  0
 24 25  1  0
 24 45  1  0
 24 46  1  0
 25 47  1  6
M  END
>  <i_m_ct_stereo_status>  (54) 
1

>  <s_m_source_file>  (54) 
/var/tmp/pbs.5076255.sched01/tmpbdos_d33/0hajo06zg.sdf

>  <i_m_source_file_index>  (54) 
27

>  <i_lp_mmshare_version>  (54) 
48012

>  <i_f3d_flags>  (54) 
0

>  <s_epik_input>  (54) 
TzFbQ0BIXShPMilbQ0BIXTJbQ0BASF0oW09IXSlbQ0BAXTMoW0NIM10pW0NASF0xW0NIXT1DKEM0PU8pW0NAXTMoW0NAQEhdNVtDSDNdKU9bQ0gyXVtDSDJdW0NASF02W0NAQEhdNFtDSDJdW0NASF0oW0NAQF01NjcpTzc=

>  <s_epik_cmdline>  (54) 
J2VwaWtfcHl0aG9uJywgJy1waHQnLCAnMi4wJywgJy1waCcsICc3LjAnLCAnLXRuJywgJzgnLCAnLW1hJywgJzIwMCcsICctaW1hZScsICc8aW5maWxlLm1hZT4nLCAnLW9tYWUnLCAnPG91dGZpbGUubWFlPic=

>  <r_lp_tautomer_probability>  (54) 
1

>  <r_epik_Ionization_Penalty>  (54) 
1.39225e-06

>  <r_epik_Ionization_Penalty_Charging>  (54) 
0

>  <r_epik_Ionization_Penalty_Neutral>  (54) 
1.39225e-06

>  <r_epik_State_Penalty>  (54) 
-0

>  <r_epik_Charging_Adjusted_Penalty>  (54) 
0

>  <i_epik_Tot_Q>  (54) 
0

>  <i_epik_Tot_abs_Q>  (54) 
0

>  <s_epik_Chemistry_Notes>  (54) 
This compound contains an acetal/aminal-like group ( X-CH(R)-Y where X, Y are N, S, or O) that may be acid/base labile, releasing an aldehyde.

>  <s_lp_Force_Field>  (54) 
OPLS3e

>  <r_lp_Energy>  (54) 
69.2452

>  <b_lp_Chiralities_Consistent>  (54) 
1

>  <s_lp_Variant>  (54) 
18:0-1

>  <s_i_glide_gridfile>  (54) 
pfpi4k_grid

>  <i_i_glide_lignum>  (54) 
27

>  <i_i_glide_rotatable_bonds>  (54) 
1

>  <r_i_docking_score>  (54) 
-3.02274

>  <r_i_glide_ligand_efficiency>  (54) 
-0.12091

>  <r_i_glide_ligand_efficiency_sa>  (54) 
-0.353542

>  <r_i_glide_ligand_efficiency_ln>  (54) 
-0.71648

>  <r_i_glide_gscore>  (54) 
-3.02274

>  <r_i_glide_lipo>  (54) 
-0.445585

>  <r_i_glide_hbond>  (54) 
0

>  <r_i_glide_metal>  (54) 
-0

>  <r_i_glide_rewards>  (54) 
-1.19913

>  <r_i_glide_evdw>  (54) 
-25.1425

>  <r_i_glide_ecoul>  (54) 
-0.80521

>  <r_i_glide_erotb>  (54) 
0

>  <r_i_glide_esite>  (54) 
-0.000122127

>  <r_i_glide_emodel>  (54) 
-30.601

>  <r_i_glide_energy>  (54) 
-25.9477

>  <r_i_glide_einternal>  (54) 
0.328802

>  <r_i_glide_intrahb_reward>  (54) 
-0

>  <i_i_glide_confnum>  (54) 
1

>  <i_i_glide_posenum>  (54) 
1

>  <r_i_glide_eff_state_penalty>  (54) 
0

>  <ligand_id>  (54) 
18

>  <original_smiles>  (54) 
CC1C23OC2CC2C(=O)C4=CC5OC6OC6C(O)C5(C)C41OCCC23

>  <smiles>  (54) 
[H]OC1([H])C2([H])OC2([H])OC2([H])C([H])=C3C(=O)C4([H])C([H])([H])C5([H])OC56C4([H])C([H])([H])C([H])([H])OC3(C6([H])C([H])([H])[H])C21C([H])([H])[H]

$$$$
18:0:2
     RDKit          3D

 47 53  0  0  1  0  0  0  0  0999 V2000
    1.8126   -4.1106   -0.9203 C   0  0  0  0  0  0  0  0  0  0  0  0
    2.8419   -2.9495   -0.7376 C   0  0  2  0  0  0  0  0  0  0  0  0
    3.3425   -2.4014   -2.1191 C   0  0  2  0  0  0  0  0  0  0  0  0
    2.5936   -2.2205   -3.3039 O   0  0  0  0  0  0  0  0  0  0  0  0
    3.4050   -3.3979   -3.2117 C   0  0  1  0  0  0  0  0  0  0  0  0
    4.8647   -3.4989   -3.6549 C   0  0  0  0  0  0  0  0  0  0  0  0
    5.6674   -2.6899   -2.6085 C   0  0  2  0  0  0  0  0  0  0  0  0
    6.1092   -3.4792   -1.3514 C   0  0  0  0  0  0  0  0  0  0  0  0
    7.3108   -3.5357   -1.1001 O   0  0  0  0  0  0  0  0  0  0  0  0
    5.0936   -4.0479   -0.4374 C   0  0  0  0  0  0  0  0  0  0  0  0
    5.0732   -5.3096    0.0132 C   0  0  0  0  0  0  0  0  0  0  0  0
    4.0120   -5.4722    1.0675 C   0  0  1  0  0  0  0  0  0  0  0  0
    4.2565   -6.4225    2.1002 O   0  0  0  0  0  0  0  0  0  0  0  0
    3.2248   -6.4276    3.1083 C   0  0  2  0  0  0  0  0  0  0  0  0
    1.8637   -6.2594    2.7466 O   0  0  0  0  0  0  0  0  0  0  0  0
    2.4987   -5.1406    3.3798 C   0  0  2  0  0  0  0  0  0  0  0  0
    2.6316   -3.9078    2.4675 C   0  0  1  0  0  0  0  0  0  0  0  0
    2.5671   -2.7152    3.2145 O   0  0  0  0  0  0  0  0  0  0  0  0
    3.9052   -4.0349    1.6088 C   0  0  1  0  0  0  0  0  0  0  0  0
    5.1374   -3.7696    2.5636 C   0  0  0  0  0  0  0  0  0  0  0  0
    4.0548   -3.1770    0.2687 C   0  0  2  0  0  0  0  0  0  0  0  0
    4.6113   -1.9558    0.7750 O   0  0  0  0  0  0  0  0  0  0  0  0
    4.3398   -0.7166    0.1658 C   0  0  0  0  0  0  0  0  0  0  0  0
    4.9854   -0.6319   -1.1923 C   0  0  0  0  0  0  0  0  0  0  0  0
    4.6230   -1.6492   -2.2401 C   0  0  2  0  0  0  0  0  0  0  0  0
    2.3138   -5.0356   -1.1447 H   0  0  0  0  0  0  0  0  0  0  0  0
    1.0389   -3.8667   -1.6721 H   0  0  0  0  0  0  0  0  0  0  0  0
    1.4244   -4.3622    0.0578 H   0  0  0  0  0  0  0  0  0  0  0  0
    2.2286   -2.1965   -0.2724 H   0  0  0  0  0  0  0  0  0  0  0  0
    2.7696   -4.2386   -3.3172 H   0  0  0  0  0  0  0  0  0  0  0  0
    5.2334   -4.5162   -3.7096 H   0  0  0  0  0  0  0  0  0  0  0  0
    4.9470   -3.0740   -4.6543 H   0  0  0  0  0  0  0  0  0  0  0  0
    6.5608   -2.2696   -3.0399 H   0  0  0  0  0  0  0  0  0  0  0  0
    5.7304   -6.1126   -0.2779 H   0  0  0  0  0  0  0  0  0  0  0  0
    3.1025   -5.8086    0.5850 H   0  0  0  0  0  0  0  0  0  0  0  0
    3.3526   -7.1753    3.8920 H   0  0  0  0  0  0  0  0  0  0  0  0
    2.1859   -4.9446    4.4049 H   0  0  0  0  0  0  0  0  0  0  0  0
    1.7447   -3.8733    1.8726 H   0  0  0  0  0  0  0  0  0  0  0  0
    2.7413   -1.9813    2.6310 H   0  0  0  0  0  0  0  0  0  0  0  0
    5.1500   -2.7545    2.9688 H   0  0  0  0  0  0  0  0  0  0  0  0
    6.0993   -3.9089    2.0653 H   0  0  0  0  0  0  0  0  0  0  0  0
    5.1400   -4.4340    3.4290 H   0  0  0  0  0  0  0  0  0  0  0  0
    3.2856   -0.4456    0.1333 H   0  0  0  0  0  0  0  0  0  0  0  0
    4.7988    0.0610    0.7763 H   0  0  0  0  0  0  0  0  0  0  0  0
    4.6039    0.2526   -1.6183 H   0  0  0  0  0  0  0  0  0  0  0  0
    6.0600   -0.5582   -1.1121 H   0  0  0  0  0  0  0  0  0  0  0  0
    4.5224   -1.0522   -3.1628 H   0  0  0  0  0  0  0  0  0  0  0  0
  1  2  1  0
  1 26  1  0
  1 27  1  0
  1 28  1  0
  2 21  1  0
  2  3  1  0
  2 29  1  1
  3  5  1  0
  3 25  1  0
  3  4  1  6
  4  5  1  0
  5  6  1  0
  5 30  1  1
  6  7  1  0
  6 31  1  0
  6 32  1  0
  7 25  1  0
  7  8  1  0
  7 33  1  6
  8  9  2  0
  8 10  1  0
 10 21  1  0
 10 11  2  0
 11 12  1  0
 11 34  1  0
 12 19  1  0
 12 13  1  0
 12 35  1  6
 13 14  1  0
 14 16  1  0
 14 15  1  0
 14 36  1  1
 15 16  1  0
 16 17  1  0
 16 37  1  1
 17 18  1  0
 17 19  1  0
 17 38  1  6
 18 39  1  0
 19 20  1  1
 19 21  1  0
 20 40  1  0
 20 41  1  0
 20 42  1  0
 21 22  1  1
 22 23  1  0
 23 24  1  0
 23 43  1  0
 23 44  1  0
 24 25  1  0
 24 45  1  0
 24 46  1  0
 25 47  1  6
M  END
>  <i_m_ct_stereo_status>  (55) 
1

>  <s_m_source_file>  (55) 
/var/tmp/pbs.5076255.sched01/tmpbdos_d33/0hajo06zg.sdf

>  <i_m_source_file_index>  (55) 
27

>  <i_lp_mmshare_version>  (55) 
48012

>  <i_f3d_flags>  (55) 
0

>  <s_epik_input>  (55) 
TzFbQ0BIXShPMilbQ0BIXTJbQ0BASF0oW09IXSlbQ0BAXTMoW0NIM10pW0NASF0xW0NIXT1DKEM0PU8pW0NAXTMoW0NAQEhdNVtDSDNdKU9bQ0gyXVtDSDJdW0NASF02W0NAQEhdNFtDSDJdW0NASF0oW0NAQF01NjcpTzc=

>  <s_epik_cmdline>  (55) 
J2VwaWtfcHl0aG9uJywgJy1waHQnLCAnMi4wJywgJy1waCcsICc3LjAnLCAnLXRuJywgJzgnLCAnLW1hJywgJzIwMCcsICctaW1hZScsICc8aW5maWxlLm1hZT4nLCAnLW9tYWUnLCAnPG91dGZpbGUubWFlPic=

>  <r_lp_tautomer_probability>  (55) 
1

>  <r_epik_Ionization_Penalty>  (55) 
1.39225e-06

>  <r_epik_Ionization_Penalty_Charging>  (55) 
0

>  <r_epik_Ionization_Penalty_Neutral>  (55) 
1.39225e-06

>  <r_epik_State_Penalty>  (55) 
-0

>  <r_epik_Charging_Adjusted_Penalty>  (55) 
0

>  <i_epik_Tot_Q>  (55) 
0

>  <i_epik_Tot_abs_Q>  (55) 
0

>  <s_epik_Chemistry_Notes>  (55) 
This compound contains an acetal/aminal-like group ( X-CH(R)-Y where X, Y are N, S, or O) that may be acid/base labile, releasing an aldehyde.

>  <s_lp_Force_Field>  (55) 
OPLS3e

>  <r_lp_Energy>  (55) 
69.2452

>  <b_lp_Chiralities_Consistent>  (55) 
1

>  <s_lp_Variant>  (55) 
18:0-1

>  <s_i_glide_gridfile>  (55) 
pfpi4k_grid

>  <i_i_glide_lignum>  (55) 
27

>  <i_i_glide_rotatable_bonds>  (55) 
1

>  <r_i_docking_score>  (55) 
-2.43681

>  <r_i_glide_ligand_efficiency>  (55) 
-0.0974725

>  <r_i_glide_ligand_efficiency_sa>  (55) 
-0.285011

>  <r_i_glide_ligand_efficiency_ln>  (55) 
-0.577598

>  <r_i_glide_gscore>  (55) 
-2.43681

>  <r_i_glide_lipo>  (55) 
-0.610536

>  <r_i_glide_hbond>  (55) 
0

>  <r_i_glide_metal>  (55) 
-0

>  <r_i_glide_rewards>  (55) 
-1.22699

>  <r_i_glide_evdw>  (55) 
-5.79503

>  <r_i_glide_ecoul>  (55) 
-2.0636

>  <r_i_glide_erotb>  (55) 
0

>  <r_i_glide_esite>  (55) 
0

>  <r_i_glide_emodel>  (55) 
-10.1572

>  <r_i_glide_energy>  (55) 
-7.85863

>  <r_i_glide_einternal>  (55) 
0.398153

>  <r_i_glide_intrahb_reward>  (55) 
-0

>  <i_i_glide_confnum>  (55) 
2

>  <i_i_glide_posenum>  (55) 
6

>  <r_i_glide_eff_state_penalty>  (55) 
0

>  <ligand_id>  (55) 
18

>  <original_smiles>  (55) 
CC1C23OC2CC2C(=O)C4=CC5OC6OC6C(O)C5(C)C41OCCC23

>  <smiles>  (55) 
[H]OC1([H])C2([H])OC2([H])OC2([H])C([H])=C3C(=O)C4([H])C([H])([H])C5([H])OC56C4([H])C([H])([H])C([H])([H])OC3(C6([H])C([H])([H])[H])C21C([H])([H])[H]

$$$$
19:0:0
     RDKit          3D

 86 92  0  0  1  0  0  0  0  0999 V2000
    4.2885   -9.4336    1.8961 C   0  0  0  0  0  0  0  0  0  0  0  0
    4.1556   -8.2725    1.0866 O   0  0  0  0  0  0  0  0  0  0  0  0
    3.8685   -7.0489    1.7459 C   0  0  2  0  0  0  0  0  0  0  0  0
    4.9258   -6.7395    2.7973 C   0  0  0  0  0  0  0  0  0  0  0  0
    4.6223   -6.3189    4.0297 C   0  0  0  0  0  0  0  0  0  0  0  0
    3.2079   -6.0336    4.4992 C   0  0  1  0  0  0  0  0  0  0  0  0
    3.2167   -4.9126    5.3715 O   0  0  0  0  0  0  0  0  0  0  0  0
    2.1136   -4.6619    6.2499 C   0  0  2  0  0  0  0  0  0  0  0  0
    1.2907   -5.9361    6.5933 C   0  0  0  0  0  0  0  0  0  0  0  0
    0.1106   -5.6453    7.5362 C   0  0  1  0  0  0  0  0  0  0  0  0
    0.6005   -5.4038    8.8419 O   0  0  0  0  0  0  0  0  0  0  0  0
   -0.7688   -4.4779    7.0157 C   0  0  1  0  0  0  0  0  0  0  0  0
   -1.7901   -4.2329    7.9617 O   0  0  0  0  0  0  0  0  0  0  0  0
    0.0746   -3.2122    6.7352 C   0  0  2  0  0  0  0  0  0  0  0  0
   -0.7373   -2.1116    6.3238 O   0  0  0  0  0  0  0  0  0  0  0  0
   -0.6091   -1.6308    4.9865 C   0  0  1  0  0  0  0  0  0  0  0  0
   -1.6727   -0.5186    4.7787 C   0  0  0  0  0  0  0  0  0  0  0  0
   -1.2098    0.7729    5.4524 C   0  0  2  0  0  0  0  0  0  0  0  0
   -1.1957    0.6182    6.8544 O   0  0  0  0  0  0  0  0  0  0  0  0
   -2.0171    1.8539    5.1163 O   0  0  0  0  0  0  0  0  0  0  0  0
   -1.2718    3.0031    5.1182 C   0  0  0  0  0  0  0  0  0  0  0  0
   -1.7021    4.1380    4.9748 O   0  0  0  0  0  0  0  0  0  0  0  0
    0.2012    2.6501    5.3039 C   0  0  0  0  0  0  0  0  0  0  0  0
    0.1466    1.1967    4.8779 C   0  0  1  0  0  0  0  0  0  0  0  0
    1.3237    0.1782    5.0450 C   0  0  2  0  0  0  0  0  0  0  0  0
    2.5106    0.7946    4.2114 C   0  0  0  0  0  0  0  0  0  0  0  0
    3.8461    0.0320    4.0185 C   0  0  0  0  0  0  0  0  0  0  0  0
    4.6780   -0.2317    5.2757 C   0  0  1  0  0  0  0  0  0  0  0  0
    4.9327    0.9975    5.9245 O   0  0  0  0  0  0  0  0  0  0  0  0
    4.1181   -1.2804    6.2610 C   0  0  0  0  0  0  0  0  0  0  0  0
    2.5790   -1.4069    6.4045 C   0  0  2  0  0  0  0  0  0  0  0  0
    1.8924   -2.2175    5.2568 C   0  0  1  0  0  0  0  0  0  0  0  0
    1.1954   -3.5341    5.7067 C   0  0  1  0  0  0  0  0  0  0  0  0
    0.8722   -1.2549    4.5597 C   0  0  1  0  0  0  0  0  0  0  0  0
    0.9060   -1.4141    3.0151 C   0  0  0  0  0  0  0  0  0  0  0  0
    1.7854   -0.0970    6.4922 C   0  0  1  0  0  0  0  0  0  0  0  0
    2.4191    0.9853    7.1387 O   0  0  0  0  0  0  0  0  0  0  0  0
    2.2038   -5.8840    3.3227 C   0  0  1  0  0  0  0  0  0  0  0  0
    2.4253   -4.6568    2.6492 O   0  0  0  0  0  0  0  0  0  0  0  0
    2.4190   -7.0303    2.3142 C   0  0  1  0  0  0  0  0  0  0  0  0
    1.4790   -6.9369    1.2449 O   0  0  0  0  0  0  0  0  0  0  0  0
    0.2021   -7.5027    1.5072 C   0  0  0  0  0  0  0  0  0  0  0  0
    4.5773  -10.2514    1.2414 H   0  0  0  0  0  0  0  0  0  0  0  0
    3.3615   -9.7183    2.3950 H   0  0  0  0  0  0  0  0  0  0  0  0
    5.0848   -9.3482    2.6355 H   0  0  0  0  0  0  0  0  0  0  0  0
    3.9565   -6.2607    1.0005 H   0  0  0  0  0  0  0  0  0  0  0  0
    5.9553   -6.9664    2.5465 H   0  0  0  0  0  0  0  0  0  0  0  0
    5.4055   -6.2041    4.7662 H   0  0  0  0  0  0  0  0  0  0  0  0
    2.9688   -6.9270    5.0742 H   0  0  0  0  0  0  0  0  0  0  0  0
    2.5759   -4.2770    7.1614 H   0  0  0  0  0  0  0  0  0  0  0  0
    0.8442   -6.3587    5.6902 H   0  0  0  0  0  0  0  0  0  0  0  0
    1.9447   -6.6951    7.0344 H   0  0  0  0  0  0  0  0  0  0  0  0
   -0.5025   -6.5465    7.5892 H   0  0  0  0  0  0  0  0  0  0  0  0
    1.2548   -4.7186    8.7946 H   0  0  0  0  0  0  0  0  0  0  0  0
   -1.2515   -4.7995    6.0987 H   0  0  0  0  0  0  0  0  0  0  0  0
   -2.2941   -5.0333    8.0712 H   0  0  0  0  0  0  0  0  0  0  0  0
    0.5210   -2.9063    7.6816 H   0  0  0  0  0  0  0  0  0  0  0  0
   -0.9384   -2.4688    4.3705 H   0  0  0  0  0  0  0  0  0  0  0  0
   -1.8113   -0.3290    3.7164 H   0  0  0  0  0  0  0  0  0  0  0  0
   -2.6387   -0.8225    5.1895 H   0  0  0  0  0  0  0  0  0  0  0  0
   -0.6687    1.3153    7.2271 H   0  0  0  0  0  0  0  0  0  0  0  0
    0.8312    3.2642    4.6623 H   0  0  0  0  0  0  0  0  0  0  0  0
    0.4898    2.7701    6.3443 H   0  0  0  0  0  0  0  0  0  0  0  0
   -0.0081    1.2349    3.7921 H   0  0  0  0  0  0  0  0  0  0  0  0
    2.1530    1.0205    3.2078 H   0  0  0  0  0  0  0  0  0  0  0  0
    2.7523    1.7750    4.6254 H   0  0  0  0  0  0  0  0  0  0  0  0
    3.7308   -0.9028    3.4780 H   0  0  0  0  0  0  0  0  0  0  0  0
    4.4606    0.6436    3.3587 H   0  0  0  0  0  0  0  0  0  0  0  0
    5.6550   -0.6015    4.9525 H   0  0  0  0  0  0  0  0  0  0  0  0
    5.4260    1.5491    5.3290 H   0  0  0  0  0  0  0  0  0  0  0  0
    4.5108   -2.2600    5.9803 H   0  0  0  0  0  0  0  0  0  0  0  0
    4.5484   -1.0859    7.2442 H   0  0  0  0  0  0  0  0  0  0  0  0
    2.4480   -1.9319    7.3489 H   0  0  0  0  0  0  0  0  0  0  0  0
    2.6539   -2.4977    4.5311 H   0  0  0  0  0  0  0  0  0  0  0  0
    0.7215   -3.9295    4.8067 H   0  0  0  0  0  0  0  0  0  0  0  0
    1.8827   -1.2630    2.5667 H   0  0  0  0  0  0  0  0  0  0  0  0
    0.2169   -0.7281    2.5218 H   0  0  0  0  0  0  0  0  0  0  0  0
    0.6164   -2.4250    2.7369 H   0  0  0  0  0  0  0  0  0  0  0  0
    0.9338   -0.3470    7.1154 H   0  0  0  0  0  0  0  0  0  0  0  0
    3.2476    1.1487    6.6904 H   0  0  0  0  0  0  0  0  0  0  0  0
    1.1753   -5.9121    3.6858 H   0  0  0  0  0  0  0  0  0  0  0  0
    3.3407   -4.6161    2.3970 H   0  0  0  0  0  0  0  0  0  0  0  0
    2.2338   -7.9520    2.8660 H   0  0  0  0  0  0  0  0  0  0  0  0
   -0.4165   -7.4550    0.6096 H   0  0  0  0  0  0  0  0  0  0  0  0
   -0.3212   -6.9727    2.3015 H   0  0  0  0  0  0  0  0  0  0  0  0
    0.2921   -8.5515    1.7889 H   0  0  0  0  0  0  0  0  0  0  0  0
  1  2  1  0
  1 43  1  0
  1 44  1  0
  1 45  1  0
  2  3  1  0
  3 40  1  0
  3  4  1  0
  3 46  1  6
  4  5  2  0
  4 47  1  0
  5  6  1  0
  5 48  1  0
  6  7  1  0
  6 38  1  0
  6 49  1  1
  7  8  1  0
  8 33  1  0
  8  9  1  0
  8 50  1  1
  9 10  1  0
  9 51  1  0
  9 52  1  0
 10 11  1  0
 10 12  1  0
 10 53  1  1
 11 54  1  0
 12 13  1  0
 12 14  1  0
 12 55  1  6
 13 56  1  0
 14 33  1  0
 14 15  1  0
 14 57  1  1
 15 16  1  0
 16 34  1  0
 16 17  1  0
 16 58  1  6
 17 18  1  0
 17 59  1  0
 17 60  1  0
 18 24  1  0
 18 19  1  1
 18 20  1  0
 19 61  1  0
 20 21  1  0
 21 22  2  0
 21 23  1  0
 23 24  1  0
 23 62  1  0
 23 63  1  0
 24 25  1  0
 24 64  1  6
 25 34  1  0
 25 36  1  0
 25 26  1  6
 26 27  1  0
 26 65  1  0
 26 66  1  0
 27 28  1  0
 27 67  1  0
 27 68  1  0
 28 29  1  0
 28 30  1  0
 28 69  1  6
 29 70  1  0
 30 31  1  0
 30 71  1  0
 30 72  1  0
 31 32  1  0
 31 36  1  0
 31 73  1  1
 32 33  1  0
 32 34  1  0
 32 74  1  6
 33 75  1  6
 34 35  1  6
 35 76  1  0
 35 77  1  0
 35 78  1  0
 36 37  1  0
 36 79  1  1
 37 80  1  0
 38 39  1  0
 38 40  1  0
 38 81  1  1
 39 82  1  0
 40 41  1  0
 40 83  1  1
 41 42  1  0
 42 84  1  0
 42 85  1  0
 42 86  1  0
M  END
>  <i_m_ct_stereo_status>  (56) 
1

>  <s_m_source_file>  (56) 
/var/tmp/pbs.5076255.sched01/tmpbdos_d33/0hajo06zg.sdf

>  <i_m_source_file_index>  (56) 
28

>  <i_lp_mmshare_version>  (56) 
48012

>  <i_f3d_flags>  (56) 
0

>  <s_epik_input>  (56) 
W0NIM11PW0NAQEhdMVtDSF09W0NIXVtDQEhdKFtDQEBIXShbT0hdKVtDQEhdMU9bQ0gzXSlPW0NAQEhdMltDSDJdW0NAQEhdKFtPSF0pW0NAQEhdKFtPSF0pW0NASF0oTzMpW0NASF0yW0NASF0oW0NASF0oW0NASF00W09IXSlbQ0gyXVtDQEhdKFtPSF0pW0NIMl1bQ0gyXTUpW0NAQF02KFtDSDNdKVtDQEBIXTNbQ0gyXVtDQEBdKFtPSF0pKFtDQEBIXTdbQ0BdNDU2KU9DKD1PKVtDSDJdNw==

>  <s_epik_cmdline>  (56) 
J2VwaWtfcHl0aG9uJywgJy1waHQnLCAnMi4wJywgJy1waCcsICc3LjAnLCAnLXRuJywgJzgnLCAnLW1hJywgJzIwMCcsICctaW1hZScsICc8aW5maWxlLm1hZT4nLCAnLW9tYWUnLCAnPG91dGZpbGUubWFlPic=

>  <r_lp_tautomer_probability>  (56) 
1

>  <r_epik_Ionization_Penalty>  (56) 
9.00317e-06

>  <r_epik_Ionization_Penalty_Charging>  (56) 
0

>  <r_epik_Ionization_Penalty_Neutral>  (56) 
9.00317e-06

>  <r_epik_State_Penalty>  (56) 
-0

>  <r_epik_Charging_Adjusted_Penalty>  (56) 
0

>  <i_epik_Tot_Q>  (56) 
0

>  <i_epik_Tot_abs_Q>  (56) 
0

>  <s_epik_Chemistry_Notes>  (56) 
This compound has an ester and may undergo hydrolysis at high or low pH.

>  <s_lp_Force_Field>  (56) 
OPLS3e

>  <r_lp_Energy>  (56) 
72.1686

>  <b_lp_Chiralities_Consistent>  (56) 
1

>  <s_lp_Variant>  (56) 
19:0-1

>  <s_i_glide_gridfile>  (56) 
pfpi4k_grid

>  <i_i_glide_lignum>  (56) 
28

>  <i_i_glide_rotatable_bonds>  (56) 
10

>  <r_i_docking_score>  (56) 
-3.2818

>  <r_i_glide_ligand_efficiency>  (56) 
-0.0781381

>  <r_i_glide_ligand_efficiency_sa>  (56) 
-0.27161

>  <r_i_glide_ligand_efficiency_ln>  (56) 
-0.692704

>  <r_i_glide_gscore>  (56) 
-3.2818

>  <r_i_glide_lipo>  (56) 
-0.0746994

>  <r_i_glide_hbond>  (56) 
0

>  <r_i_glide_metal>  (56) 
-0

>  <r_i_glide_rewards>  (56) 
-0.5

>  <r_i_glide_evdw>  (56) 
-26.8589

>  <r_i_glide_ecoul>  (56) 
-8.85497

>  <r_i_glide_erotb>  (56) 
0.0039335

>  <r_i_glide_esite>  (56) 
-0.0398469

>  <r_i_glide_emodel>  (56) 
-38.7149

>  <r_i_glide_energy>  (56) 
-35.7138

>  <r_i_glide_einternal>  (56) 
19.5518

>  <r_i_glide_intrahb_reward>  (56) 
-0.5

>  <i_i_glide_confnum>  (56) 
1

>  <i_i_glide_posenum>  (56) 
32

>  <r_i_glide_eff_state_penalty>  (56) 
0

>  <ligand_id>  (56) 
19

>  <original_smiles>  (56) 
COC1C=CC(OC2CC(O)C(O)C3OC4CC5(O)OC(=O)CC5C56CCC(O)CC(C(C23)C45C)C6O)C(O)C1OC

>  <smiles>  (56) 
[H]OC1([H])C([H])([H])C([H])([H])C23C([H])(O[H])C([H])(C1([H])[H])C1([H])C4([H])C([H])(OC5([H])C([H])=C([H])C([H])(OC([H])([H])[H])C([H])(OC([H])([H])[H])C5([H])O[H])C([H])([H])C([H])(O[H])C([H])(O[H])C4([H])OC([H])(C([H])([H])C4(O[H])OC(=O)C([H])([H])C42[H])C13C([H])([H])[H]

$$$$
19:0:1
     RDKit          3D

 86 92  0  0  1  0  0  0  0  0999 V2000
    3.7496   -9.4515    1.2079 C   0  0  0  0  0  0  0  0  0  0  0  0
    3.5162   -8.0510    1.2010 O   0  0  0  0  0  0  0  0  0  0  0  0
    4.0043   -7.3794    2.3504 C   0  0  2  0  0  0  0  0  0  0  0  0
    3.1418   -7.7125    3.5510 C   0  0  0  0  0  0  0  0  0  0  0  0
    2.6987   -6.8213    4.4341 C   0  0  0  0  0  0  0  0  0  0  0  0
    3.0114   -5.3338    4.3524 C   0  0  1  0  0  0  0  0  0  0  0  0
    3.2532   -4.7674    5.6407 O   0  0  0  0  0  0  0  0  0  0  0  0
    2.1672   -4.4842    6.5346 C   0  0  2  0  0  0  0  0  0  0  0  0
    1.3299   -5.7336    6.9146 C   0  0  0  0  0  0  0  0  0  0  0  0
    0.1395   -5.4521    7.8429 C   0  0  1  0  0  0  0  0  0  0  0  0
    0.6059   -5.1446    9.1522 O   0  0  0  0  0  0  0  0  0  0  0  0
   -0.7368   -4.3358    7.2367 C   0  0  1  0  0  0  0  0  0  0  0  0
   -1.7941   -4.0740    8.1284 O   0  0  0  0  0  0  0  0  0  0  0  0
    0.0889   -3.0614    6.9311 C   0  0  2  0  0  0  0  0  0  0  0  0
   -0.7303   -2.0039    6.4098 O   0  0  0  0  0  0  0  0  0  0  0  0
   -0.5600   -1.6145    5.0454 C   0  0  1  0  0  0  0  0  0  0  0  0
   -1.6284   -0.5342    4.7486 C   0  0  0  0  0  0  0  0  0  0  0  0
   -1.1984    0.8035    5.3504 C   0  0  2  0  0  0  0  0  0  0  0  0
   -1.2253    0.7327    6.7631 O   0  0  0  0  0  0  0  0  0  0  0  0
   -2.0092    1.8555    4.9251 O   0  0  0  0  0  0  0  0  0  0  0  0
   -1.2751    3.0008    4.8946 C   0  0  0  0  0  0  0  0  0  0  0  0
   -1.7131    4.1293    4.6944 O   0  0  0  0  0  0  0  0  0  0  0  0
    0.1986    2.6848    5.1341 C   0  0  0  0  0  0  0  0  0  0  0  0
    0.1672    1.2047    4.7911 C   0  0  1  0  0  0  0  0  0  0  0  0
    1.3550    0.2226    5.0566 C   0  0  2  0  0  0  0  0  0  0  0  0
    2.5631    0.8032    4.2292 C   0  0  0  0  0  0  0  0  0  0  0  0
    3.9176    0.0502    4.1277 C   0  0  0  0  0  0  0  0  0  0  0  0
    4.7182   -0.1399    5.4226 C   0  0  1  0  0  0  0  0  0  0  0  0
    4.9606    1.1077    6.0433 O   0  0  0  0  0  0  0  0  0  0  0  0
    4.1321   -1.1377    6.4376 C   0  0  0  0  0  0  0  0  0  0  0  0
    2.5889   -1.2647    6.5406 C   0  0  2  0  0  0  0  0  0  0  0  0
    1.9339   -2.1380    5.4283 C   0  0  1  0  0  0  0  0  0  0  0  0
    1.2325   -3.4126    5.9443 C   0  0  1  0  0  0  0  0  0  0  0  0
    0.9283   -1.2374    4.6402 C   0  0  1  0  0  0  0  0  0  0  0  0
    1.0178   -1.5041    3.1108 C   0  0  0  0  0  0  0  0  0  0  0  0
    1.7743    0.0377    6.5275 C   0  0  1  0  0  0  0  0  0  0  0  0
    2.3782    1.1576    7.1400 O   0  0  0  0  0  0  0  0  0  0  0  0
    4.2046   -5.0271    3.4047 C   0  0  1  0  0  0  0  0  0  0  0  0
    5.4123   -5.4015    4.0286 O   0  0  0  0  0  0  0  0  0  0  0  0
    4.0572   -5.8413    2.0910 C   0  0  1  0  0  0  0  0  0  0  0  0
    5.1305   -5.4874    1.2222 O   0  0  0  0  0  0  0  0  0  0  0  0
    4.8301   -5.5868   -0.1630 C   0  0  0  0  0  0  0  0  0  0  0  0
    3.3993   -9.8549    0.2585 H   0  0  0  0  0  0  0  0  0  0  0  0
    3.2260   -9.9774    2.0088 H   0  0  0  0  0  0  0  0  0  0  0  0
    4.8163   -9.6539    1.3049 H   0  0  0  0  0  0  0  0  0  0  0  0
    5.0090   -7.7228    2.5766 H   0  0  0  0  0  0  0  0  0  0  0  0
    2.8449   -8.7444    3.6751 H   0  0  0  0  0  0  0  0  0  0  0  0
    2.0886   -7.2141    5.1905 H   0  0  0  0  0  0  0  0  0  0  0  0
    2.1604   -4.8323    3.8993 H   0  0  0  0  0  0  0  0  0  0  0  0
    2.6371   -4.0827    7.4465 H   0  0  0  0  0  0  0  0  0  0  0  0
    0.8724   -6.1189    6.0297 H   0  0  0  0  0  0  0  0  0  0  0  0
    1.9641   -6.5157    7.3317 H   0  0  0  0  0  0  0  0  0  0  0  0
   -0.4384   -6.3717    7.9272 H   0  0  0  0  0  0  0  0  0  0  0  0
    1.2686   -4.4693    9.0934 H   0  0  0  0  0  0  0  0  0  0  0  0
   -1.1634   -4.7145    6.3064 H   0  0  0  0  0  0  0  0  0  0  0  0
   -2.2898   -4.8677    8.2491 H   0  0  0  0  0  0  0  0  0  0  0  0
    0.5009   -2.7028    7.8738 H   0  0  0  0  0  0  0  0  0  0  0  0
   -0.8591   -2.4889    4.4654 H   0  0  0  0  0  0  0  0  0  0  0  0
   -1.7565   -0.4070    3.6744 H   0  0  0  0  0  0  0  0  0  0  0  0
   -2.5988   -0.8237    5.1509 H   0  0  0  0  0  0  0  0  0  0  0  0
   -0.7299    1.4666    7.1020 H   0  0  0  0  0  0  0  0  0  0  0  0
    0.8404    3.2751    4.4860 H   0  0  0  0  0  0  0  0  0  0  0  0
    0.4476    2.8684    6.1757 H   0  0  0  0  0  0  0  0  0  0  0  0
    0.0504    1.1890    3.6990 H   0  0  0  0  0  0  0  0  0  0  0  0
    2.2379    0.9604    3.2009 H   0  0  0  0  0  0  0  0  0  0  0  0
    2.7830    1.8098    4.5881 H   0  0  0  0  0  0  0  0  0  0  0  0
    3.8314   -0.9112    3.6280 H   0  0  0  0  0  0  0  0  0  0  0  0
    4.5473    0.6358    3.4540 H   0  0  0  0  0  0  0  0  0  0  0  0
    5.6991   -0.5219    5.1346 H   0  0  0  0  0  0  0  0  0  0  0  0
    5.6068    0.9773    6.7256 H   0  0  0  0  0  0  0  0  0  0  0  0
    4.5433   -2.1255    6.2285 H   0  0  0  0  0  0  0  0  0  0  0  0
    4.5239   -0.8884    7.4245 H   0  0  0  0  0  0  0  0  0  0  0  0
    2.4375   -1.7371    7.5078 H   0  0  0  0  0  0  0  0  0  0  0  0
    2.7209   -2.4520    4.7456 H   0  0  0  0  0  0  0  0  0  0  0  0
    0.7708   -3.8837    5.0702 H   0  0  0  0  0  0  0  0  0  0  0  0
    2.0054   -1.3561    2.6825 H   0  0  0  0  0  0  0  0  0  0  0  0
    0.3394   -0.8589    2.5529 H   0  0  0  0  0  0  0  0  0  0  0  0
    0.7505   -2.5361    2.8833 H   0  0  0  0  0  0  0  0  0  0  0  0
    0.9131   -0.1972    7.1400 H   0  0  0  0  0  0  0  0  0  0  0  0
    3.1864    1.3449    6.6685 H   0  0  0  0  0  0  0  0  0  0  0  0
    4.2444   -3.9574    3.1731 H   0  0  0  0  0  0  0  0  0  0  0  0
    5.3394   -6.3126    4.2734 H   0  0  0  0  0  0  0  0  0  0  0  0
    3.1083   -5.5297    1.6381 H   0  0  0  0  0  0  0  0  0  0  0  0
    5.7510   -5.4489   -0.7204 H   0  0  0  0  0  0  0  0  0  0  0  0
    4.1293   -4.8031   -0.4409 H   0  0  0  0  0  0  0  0  0  0  0  0
    4.4088   -6.5514   -0.4454 H   0  0  0  0  0  0  0  0  0  0  0  0
  1  2  1  0
  1 43  1  0
  1 44  1  0
  1 45  1  0
  2  3  1  0
  3 40  1  0
  3  4  1  0
  3 46  1  1
  4  5  2  0
  4 47  1  0
  5  6  1  0
  5 48  1  0
  6  7  1  0
  6 38  1  0
  6 49  1  6
  7  8  1  0
  8 33  1  0
  8  9  1  0
  8 50  1  1
  9 10  1  0
  9 51  1  0
  9 52  1  0
 10 11  1  0
 10 12  1  0
 10 53  1  1
 11 54  1  0
 12 13  1  0
 12 14  1  0
 12 55  1  6
 13 56  1  0
 14 33  1  0
 14 15  1  0
 14 57  1  1
 15 16  1  0
 16 34  1  0
 16 17  1  0
 16 58  1  6
 17 18  1  0
 17 59  1  0
 17 60  1  0
 18 24  1  0
 18 19  1  1
 18 20  1  0
 19 61  1  0
 20 21  1  0
 21 22  2  0
 21 23  1  0
 23 24  1  0
 23 62  1  0
 23 63  1  0
 24 25  1  0
 24 64  1  6
 25 34  1  0
 25 36  1  0
 25 26  1  6
 26 27  1  0
 26 65  1  0
 26 66  1  0
 27 28  1  0
 27 67  1  0
 27 68  1  0
 28 29  1  0
 28 30  1  0
 28 69  1  6
 29 70  1  0
 30 31  1  0
 30 71  1  0
 30 72  1  0
 31 32  1  0
 31 36  1  0
 31 73  1  1
 32 33  1  0
 32 34  1  0
 32 74  1  6
 33 75  1  6
 34 35  1  6
 35 76  1  0
 35 77  1  0
 35 78  1  0
 36 37  1  0
 36 79  1  1
 37 80  1  0
 38 39  1  0
 38 40  1  0
 38 81  1  6
 39 82  1  0
 40 41  1  0
 40 83  1  6
 41 42  1  0
 42 84  1  0
 42 85  1  0
 42 86  1  0
M  END
>  <i_m_ct_stereo_status>  (57) 
1

>  <s_m_source_file>  (57) 
/var/tmp/pbs.5076255.sched01/tmpbdos_d33/0hajo06zg.sdf

>  <i_m_source_file_index>  (57) 
28

>  <i_lp_mmshare_version>  (57) 
48012

>  <i_f3d_flags>  (57) 
0

>  <s_epik_input>  (57) 
W0NIM11PW0NAQEhdMVtDSF09W0NIXVtDQEhdKFtDQEBIXShbT0hdKVtDQEhdMU9bQ0gzXSlPW0NAQEhdMltDSDJdW0NAQEhdKFtPSF0pW0NAQEhdKFtPSF0pW0NASF0oTzMpW0NASF0yW0NASF0oW0NASF0oW0NASF00W09IXSlbQ0gyXVtDQEhdKFtPSF0pW0NIMl1bQ0gyXTUpW0NAQF02KFtDSDNdKVtDQEBIXTNbQ0gyXVtDQEBdKFtPSF0pKFtDQEBIXTdbQ0BdNDU2KU9DKD1PKVtDSDJdNw==

>  <s_epik_cmdline>  (57) 
J2VwaWtfcHl0aG9uJywgJy1waHQnLCAnMi4wJywgJy1waCcsICc3LjAnLCAnLXRuJywgJzgnLCAnLW1hJywgJzIwMCcsICctaW1hZScsICc8aW5maWxlLm1hZT4nLCAnLW9tYWUnLCAnPG91dGZpbGUubWFlPic=

>  <r_lp_tautomer_probability>  (57) 
1

>  <r_epik_Ionization_Penalty>  (57) 
9.00317e-06

>  <r_epik_Ionization_Penalty_Charging>  (57) 
0

>  <r_epik_Ionization_Penalty_Neutral>  (57) 
9.00317e-06

>  <r_epik_State_Penalty>  (57) 
-0

>  <r_epik_Charging_Adjusted_Penalty>  (57) 
0

>  <i_epik_Tot_Q>  (57) 
0

>  <i_epik_Tot_abs_Q>  (57) 
0

>  <s_epik_Chemistry_Notes>  (57) 
This compound has an ester and may undergo hydrolysis at high or low pH.

>  <s_lp_Force_Field>  (57) 
OPLS3e

>  <r_lp_Energy>  (57) 
72.1686

>  <b_lp_Chiralities_Consistent>  (57) 
1

>  <s_lp_Variant>  (57) 
19:0-1

>  <s_i_glide_gridfile>  (57) 
pfpi4k_grid

>  <i_i_glide_lignum>  (57) 
28

>  <i_i_glide_rotatable_bonds>  (57) 
10

>  <r_i_docking_score>  (57) 
-3.26512

>  <r_i_glide_ligand_efficiency>  (57) 
-0.0777409

>  <r_i_glide_ligand_efficiency_sa>  (57) 
-0.27023

>  <r_i_glide_ligand_efficiency_ln>  (57) 
-0.689183

>  <r_i_glide_gscore>  (57) 
-3.26512

>  <r_i_glide_lipo>  (57) 
-0.0394424

>  <r_i_glide_hbond>  (57) 
0

>  <r_i_glide_metal>  (57) 
-0

>  <r_i_glide_rewards>  (57) 
-0.5

>  <r_i_glide_evdw>  (57) 
-24.9895

>  <r_i_glide_ecoul>  (57) 
-9.58027

>  <r_i_glide_erotb>  (57) 
0.0039335

>  <r_i_glide_esite>  (57) 
-0.0430946

>  <r_i_glide_emodel>  (57) 
-43.1118

>  <r_i_glide_energy>  (57) 
-34.5698

>  <r_i_glide_einternal>  (57) 
4.65693

>  <r_i_glide_intrahb_reward>  (57) 
-0.5

>  <i_i_glide_confnum>  (57) 
1

>  <i_i_glide_posenum>  (57) 
26

>  <r_i_glide_eff_state_penalty>  (57) 
0

>  <ligand_id>  (57) 
19

>  <original_smiles>  (57) 
COC1C=CC(OC2CC(O)C(O)C3OC4CC5(O)OC(=O)CC5C56CCC(O)CC(C(C23)C45C)C6O)C(O)C1OC

>  <smiles>  (57) 
[H]OC1([H])C([H])([H])C([H])([H])C23C([H])(O[H])C([H])(C1([H])[H])C1([H])C4([H])C([H])(OC5([H])C([H])=C([H])C([H])(OC([H])([H])[H])C([H])(OC([H])([H])[H])C5([H])O[H])C([H])([H])C([H])(O[H])C([H])(O[H])C4([H])OC([H])(C([H])([H])C4(O[H])OC(=O)C([H])([H])C42[H])C13C([H])([H])[H]

$$$$
19:0:2
     RDKit          3D

 86 92  0  0  1  0  0  0  0  0999 V2000
    7.3782   -2.3110   -0.2914 C   0  0  0  0  0  0  0  0  0  0  0  0
    6.0649   -2.1810   -0.8271 O   0  0  0  0  0  0  0  0  0  0  0  0
    4.9744   -2.0718    0.0926 C   0  0  2  0  0  0  0  0  0  0  0  0
    5.1497   -0.8683    1.0080 C   0  0  0  0  0  0  0  0  0  0  0  0
    4.9543   -0.9070    2.3288 C   0  0  0  0  0  0  0  0  0  0  0  0
    4.4394   -2.1351    3.0660 C   0  0  1  0  0  0  0  0  0  0  0  0
    3.4761   -1.8403    4.0759 O   0  0  0  0  0  0  0  0  0  0  0  0
    3.9405   -1.2690    5.2959 C   0  0  2  0  0  0  0  0  0  0  0  0
    4.5520   -2.4083    6.1522 C   0  0  0  0  0  0  0  0  0  0  0  0
    4.9252   -1.9546    7.5730 C   0  0  1  0  0  0  0  0  0  0  0  0
    6.0447   -1.0887    7.4855 O   0  0  0  0  0  0  0  0  0  0  0  0
    3.7364   -1.2630    8.2911 C   0  0  1  0  0  0  0  0  0  0  0  0
    4.2241   -0.7891    9.5310 O   0  0  0  0  0  0  0  0  0  0  0  0
    3.1597   -0.1136    7.4344 C   0  0  2  0  0  0  0  0  0  0  0  0
    2.0991    0.5664    8.1047 O   0  0  0  0  0  0  0  0  0  0  0  0
    0.7713    0.4184    7.6096 C   0  0  1  0  0  0  0  0  0  0  0  0
   -0.1903    1.1465    8.5928 C   0  0  0  0  0  0  0  0  0  0  0  0
   -0.1022    2.6608    8.3698 C   0  0  2  0  0  0  0  0  0  0  0  0
    1.1690    3.1473    8.7649 O   0  0  0  0  0  0  0  0  0  0  0  0
   -1.0869    3.3502    9.0682 O   0  0  0  0  0  0  0  0  0  0  0  0
   -1.4088    4.4861    8.3845 C   0  0  0  0  0  0  0  0  0  0  0  0
   -2.1658    5.3743    8.7602 O   0  0  0  0  0  0  0  0  0  0  0  0
   -0.7225    4.4780    7.0176 C   0  0  0  0  0  0  0  0  0  0  0  0
   -0.4418    2.9944    6.9154 C   0  0  1  0  0  0  0  0  0  0  0  0
    0.4724    2.3461    5.8209 C   0  0  2  0  0  0  0  0  0  0  0  0
   -0.2149    2.7159    4.4502 C   0  0  0  0  0  0  0  0  0  0  0  0
    0.3146    2.1623    3.1018 C   0  0  0  0  0  0  0  0  0  0  0  0
    1.7229    2.5916    2.6764 C   0  0  1  0  0  0  0  0  0  0  0  0
    1.8142    3.9945    2.5866 O   0  0  0  0  0  0  0  0  0  0  0  0
    2.8888    2.0117    3.4938 C   0  0  0  0  0  0  0  0  0  0  0  0
    2.6757    1.7285    4.9943 C   0  0  2  0  0  0  0  0  0  0  0  0
    1.9028    0.4059    5.2875 C   0  0  1  0  0  0  0  0  0  0  0  0
    2.7280   -0.6618    6.0494 C   0  0  1  0  0  0  0  0  0  0  0  0
    0.6071    0.7921    6.0770 C   0  0  1  0  0  0  0  0  0  0  0  0
   -0.6239   -0.0232    5.5886 C   0  0  0  0  0  0  0  0  0  0  0  0
    1.9448    2.8090    5.8000 C   0  0  1  0  0  0  0  0  0  0  0  0
    2.1595    4.1449    5.3853 O   0  0  0  0  0  0  0  0  0  0  0  0
    3.8099   -3.1773    2.1140 C   0  0  1  0  0  0  0  0  0  0  0  0
    2.5459   -2.7120    1.6648 O   0  0  0  0  0  0  0  0  0  0  0  0
    4.7259   -3.3907    0.8847 C   0  0  1  0  0  0  0  0  0  0  0  0
    4.1989   -4.3791   -0.0009 O   0  0  0  0  0  0  0  0  0  0  0  0
    4.3753   -5.7255    0.4196 C   0  0  0  0  0  0  0  0  0  0  0  0
    8.1079   -2.3492   -1.1029 H   0  0  0  0  0  0  0  0  0  0  0  0
    7.4985   -3.2224    0.2901 H   0  0  0  0  0  0  0  0  0  0  0  0
    7.6423   -1.4591    0.3356 H   0  0  0  0  0  0  0  0  0  0  0  0
    4.0871   -1.8561   -0.5057 H   0  0  0  0  0  0  0  0  0  0  0  0
    5.5282    0.0326    0.5448 H   0  0  0  0  0  0  0  0  0  0  0  0
    5.2022   -0.0367    2.9220 H   0  0  0  0  0  0  0  0  0  0  0  0
    5.3199   -2.5940    3.5042 H   0  0  0  0  0  0  0  0  0  0  0  0
    4.6718   -0.4855    5.1050 H   0  0  0  0  0  0  0  0  0  0  0  0
    3.8123   -3.2102    6.2255 H   0  0  0  0  0  0  0  0  0  0  0  0
    5.4245   -2.8446    5.6688 H   0  0  0  0  0  0  0  0  0  0  0  0
    5.2369   -2.8247    8.1512 H   0  0  0  0  0  0  0  0  0  0  0  0
    6.7928   -1.5981    7.2152 H   0  0  0  0  0  0  0  0  0  0  0  0
    2.9591   -2.0044    8.4766 H   0  0  0  0  0  0  0  0  0  0  0  0
    4.9470   -0.2111    9.3437 H   0  0  0  0  0  0  0  0  0  0  0  0
    3.9472    0.6325    7.3027 H   0  0  0  0  0  0  0  0  0  0  0  0
    0.5547   -0.6468    7.7288 H   0  0  0  0  0  0  0  0  0  0  0  0
   -1.2146    0.8367    8.4274 H   0  0  0  0  0  0  0  0  0  0  0  0
    0.0627    0.9153    9.6279 H   0  0  0  0  0  0  0  0  0  0  0  0
    1.3131    2.9060    9.6686 H   0  0  0  0  0  0  0  0  0  0  0  0
   -1.3827    4.8419    6.2372 H   0  0  0  0  0  0  0  0  0  0  0  0
    0.1869    5.0766    7.0559 H   0  0  0  0  0  0  0  0  0  0  0  0
   -1.4225    2.5374    6.7434 H   0  0  0  0  0  0  0  0  0  0  0  0
   -1.2641    2.4223    4.4960 H   0  0  0  0  0  0  0  0  0  0  0  0
   -0.2500    3.8025    4.3592 H   0  0  0  0  0  0  0  0  0  0  0  0
    0.2530    1.0856    3.0315 H   0  0  0  0  0  0  0  0  0  0  0  0
   -0.3660    2.5203    2.3283 H   0  0  0  0  0  0  0  0  0  0  0  0
    1.8635    2.2554    1.6473 H   0  0  0  0  0  0  0  0  0  0  0  0
    1.2027    4.2498    1.8789 H   0  0  0  0  0  0  0  0  0  0  0  0
    3.1977    1.0899    3.0065 H   0  0  0  0  0  0  0  0  0  0  0  0
    3.7385    2.6908    3.3979 H   0  0  0  0  0  0  0  0  0  0  0  0
    3.6882    1.6544    5.3894 H   0  0  0  0  0  0  0  0  0  0  0  0
    1.6100   -0.0423    4.3388 H   0  0  0  0  0  0  0  0  0  0  0  0
    2.0432   -1.4939    6.2157 H   0  0  0  0  0  0  0  0  0  0  0  0
   -0.8289    0.0776    4.5270 H   0  0  0  0  0  0  0  0  0  0  0  0
   -1.5346    0.2641    6.1126 H   0  0  0  0  0  0  0  0  0  0  0  0
   -0.4715   -1.0892    5.7581 H   0  0  0  0  0  0  0  0  0  0  0  0
    2.3771    2.7384    6.7921 H   0  0  0  0  0  0  0  0  0  0  0  0
    1.9286    4.2113    4.4634 H   0  0  0  0  0  0  0  0  0  0  0  0
    3.6794   -4.1046    2.6678 H   0  0  0  0  0  0  0  0  0  0  0  0
    2.6704   -1.8944    1.2100 H   0  0  0  0  0  0  0  0  0  0  0  0
    5.6723   -3.7533    1.2808 H   0  0  0  0  0  0  0  0  0  0  0  0
    4.0070   -6.4115   -0.3425 H   0  0  0  0  0  0  0  0  0  0  0  0
    3.8243   -5.9340    1.3352 H   0  0  0  0  0  0  0  0  0  0  0  0
    5.4294   -5.9510    0.5810 H   0  0  0  0  0  0  0  0  0  0  0  0
  1  2  1  0
  1 43  1  0
  1 44  1  0
  1 45  1  0
  2  3  1  0
  3 40  1  0
  3  4  1  0
  3 46  1  6
  4  5  2  0
  4 47  1  0
  5  6  1  0
  5 48  1  0
  6  7  1  0
  6 38  1  0
  6 49  1  1
  7  8  1  0
  8 33  1  0
  8  9  1  0
  8 50  1  6
  9 10  1  0
  9 51  1  0
  9 52  1  0
 10 11  1  0
 10 12  1  0
 10 53  1  1
 11 54  1  0
 12 13  1  0
 12 14  1  0
 12 55  1  1
 13 56  1  0
 14 33  1  0
 14 15  1  0
 14 57  1  6
 15 16  1  0
 16 34  1  0
 16 17  1  0
 16 58  1  6
 17 18  1  0
 17 59  1  0
 17 60  1  0
 18 24  1  0
 18 19  1  1
 18 20  1  0
 19 61  1  0
 20 21  1  0
 21 22  2  0
 21 23  1  0
 23 24  1  0
 23 62  1  0
 23 63  1  0
 24 25  1  0
 24 64  1  6
 25 34  1  0
 25 36  1  0
 25 26  1  6
 26 27  1  0
 26 65  1  0
 26 66  1  0
 27 28  1  0
 27 67  1  0
 27 68  1  0
 28 29  1  0
 28 30  1  0
 28 69  1  6
 29 70  1  0
 30 31  1  0
 30 71  1  0
 30 72  1  0
 31 32  1  0
 31 36  1  0
 31 73  1  1
 32 33  1  0
 32 34  1  0
 32 74  1  6
 33 75  1  1
 34 35  1  6
 35 76  1  0
 35 77  1  0
 35 78  1  0
 36 37  1  0
 36 79  1  1
 37 80  1  0
 38 39  1  0
 38 40  1  0
 38 81  1  1
 39 82  1  0
 40 41  1  0
 40 83  1  1
 41 42  1  0
 42 84  1  0
 42 85  1  0
 42 86  1  0
M  END
>  <i_m_ct_stereo_status>  (58) 
1

>  <s_m_source_file>  (58) 
/var/tmp/pbs.5076255.sched01/tmpbdos_d33/0hajo06zg.sdf

>  <i_m_source_file_index>  (58) 
28

>  <i_lp_mmshare_version>  (58) 
48012

>  <i_f3d_flags>  (58) 
0

>  <s_epik_input>  (58) 
W0NIM11PW0NAQEhdMVtDSF09W0NIXVtDQEhdKFtDQEBIXShbT0hdKVtDQEhdMU9bQ0gzXSlPW0NAQEhdMltDSDJdW0NAQEhdKFtPSF0pW0NAQEhdKFtPSF0pW0NASF0oTzMpW0NASF0yW0NASF0oW0NASF0oW0NASF00W09IXSlbQ0gyXVtDQEhdKFtPSF0pW0NIMl1bQ0gyXTUpW0NAQF02KFtDSDNdKVtDQEBIXTNbQ0gyXVtDQEBdKFtPSF0pKFtDQEBIXTdbQ0BdNDU2KU9DKD1PKVtDSDJdNw==

>  <s_epik_cmdline>  (58) 
J2VwaWtfcHl0aG9uJywgJy1waHQnLCAnMi4wJywgJy1waCcsICc3LjAnLCAnLXRuJywgJzgnLCAnLW1hJywgJzIwMCcsICctaW1hZScsICc8aW5maWxlLm1hZT4nLCAnLW9tYWUnLCAnPG91dGZpbGUubWFlPic=

>  <r_lp_tautomer_probability>  (58) 
1

>  <r_epik_Ionization_Penalty>  (58) 
9.00317e-06

>  <r_epik_Ionization_Penalty_Charging>  (58) 
0

>  <r_epik_Ionization_Penalty_Neutral>  (58) 
9.00317e-06

>  <r_epik_State_Penalty>  (58) 
-0

>  <r_epik_Charging_Adjusted_Penalty>  (58) 
0

>  <i_epik_Tot_Q>  (58) 
0

>  <i_epik_Tot_abs_Q>  (58) 
0

>  <s_epik_Chemistry_Notes>  (58) 
This compound has an ester and may undergo hydrolysis at high or low pH.

>  <s_lp_Force_Field>  (58) 
OPLS3e

>  <r_lp_Energy>  (58) 
72.1686

>  <b_lp_Chiralities_Consistent>  (58) 
1

>  <s_lp_Variant>  (58) 
19:0-1

>  <s_i_glide_gridfile>  (58) 
pfpi4k_grid

>  <i_i_glide_lignum>  (58) 
28

>  <i_i_glide_rotatable_bonds>  (58) 
10

>  <r_i_docking_score>  (58) 
-2.6016

>  <r_i_glide_ligand_efficiency>  (58) 
-0.0619429

>  <r_i_glide_ligand_efficiency_sa>  (58) 
-0.215315

>  <r_i_glide_ligand_efficiency_ln>  (58) 
-0.549131

>  <r_i_glide_gscore>  (58) 
-2.6016

>  <r_i_glide_lipo>  (58) 
-0.385704

>  <r_i_glide_hbond>  (58) 
0

>  <r_i_glide_metal>  (58) 
-0

>  <r_i_glide_rewards>  (58) 
-0.5

>  <r_i_glide_evdw>  (58) 
-22.5593

>  <r_i_glide_ecoul>  (58) 
-3.91184

>  <r_i_glide_erotb>  (58) 
0.0039335

>  <r_i_glide_esite>  (58) 
-0.00509345

>  <r_i_glide_emodel>  (58) 
-36.1333

>  <r_i_glide_energy>  (58) 
-26.4711

>  <r_i_glide_einternal>  (58) 
3.09934

>  <r_i_glide_intrahb_reward>  (58) 
-0.5

>  <i_i_glide_confnum>  (58) 
1

>  <i_i_glide_posenum>  (58) 
8

>  <r_i_glide_eff_state_penalty>  (58) 
0

>  <ligand_id>  (58) 
19

>  <original_smiles>  (58) 
COC1C=CC(OC2CC(O)C(O)C3OC4CC5(O)OC(=O)CC5C56CCC(O)CC(C(C23)C45C)C6O)C(O)C1OC

>  <smiles>  (58) 
[H]OC1([H])C([H])([H])C([H])([H])C23C([H])(O[H])C([H])(C1([H])[H])C1([H])C4([H])C([H])(OC5([H])C([H])=C([H])C([H])(OC([H])([H])[H])C([H])(OC([H])([H])[H])C5([H])O[H])C([H])([H])C([H])(O[H])C([H])(O[H])C4([H])OC([H])(C([H])([H])C4(O[H])OC(=O)C([H])([H])C42[H])C13C([H])([H])[H]

$$$$
21:0:0
     RDKit          3D

 54 58  0  0  1  0  0  0  0  0999 V2000
    3.5408  -11.8683    4.4339 C   0  0  0  0  0  0  0  0  0  0  0  0
    2.8255  -11.0281    3.3830 C   0  0  2  0  0  0  0  0  0  0  0  0
    3.5120   -9.7686    2.8806 C   0  0  2  0  0  0  0  0  0  0  0  0
    4.8607   -9.1439    3.0811 C   0  0  0  0  0  0  0  0  0  0  0  0
    4.4555   -7.6340    3.2628 C   0  0  1  0  0  0  0  0  0  0  0  0
    4.8880   -6.7826    2.1291 N   0  0  2  0  0  0  0  0  0  0  0  0
    6.3452   -6.7455    1.8976 C   0  0  0  0  0  0  0  0  0  0  0  0
    6.5764   -5.5424    0.9828 C   0  0  0  0  0  0  0  0  0  0  0  0
    5.3194   -4.6609    1.1385 C   0  0  2  0  0  0  0  0  0  0  0  0
    4.5156   -4.4791   -0.1308 C   0  0  0  0  0  0  0  0  0  0  0  0
    4.7192   -3.0340   -0.4348 C   0  0  0  0  0  0  0  0  0  0  0  0
    4.1537   -2.3990   -1.6376 C   0  0  0  0  0  0  0  0  0  0  0  0
    3.1247   -3.0272   -2.3503 C   0  0  0  0  0  0  0  0  0  0  0  0
    2.6342   -2.3834   -3.4882 C   0  0  0  0  0  0  0  0  0  0  0  0
    3.1505   -1.1966   -3.8886 N   0  0  0  0  0  0  0  0  0  0  0  0
    4.0851   -0.6688   -3.1135 C   0  0  0  0  0  0  0  0  0  0  0  0
    4.6450   -1.1934   -2.0326 N   0  0  0  0  0  0  0  0  0  0  0  0
    5.4151   -2.4460    0.4502 N   0  0  0  0  0  0  0  0  0  0  0  0
    5.6609   -3.3232    1.5204 O   0  0  0  0  0  0  0  0  0  0  0  0
    4.4990   -5.3605    2.2326 C   0  0  0  0  0  0  0  0  0  0  0  0
    2.8956   -7.6126    3.4592 C   0  0  0  0  0  0  0  0  0  0  0  0
    2.6921   -9.0301    3.8959 C   0  0  1  0  0  0  0  0  0  0  0  0
    1.6023  -10.0924    3.7302 C   0  0  0  0  0  0  0  0  0  0  0  0
    0.5572   -9.8108    2.6432 C   0  0  0  0  0  0  0  0  0  0  0  0
    0.8434  -10.4798    5.0023 C   0  0  0  0  0  0  0  0  0  0  0  0
    3.8590  -11.2679    5.2858 H   0  0  0  0  0  0  0  0  0  0  0  0
    4.4305  -12.3335    4.0089 H   0  0  0  0  0  0  0  0  0  0  0  0
    2.8973  -12.6636    4.8074 H   0  0  0  0  0  0  0  0  0  0  0  0
    2.5546  -11.6405    2.5235 H   0  0  0  0  0  0  0  0  0  0  0  0
    3.1603   -9.5864    1.8617 H   0  0  0  0  0  0  0  0  0  0  0  0
    5.3223   -9.5170    3.9973 H   0  0  0  0  0  0  0  0  0  0  0  0
    5.5457   -9.3641    2.2628 H   0  0  0  0  0  0  0  0  0  0  0  0
    4.9209   -7.2648    4.1794 H   0  0  0  0  0  0  0  0  0  0  0  0
    6.8299   -6.5671    2.8596 H   0  0  0  0  0  0  0  0  0  0  0  0
    6.7506   -7.6714    1.4807 H   0  0  0  0  0  0  0  0  0  0  0  0
    7.5086   -5.0366    1.2451 H   0  0  0  0  0  0  0  0  0  0  0  0
    6.7013   -5.9102   -0.0301 H   0  0  0  0  0  0  0  0  0  0  0  0
    4.8534   -5.0767   -0.9711 H   0  0  0  0  0  0  0  0  0  0  0  0
    3.4547   -4.6611    0.0118 H   0  0  0  0  0  0  0  0  0  0  0  0
    2.6918   -3.9824   -2.0452 H   0  0  0  0  0  0  0  0  0  0  0  0
    1.8407   -2.8037   -4.0856 H   0  0  0  0  0  0  0  0  0  0  0  0
    4.4719    0.2902   -3.4334 H   0  0  0  0  0  0  0  0  0  0  0  0
    3.4184   -5.2088    2.1502 H   0  0  0  0  0  0  0  0  0  0  0  0
    4.7788   -5.0041    3.2315 H   0  0  0  0  0  0  0  0  0  0  0  0
    2.5764   -6.8843    4.2043 H   0  0  0  0  0  0  0  0  0  0  0  0
    2.3501   -7.4107    2.5323 H   0  0  0  0  0  0  0  0  0  0  0  0
    3.1103   -9.1609    4.8960 H   0  0  0  0  0  0  0  0  0  0  0  0
   -0.0918   -8.9854    2.9364 H   0  0  0  0  0  0  0  0  0  0  0  0
   -0.0777  -10.6757    2.4510 H   0  0  0  0  0  0  0  0  0  0  0  0
    1.0116   -9.5290    1.6944 H   0  0  0  0  0  0  0  0  0  0  0  0
    0.1462   -9.7040    5.3189 H   0  0  0  0  0  0  0  0  0  0  0  0
    1.5270  -10.6472    5.8359 H   0  0  0  0  0  0  0  0  0  0  0  0
    0.2837  -11.4078    4.8748 H   0  0  0  0  0  0  0  0  0  0  0  0
    4.4614   -7.1347    1.2816 H   0  0  0  0  0  0  0  0  0  0  0  0
  1  2  1  0
  1 26  1  0
  1 27  1  0
  1 28  1  0
  2 23  1  0
  2  3  1  0
  2 29  1  6
  3 22  1  0
  3  4  1  0
  3 30  1  6
  4  5  1  0
  4 31  1  0
  4 32  1  0
  5  6  1  0
  5 21  1  0
  5 33  1  1
  6 20  1  0
  6  7  1  0
  6 54  1  6
  7  8  1  0
  7 34  1  0
  7 35  1  0
  8  9  1  0
  8 36  1  0
  8 37  1  0
  9 19  1  1
  9 10  1  0
  9 20  1  0
 10 11  1  0
 10 38  1  0
 10 39  1  0
 11 12  1  0
 11 18  2  0
 12 17  1  0
 12 13  2  0
 13 14  1  0
 13 40  1  0
 14 15  2  0
 14 41  1  0
 15 16  1  0
 16 17  2  0
 16 42  1  0
 18 19  1  0
 20 43  1  0
 20 44  1  0
 21 22  1  0
 21 45  1  0
 21 46  1  0
 22 23  1  0
 22 47  1  1
 23 24  1  0
 23 25  1  0
 24 48  1  0
 24 49  1  0
 24 50  1  0
 25 51  1  0
 25 52  1  0
 25 53  1  0
M  CHG  1   6   1
M  END
>  <i_m_ct_stereo_status>  (59) 
1

>  <s_m_source_file>  (59) 
/var/tmp/pbs.5076255.sched01/tmpbdos_d33/0hajo06zg.sdf

>  <i_m_source_file_index>  (59) 
30

>  <i_lp_mmshare_version>  (59) 
48012

>  <i_f3d_flags>  (59) 
0

>  <s_epik_input>  (59) 
W0NIM11bQ0BIXTFDKFtDSDNdKShbQ0gzXSlbQ0BASF0oW0NASF0xMilbQ0gyXVtDQEBIXShbQ0gyXTIpTihbQ0gyXTMpW0NIMl1bQ0gyXVtDQEBdMzRbQ0gyXUMoPU5PNCljNVtjSF1bY0hdbltjSF1uNQ==

>  <s_epik_cmdline>  (59) 
J2VwaWtfcHl0aG9uJywgJy1waHQnLCAnMi4wJywgJy1waCcsICc3LjAnLCAnLXRuJywgJzgnLCAnLW1hJywgJzIwMCcsICctaW1hZScsICc8aW5maWxlLm1hZT4nLCAnLW9tYWUnLCAnPG91dGZpbGUubWFlPic=

>  <r_epik_Ionization_Penalty>  (59) 
0.00530887

>  <r_epik_Ionization_Penalty_Charging>  (59) 
0.00530528

>  <r_epik_Ionization_Penalty_Neutral>  (59) 
3.59673e-06

>  <r_epik_State_Penalty>  (59) 
0.00387245

>  <r_epik_Charging_Adjusted_Penalty>  (59) 
0.00917773

>  <i_epik_Tot_Q>  (59) 
1

>  <i_epik_Tot_abs_Q>  (59) 
1

>  <s_epik_Chemistry_Notes>  (59) 
This compound contains an electron-poor aromatic ring that is susceptible to covalent hydrolysis at low pH, typically resulting in measured values for nitrogen ring protonation that are around two units higher than predicted values. This compound has an imine and may undergo hydrolysis.

>  <s_lp_Force_Field>  (59) 
OPLS3e

>  <r_lp_Energy>  (59) 
61.9564

>  <b_lp_Chiralities_Consistent>  (59) 
1

>  <s_lp_Variant>  (59) 
21:0-1

>  <s_i_glide_gridfile>  (59) 
pfpi4k_grid

>  <i_i_glide_lignum>  (59) 
30

>  <i_i_glide_rotatable_bonds>  (59) 
2

>  <r_i_docking_score>  (59) 
-3.52697

>  <r_i_glide_ligand_efficiency>  (59) 
-0.141079

>  <r_i_glide_ligand_efficiency_sa>  (59) 
-0.412517

>  <r_i_glide_ligand_efficiency_ln>  (59) 
-0.835998

>  <r_i_glide_gscore>  (59) 
-3.52697

>  <r_i_glide_lipo>  (59) 
-0.503393

>  <r_i_glide_hbond>  (59) 
0

>  <r_i_glide_metal>  (59) 
-0

>  <r_i_glide_rewards>  (59) 
-1.3488

>  <r_i_glide_evdw>  (59) 
-27.6704

>  <r_i_glide_ecoul>  (59) 
-4.10866

>  <r_i_glide_erotb>  (59) 
0.325043

>  <r_i_glide_esite>  (59) 
0

>  <r_i_glide_emodel>  (59) 
-38.461

>  <r_i_glide_energy>  (59) 
-31.779

>  <r_i_glide_einternal>  (59) 
0.45728

>  <r_i_glide_intrahb_reward>  (59) 
-0

>  <i_i_glide_confnum>  (59) 
5

>  <i_i_glide_posenum>  (59) 
31

>  <r_i_glide_eff_state_penalty>  (59) 
0

>  <ligand_id>  (59) 
21

>  <original_smiles>  (59) 
CC1C2CC(N3CCC4(CC(c5ccncn5)=NO4)C3)CC2C1(C)C

>  <smiles>  (59) 
[H]c1nc([H])c([H])c(C2=NOC3(C2([H])[H])C([H])([H])C([H])([H])[N+]([H])(C2([H])C([H])([H])C4([H])C([H])(C([H])([H])[H])C(C([H])([H])[H])(C([H])([H])[H])C4([H])C2([H])[H])C3([H])[H])n1

$$$$
21:0:1
     RDKit          3D

 54 58  0  0  1  0  0  0  0  0999 V2000
    0.7785  -10.6592    3.5428 C   0  0  0  0  0  0  0  0  0  0  0  0
    1.3033   -9.2858    3.9468 C   0  0  2  0  0  0  0  0  0  0  0  0
    2.3339   -8.6312    3.0346 C   0  0  2  0  0  0  0  0  0  0  0  0
    2.9301   -8.9534    1.6917 C   0  0  0  0  0  0  0  0  0  0  0  0
    4.4327   -8.5758    1.9735 C   0  0  1  0  0  0  0  0  0  0  0  0
    4.8879   -7.3413    1.2846 N   0  0  2  0  0  0  0  0  0  0  0  0
    6.2777   -6.9435    1.5876 C   0  0  0  0  0  0  0  0  0  0  0  0
    6.3983   -5.5191    1.0505 C   0  0  0  0  0  0  0  0  0  0  0  0
    4.9479   -4.9996    0.9424 C   0  0  2  0  0  0  0  0  0  0  0  0
    4.5364   -4.6423   -0.4737 C   0  0  0  0  0  0  0  0  0  0  0  0
    4.3858   -3.1669   -0.4049 C   0  0  0  0  0  0  0  0  0  0  0  0
    4.0465   -2.3574   -1.5937 C   0  0  0  0  0  0  0  0  0  0  0  0
    3.2064   -2.9035   -2.5835 C   0  0  0  0  0  0  0  0  0  0  0  0
    2.9384   -2.0801   -3.6818 C   0  0  0  0  0  0  0  0  0  0  0  0
    3.4653   -0.8518   -3.7943 N   0  0  0  0  0  0  0  0  0  0  0  0
    4.2204   -0.4305   -2.7727 C   0  0  0  0  0  0  0  0  0  0  0  0
    4.5612   -1.1162   -1.6918 N   0  0  0  0  0  0  0  0  0  0  0  0
    4.5832   -2.7238    0.7690 N   0  0  0  0  0  0  0  0  0  0  0  0
    4.7965   -3.7892    1.6857 O   0  0  0  0  0  0  0  0  0  0  0  0
    4.0754   -6.1246    1.5069 C   0  0  0  0  0  0  0  0  0  0  0  0
    4.5983   -8.4885    3.5357 C   0  0  0  0  0  0  0  0  0  0  0  0
    3.3726   -9.2318    3.9502 C   0  0  1  0  0  0  0  0  0  0  0  0
    2.3688   -9.0969    5.0965 C   0  0  0  0  0  0  0  0  0  0  0  0
    2.3837   -7.7618    5.8623 C   0  0  0  0  0  0  0  0  0  0  0  0
    2.4123  -10.2244    6.1265 C   0  0  0  0  0  0  0  0  0  0  0  0
    1.5852  -11.3633    3.3300 H   0  0  0  0  0  0  0  0  0  0  0  0
    0.1657  -10.5906    2.6421 H   0  0  0  0  0  0  0  0  0  0  0  0
    0.1666  -11.0867    4.3352 H   0  0  0  0  0  0  0  0  0  0  0  0
    0.4734   -8.5939    4.1127 H   0  0  0  0  0  0  0  0  0  0  0  0
    2.2305   -7.5449    3.1423 H   0  0  0  0  0  0  0  0  0  0  0  0
    2.8237  -10.0217    1.4588 H   0  0  0  0  0  0  0  0  0  0  0  0
    2.4534   -8.4011    0.8845 H   0  0  0  0  0  0  0  0  0  0  0  0
    5.0382   -9.4018    1.5967 H   0  0  0  0  0  0  0  0  0  0  0  0
    6.4256   -6.9097    2.6708 H   0  0  0  0  0  0  0  0  0  0  0  0
    7.0111   -7.6438    1.1793 H   0  0  0  0  0  0  0  0  0  0  0  0
    7.0131   -4.9235    1.7296 H   0  0  0  0  0  0  0  0  0  0  0  0
    6.9171   -5.5462    0.0912 H   0  0  0  0  0  0  0  0  0  0  0  0
    5.2736   -4.9125   -1.2273 H   0  0  0  0  0  0  0  0  0  0  0  0
    3.5783   -5.0827   -0.7171 H   0  0  0  0  0  0  0  0  0  0  0  0
    2.7637   -3.8832   -2.5175 H   0  0  0  0  0  0  0  0  0  0  0  0
    2.2913   -2.4283   -4.4692 H   0  0  0  0  0  0  0  0  0  0  0  0
    4.6216    0.5600   -2.8666 H   0  0  0  0  0  0  0  0  0  0  0  0
    3.0832   -6.1902    1.0487 H   0  0  0  0  0  0  0  0  0  0  0  0
    3.9080   -5.9471    2.5723 H   0  0  0  0  0  0  0  0  0  0  0  0
    5.5258   -8.9451    3.8848 H   0  0  0  0  0  0  0  0  0  0  0  0
    4.5583   -7.4662    3.9217 H   0  0  0  0  0  0  0  0  0  0  0  0
    3.5205  -10.3016    3.7493 H   0  0  0  0  0  0  0  0  0  0  0  0
    3.2930   -7.6679    6.4568 H   0  0  0  0  0  0  0  0  0  0  0  0
    1.5347   -7.6791    6.5420 H   0  0  0  0  0  0  0  0  0  0  0  0
    2.3548   -6.8904    5.2056 H   0  0  0  0  0  0  0  0  0  0  0  0
    3.2859  -10.1496    6.7746 H   0  0  0  0  0  0  0  0  0  0  0  0
    2.4615  -11.2023    5.6423 H   0  0  0  0  0  0  0  0  0  0  0  0
    1.5172  -10.2280    6.7489 H   0  0  0  0  0  0  0  0  0  0  0  0
    4.8383   -7.5324    0.2925 H   0  0  0  0  0  0  0  0  0  0  0  0
  1  2  1  0
  1 26  1  0
  1 27  1  0
  1 28  1  0
  2 23  1  0
  2  3  1  0
  2 29  1  1
  3 22  1  0
  3  4  1  0
  3 30  1  1
  4  5  1  0
  4 31  1  0
  4 32  1  0
  5  6  1  0
  5 21  1  0
  5 33  1  6
  6 20  1  0
  6  7  1  0
  6 54  1  6
  7  8  1  0
  7 34  1  0
  7 35  1  0
  8  9  1  0
  8 36  1  0
  8 37  1  0
  9 19  1  1
  9 10  1  0
  9 20  1  0
 10 11  1  0
 10 38  1  0
 10 39  1  0
 11 12  1  0
 11 18  2  0
 12 17  1  0
 12 13  2  0
 13 14  1  0
 13 40  1  0
 14 15  2  0
 14 41  1  0
 15 16  1  0
 16 17  2  0
 16 42  1  0
 18 19  1  0
 20 43  1  0
 20 44  1  0
 21 22  1  0
 21 45  1  0
 21 46  1  0
 22 23  1  0
 22 47  1  6
 23 24  1  0
 23 25  1  0
 24 48  1  0
 24 49  1  0
 24 50  1  0
 25 51  1  0
 25 52  1  0
 25 53  1  0
M  CHG  1   6   1
M  END
>  <i_m_ct_stereo_status>  (60) 
1

>  <s_m_source_file>  (60) 
/var/tmp/pbs.5076255.sched01/tmpbdos_d33/0hajo06zg.sdf

>  <i_m_source_file_index>  (60) 
30

>  <i_lp_mmshare_version>  (60) 
48012

>  <i_f3d_flags>  (60) 
0

>  <s_epik_input>  (60) 
W0NIM11bQ0BIXTFDKFtDSDNdKShbQ0gzXSlbQ0BASF0oW0NASF0xMilbQ0gyXVtDQEBIXShbQ0gyXTIpTihbQ0gyXTMpW0NIMl1bQ0gyXVtDQEBdMzRbQ0gyXUMoPU5PNCljNVtjSF1bY0hdbltjSF1uNQ==

>  <s_epik_cmdline>  (60) 
J2VwaWtfcHl0aG9uJywgJy1waHQnLCAnMi4wJywgJy1waCcsICc3LjAnLCAnLXRuJywgJzgnLCAnLW1hJywgJzIwMCcsICctaW1hZScsICc8aW5maWxlLm1hZT4nLCAnLW9tYWUnLCAnPG91dGZpbGUubWFlPic=

>  <r_epik_Ionization_Penalty>  (60) 
0.00530887

>  <r_epik_Ionization_Penalty_Charging>  (60) 
0.00530528

>  <r_epik_Ionization_Penalty_Neutral>  (60) 
3.59673e-06

>  <r_epik_State_Penalty>  (60) 
0.00387245

>  <r_epik_Charging_Adjusted_Penalty>  (60) 
0.00917773

>  <i_epik_Tot_Q>  (60) 
1

>  <i_epik_Tot_abs_Q>  (60) 
1

>  <s_epik_Chemistry_Notes>  (60) 
This compound contains an electron-poor aromatic ring that is susceptible to covalent hydrolysis at low pH, typically resulting in measured values for nitrogen ring protonation that are around two units higher than predicted values. This compound has an imine and may undergo hydrolysis.

>  <s_lp_Force_Field>  (60) 
OPLS3e

>  <r_lp_Energy>  (60) 
61.9564

>  <b_lp_Chiralities_Consistent>  (60) 
1

>  <s_lp_Variant>  (60) 
21:0-1

>  <s_i_glide_gridfile>  (60) 
pfpi4k_grid

>  <i_i_glide_lignum>  (60) 
30

>  <i_i_glide_rotatable_bonds>  (60) 
2

>  <r_i_docking_score>  (60) 
-3.44823

>  <r_i_glide_ligand_efficiency>  (60) 
-0.137929

>  <r_i_glide_ligand_efficiency_sa>  (60) 
-0.403307

>  <r_i_glide_ligand_efficiency_ln>  (60) 
-0.817334

>  <r_i_glide_gscore>  (60) 
-3.44823

>  <r_i_glide_lipo>  (60) 
-0.557258

>  <r_i_glide_hbond>  (60) 
0

>  <r_i_glide_metal>  (60) 
-0

>  <r_i_glide_rewards>  (60) 
-1.35175

>  <r_i_glide_evdw>  (60) 
-25.9124

>  <r_i_glide_ecoul>  (60) 
-3.79094

>  <r_i_glide_erotb>  (60) 
0.325043

>  <r_i_glide_esite>  (60) 
0

>  <r_i_glide_emodel>  (60) 
-33.9876

>  <r_i_glide_energy>  (60) 
-29.7033

>  <r_i_glide_einternal>  (60) 
4.86914

>  <r_i_glide_intrahb_reward>  (60) 
-0

>  <i_i_glide_confnum>  (60) 
5

>  <i_i_glide_posenum>  (60) 
2

>  <r_i_glide_eff_state_penalty>  (60) 
0

>  <ligand_id>  (60) 
21

>  <original_smiles>  (60) 
CC1C2CC(N3CCC4(CC(c5ccncn5)=NO4)C3)CC2C1(C)C

>  <smiles>  (60) 
[H]c1nc([H])c([H])c(C2=NOC3(C2([H])[H])C([H])([H])C([H])([H])[N+]([H])(C2([H])C([H])([H])C4([H])C([H])(C([H])([H])[H])C(C([H])([H])[H])(C([H])([H])[H])C4([H])C2([H])[H])C3([H])[H])n1

$$$$
21:0:2
     RDKit          3D

 54 58  0  0  1  0  0  0  0  0999 V2000
   -1.3324   -8.5217    4.3317 C   0  0  0  0  0  0  0  0  0  0  0  0
   -0.3271   -7.4080    4.5791 C   0  0  2  0  0  0  0  0  0  0  0  0
    0.7695   -7.2132    3.5395 C   0  0  2  0  0  0  0  0  0  0  0  0
    1.0851   -7.8038    2.1863 C   0  0  0  0  0  0  0  0  0  0  0  0
    2.6472   -7.9656    2.3301 C   0  0  1  0  0  0  0  0  0  0  0  0
    3.4326   -7.0109    1.5099 N   0  0  2  0  0  0  0  0  0  0  0  0
    4.8938   -7.0822    1.7080 C   0  0  0  0  0  0  0  0  0  0  0  0
    5.4341   -5.8214    1.0365 C   0  0  0  0  0  0  0  0  0  0  0  0
    4.2317   -4.8575    0.9521 C   0  0  2  0  0  0  0  0  0  0  0  0
    3.8595   -4.4905   -0.4705 C   0  0  0  0  0  0  0  0  0  0  0  0
    4.2048   -3.0491   -0.5396 C   0  0  0  0  0  0  0  0  0  0  0  0
    4.0610   -2.2633   -1.7821 C   0  0  0  0  0  0  0  0  0  0  0  0
    3.5464   -2.8812   -2.9380 C   0  0  0  0  0  0  0  0  0  0  0  0
    3.4131   -2.0585   -4.0599 C   0  0  0  0  0  0  0  0  0  0  0  0
    3.7728   -0.7675   -4.0515 N   0  0  0  0  0  0  0  0  0  0  0  0
    4.2149   -0.2836   -2.8866 C   0  0  0  0  0  0  0  0  0  0  0  0
    4.4164   -0.9632   -1.7656 N   0  0  0  0  0  0  0  0  0  0  0  0
    4.6101   -2.6049    0.5839 N   0  0  0  0  0  0  0  0  0  0  0  0
    4.5438   -3.6185    1.5887 O   0  0  0  0  0  0  0  0  0  0  0  0
    3.0869   -5.5796    1.6584 C   0  0  0  0  0  0  0  0  0  0  0  0
    2.9782   -7.8545    3.8628 C   0  0  0  0  0  0  0  0  0  0  0  0
    1.6171   -8.0942    4.4263 C   0  0  1  0  0  0  0  0  0  0  0  0
    0.8422   -7.5532    5.6310 C   0  0  0  0  0  0  0  0  0  0  0  0
    1.3964   -6.2713    6.2789 C   0  0  0  0  0  0  0  0  0  0  0  0
    0.5931   -8.5687    6.7505 C   0  0  0  0  0  0  0  0  0  0  0  0
   -0.8393   -9.4712    4.1230 H   0  0  0  0  0  0  0  0  0  0  0  0
   -1.9688   -8.3012    3.4740 H   0  0  0  0  0  0  0  0  0  0  0  0
   -1.9729   -8.6567    5.2004 H   0  0  0  0  0  0  0  0  0  0  0  0
   -0.8451   -6.4623    4.7508 H   0  0  0  0  0  0  0  0  0  0  0  0
    1.0629   -6.1574    3.5646 H   0  0  0  0  0  0  0  0  0  0  0  0
    0.5942   -8.7790    2.0616 H   0  0  0  0  0  0  0  0  0  0  0  0
    0.7580   -7.1845    1.3510 H   0  0  0  0  0  0  0  0  0  0  0  0
    2.8914   -8.9708    1.9868 H   0  0  0  0  0  0  0  0  0  0  0  0
    5.1323   -7.0194    2.7737 H   0  0  0  0  0  0  0  0  0  0  0  0
    5.3188   -8.0156    1.3275 H   0  0  0  0  0  0  0  0  0  0  0  0
    6.2614   -5.4189    1.6260 H   0  0  0  0  0  0  0  0  0  0  0  0
    5.8419   -6.0914    0.0616 H   0  0  0  0  0  0  0  0  0  0  0  0
    4.4335   -5.0436   -1.2106 H   0  0  0  0  0  0  0  0  0  0  0  0
    2.7964   -4.6128   -0.6772 H   0  0  0  0  0  0  0  0  0  0  0  0
    3.2570   -3.9180   -2.9866 H   0  0  0  0  0  0  0  0  0  0  0  0
    3.0498   -2.4721   -4.9839 H   0  0  0  0  0  0  0  0  0  0  0  0
    4.4837    0.7573   -2.8899 H   0  0  0  0  0  0  0  0  0  0  0  0
    2.0993   -5.3364    1.2555 H   0  0  0  0  0  0  0  0  0  0  0  0
    3.0692   -5.2871    2.7135 H   0  0  0  0  0  0  0  0  0  0  0  0
    3.7220   -8.5840    4.1861 H   0  0  0  0  0  0  0  0  0  0  0  0
    3.3296   -6.8619    4.1589 H   0  0  0  0  0  0  0  0  0  0  0  0
    1.3704   -9.1591    4.3129 H   0  0  0  0  0  0  0  0  0  0  0  0
    2.3358   -6.4738    6.7943 H   0  0  0  0  0  0  0  0  0  0  0  0
    0.7011   -5.8555    7.0098 H   0  0  0  0  0  0  0  0  0  0  0  0
    1.6083   -5.4839    5.5537 H   0  0  0  0  0  0  0  0  0  0  0  0
    1.5013   -8.7729    7.3198 H   0  0  0  0  0  0  0  0  0  0  0  0
    0.2562   -9.5263    6.3466 H   0  0  0  0  0  0  0  0  0  0  0  0
   -0.1779   -8.2235    7.4397 H   0  0  0  0  0  0  0  0  0  0  0  0
    3.2520   -7.2460    0.5421 H   0  0  0  0  0  0  0  0  0  0  0  0
  1  2  1  0
  1 26  1  0
  1 27  1  0
  1 28  1  0
  2 23  1  0
  2  3  1  0
  2 29  1  1
  3 22  1  0
  3  4  1  0
  3 30  1  6
  4  5  1  0
  4 31  1  0
  4 32  1  0
  5  6  1  0
  5 21  1  0
  5 33  1  6
  6 20  1  0
  6  7  1  0
  6 54  1  6
  7  8  1  0
  7 34  1  0
  7 35  1  0
  8  9  1  0
  8 36  1  0
  8 37  1  0
  9 19  1  1
  9 10  1  0
  9 20  1  0
 10 11  1  0
 10 38  1  0
 10 39  1  0
 11 12  1  0
 11 18  2  0
 12 17  1  0
 12 13  2  0
 13 14  1  0
 13 40  1  0
 14 15  2  0
 14 41  1  0
 15 16  1  0
 16 17  2  0
 16 42  1  0
 18 19  1  0
 20 43  1  0
 20 44  1  0
 21 22  1  0
 21 45  1  0
 21 46  1  0
 22 23  1  0
 22 47  1  6
 23 24  1  0
 23 25  1  0
 24 48  1  0
 24 49  1  0
 24 50  1  0
 25 51  1  0
 25 52  1  0
 25 53  1  0
M  CHG  1   6   1
M  END
>  <i_m_ct_stereo_status>  (61) 
1

>  <s_m_source_file>  (61) 
/var/tmp/pbs.5076255.sched01/tmpbdos_d33/0hajo06zg.sdf

>  <i_m_source_file_index>  (61) 
30

>  <i_lp_mmshare_version>  (61) 
48012

>  <i_f3d_flags>  (61) 
0

>  <s_epik_input>  (61) 
W0NIM11bQ0BIXTFDKFtDSDNdKShbQ0gzXSlbQ0BASF0oW0NASF0xMilbQ0gyXVtDQEBIXShbQ0gyXTIpTihbQ0gyXTMpW0NIMl1bQ0gyXVtDQEBdMzRbQ0gyXUMoPU5PNCljNVtjSF1bY0hdbltjSF1uNQ==

>  <s_epik_cmdline>  (61) 
J2VwaWtfcHl0aG9uJywgJy1waHQnLCAnMi4wJywgJy1waCcsICc3LjAnLCAnLXRuJywgJzgnLCAnLW1hJywgJzIwMCcsICctaW1hZScsICc8aW5maWxlLm1hZT4nLCAnLW9tYWUnLCAnPG91dGZpbGUubWFlPic=

>  <r_epik_Ionization_Penalty>  (61) 
0.00530887

>  <r_epik_Ionization_Penalty_Charging>  (61) 
0.00530528

>  <r_epik_Ionization_Penalty_Neutral>  (61) 
3.59673e-06

>  <r_epik_State_Penalty>  (61) 
0.00387245

>  <r_epik_Charging_Adjusted_Penalty>  (61) 
0.00917773

>  <i_epik_Tot_Q>  (61) 
1

>  <i_epik_Tot_abs_Q>  (61) 
1

>  <s_epik_Chemistry_Notes>  (61) 
This compound contains an electron-poor aromatic ring that is susceptible to covalent hydrolysis at low pH, typically resulting in measured values for nitrogen ring protonation that are around two units higher than predicted values. This compound has an imine and may undergo hydrolysis.

>  <s_lp_Force_Field>  (61) 
OPLS3e

>  <r_lp_Energy>  (61) 
61.9564

>  <b_lp_Chiralities_Consistent>  (61) 
1

>  <s_lp_Variant>  (61) 
21:0-1

>  <s_i_glide_gridfile>  (61) 
pfpi4k_grid

>  <i_i_glide_lignum>  (61) 
30

>  <i_i_glide_rotatable_bonds>  (61) 
2

>  <r_i_docking_score>  (61) 
-2.98669

>  <r_i_glide_ligand_efficiency>  (61) 
-0.119468

>  <r_i_glide_ligand_efficiency_sa>  (61) 
-0.349326

>  <r_i_glide_ligand_efficiency_ln>  (61) 
-0.707935

>  <r_i_glide_gscore>  (61) 
-2.98669

>  <r_i_glide_lipo>  (61) 
-0.214327

>  <r_i_glide_hbond>  (61) 
0

>  <r_i_glide_metal>  (61) 
-0

>  <r_i_glide_rewards>  (61) 
-1.3471

>  <r_i_glide_evdw>  (61) 
-24.5735

>  <r_i_glide_ecoul>  (61) 
-3.47758

>  <r_i_glide_erotb>  (61) 
0.325043

>  <r_i_glide_esite>  (61) 
0

>  <r_i_glide_emodel>  (61) 
-31.8616

>  <r_i_glide_energy>  (61) 
-28.0511

>  <r_i_glide_einternal>  (61) 
3.8161

>  <r_i_glide_intrahb_reward>  (61) 
-0

>  <i_i_glide_confnum>  (61) 
5

>  <i_i_glide_posenum>  (61) 
20

>  <r_i_glide_eff_state_penalty>  (61) 
0

>  <ligand_id>  (61) 
21

>  <original_smiles>  (61) 
CC1C2CC(N3CCC4(CC(c5ccncn5)=NO4)C3)CC2C1(C)C

>  <smiles>  (61) 
[H]c1nc([H])c([H])c(C2=NOC3(C2([H])[H])C([H])([H])C([H])([H])[N+]([H])(C2([H])C([H])([H])C4([H])C([H])(C([H])([H])[H])C(C([H])([H])[H])(C([H])([H])[H])C4([H])C2([H])[H])C3([H])[H])n1

$$$$
24:0:0
     RDKit          3D

 59 64  0  0  1  0  0  0  0  0999 V2000
    2.2208   -4.6309    5.8500 C   0  0  0  0  0  0  0  0  0  0  0  0
    3.4964   -5.4423    5.5477 C   0  0  2  0  0  0  0  0  0  0  0  0
    4.7866   -4.6637    5.8855 C   0  0  0  0  0  0  0  0  0  0  0  0
    6.0426   -5.0759    5.1031 C   0  0  0  0  0  0  0  0  0  0  0  0
    7.0791   -5.2944    5.7164 O   0  0  0  0  0  0  0  0  0  0  0  0
    6.0467   -5.0924    3.5524 C   0  0  0  0  0  0  0  0  0  0  0  0
    6.9272   -5.7423    2.9766 O   0  0  0  0  0  0  0  0  0  0  0  0
    4.8971   -4.4083    2.7396 C   0  0  2  0  0  0  0  0  0  0  0  0
    4.6034   -3.0067    3.3478 C   0  0  0  0  0  0  0  0  0  0  0  0
    3.6860   -5.4584    2.8204 C   0  0  2  0  0  0  0  0  0  0  0  0
    3.4769   -6.2033    4.1945 C   0  0  0  0  0  0  0  0  0  0  0  0
    4.0771   -6.6036    2.0386 O   0  0  0  0  0  0  0  0  0  0  0  0
    4.4532   -6.5925    0.7322 C   0  0  0  0  0  0  0  0  0  0  0  0
    4.5113   -7.6249    0.0757 O   0  0  0  0  0  0  0  0  0  0  0  0
    4.9643   -5.2785    0.2555 C   0  0  1  0  0  0  0  0  0  0  0  0
    4.2663   -4.3139   -0.7686 C   0  0  2  0  0  0  0  0  0  0  0  0
    5.1178   -4.2811   -2.0401 C   0  0  0  0  0  0  0  0  0  0  0  0
    4.5314   -3.2283    0.2625 C   0  0  2  0  0  0  0  0  0  0  0  0
    4.8602   -1.9032   -0.4142 C   0  0  0  0  0  0  0  0  0  0  0  0
    3.7051   -1.5658   -1.4128 C   0  0  0  0  0  0  0  0  0  0  0  0
    2.8320   -2.7299   -2.0664 C   0  0  1  0  0  0  0  0  0  0  0  0
    2.8307   -2.8782   -3.6000 C   0  0  0  0  0  0  0  0  0  0  0  0
    2.8067   -4.0444   -1.2385 C   0  0  1  0  0  0  0  0  0  0  0  0
    1.8884   -3.7050   -0.2119 O   0  0  0  0  0  0  0  0  0  0  0  0
    1.5489   -4.8735   -0.8540 C   0  0  2  0  0  0  0  0  0  0  0  0
    1.3211   -5.9374    0.1476 C   0  0  0  0  0  0  0  0  0  0  0  0
    1.5513   -6.0251    1.4863 C   0  0  0  0  0  0  0  0  0  0  0  0
    2.2947   -5.0226    2.2892 C   0  0  0  0  0  0  0  0  0  0  0  0
    1.8093   -3.9389    2.6266 O   0  0  0  0  0  0  0  0  0  0  0  0
    5.3338   -4.1484    1.2277 C   0  0  1  0  0  0  0  0  0  0  0  0
    6.6851   -3.7416    1.1846 O   0  0  0  0  0  0  0  0  0  0  0  0
    2.0831   -3.7778    5.1881 H   0  0  0  0  0  0  0  0  0  0  0  0
    2.2475   -4.2404    6.8689 H   0  0  0  0  0  0  0  0  0  0  0  0
    1.3306   -5.2569    5.7690 H   0  0  0  0  0  0  0  0  0  0  0  0
    3.4686   -6.2368    6.2969 H   0  0  0  0  0  0  0  0  0  0  0  0
    4.6429   -3.5858    5.8121 H   0  0  0  0  0  0  0  0  0  0  0  0
    4.9997   -4.8248    6.9443 H   0  0  0  0  0  0  0  0  0  0  0  0
    4.3676   -2.2378    2.6172 H   0  0  0  0  0  0  0  0  0  0  0  0
    5.4515   -2.6061    3.9010 H   0  0  0  0  0  0  0  0  0  0  0  0
    3.7483   -3.0218    4.0092 H   0  0  0  0  0  0  0  0  0  0  0  0
    4.2016   -7.0212    4.2899 H   0  0  0  0  0  0  0  0  0  0  0  0
    2.5302   -6.7377    4.1560 H   0  0  0  0  0  0  0  0  0  0  0  0
    5.9147   -5.5562   -0.1852 H   0  0  0  0  0  0  0  0  0  0  0  0
    5.1612   -3.3333   -2.5557 H   0  0  0  0  0  0  0  0  0  0  0  0
    4.8671   -5.0505   -2.7796 H   0  0  0  0  0  0  0  0  0  0  0  0
    6.1392   -4.2998   -1.7184 H   0  0  0  0  0  0  0  0  0  0  0  0
    3.6591   -3.0706    0.8682 H   0  0  0  0  0  0  0  0  0  0  0  0
    4.9908   -1.1156    0.3190 H   0  0  0  0  0  0  0  0  0  0  0  0
    5.8033   -1.9651   -0.9465 H   0  0  0  0  0  0  0  0  0  0  0  0
    3.0284   -0.9304   -0.8490 H   0  0  0  0  0  0  0  0  0  0  0  0
    4.0937   -0.9286   -2.1940 H   0  0  0  0  0  0  0  0  0  0  0  0
    1.8122   -2.3741   -2.0112 H   0  0  0  0  0  0  0  0  0  0  0  0
    3.7541   -3.2076   -4.0719 H   0  0  0  0  0  0  0  0  0  0  0  0
    2.5559   -1.9235   -4.0430 H   0  0  0  0  0  0  0  0  0  0  0  0
    2.0505   -3.5818   -3.8829 H   0  0  0  0  0  0  0  0  0  0  0  0
    0.6885   -4.7867   -1.4996 H   0  0  0  0  0  0  0  0  0  0  0  0
    0.8295   -6.8043   -0.2368 H   0  0  0  0  0  0  0  0  0  0  0  0
    1.2628   -6.9467    1.9830 H   0  0  0  0  0  0  0  0  0  0  0  0
    7.1849   -4.4755    1.5146 H   0  0  0  0  0  0  0  0  0  0  0  0
  1  2  1  0
  1 32  1  0
  1 33  1  0
  1 34  1  0
  2 11  1  0
  2  3  1  0
  2 35  1  1
  3  4  1  0
  3 36  1  0
  3 37  1  0
  4  5  2  0
  4  6  1  0
  6  7  2  0
  6  8  1  0
  8 30  1  0
  8  9  1  1
  8 10  1  0
  9 38  1  0
  9 39  1  0
  9 40  1  0
 10 28  1  0
 10 11  1  1
 10 12  1  0
 11 41  1  0
 11 42  1  0
 12 13  1  0
 13 14  2  0
 13 15  1  0
 15 30  1  0
 15 16  1  0
 15 43  1  6
 16 23  1  0
 16 17  1  6
 16 18  1  0
 17 44  1  0
 17 45  1  0
 17 46  1  0
 18 19  1  0
 18 30  1  0
 18 47  1  1
 19 20  1  0
 19 48  1  0
 19 49  1  0
 20 21  1  0
 20 50  1  0
 20 51  1  0
 21 22  1  0
 21 23  1  0
 21 52  1  6
 22 53  1  0
 22 54  1  0
 22 55  1  0
 23 25  1  0
 23 24  1  6
 24 25  1  0
 25 26  1  0
 25 56  1  6
 26 27  2  3
 26 57  1  0
 27 28  1  0
 27 58  1  0
 28 29  2  0
 30 31  1  1
 31 59  1  0
M  END
>  <i_m_ct_stereo_status>  (62) 
1

>  <s_m_source_file>  (62) 
/var/tmp/pbs.5076255.sched01/tmpbdos_d33/0hajo06zg.sdf

>  <i_m_source_file_index>  (62) 
33

>  <i_lp_mmshare_version>  (62) 
48012

>  <i_f3d_flags>  (62) 
0

>  <s_epik_input>  (62) 
W0NIM11bQ0BASF0oW0NIMl0xKVtDSDJdQyg9TylDKD1PKVtDQEBdKFtDQF0xMjMpKFtDSDNdKVtDQEBdNChbT0hdKVtDQEBIXShDKE8yKT1PKVtDQEBdNShbQ0gzXSlbQ0BAXTYoW0NASF0oW0NIM10pW0NIMl1bQ0gyXVtDQEhdNDUpW0NASF0oTzYpL1tDSF09W0NIXVxDMz1P

>  <s_epik_cmdline>  (62) 
J2VwaWtfcHl0aG9uJywgJy1waHQnLCAnMi4wJywgJy1waCcsICc3LjAnLCAnLXRuJywgJzgnLCAnLW1hJywgJzIwMCcsICctaW1hZScsICc8aW5maWxlLm1hZT4nLCAnLW9tYWUnLCAnPG91dGZpbGUubWFlPic=

>  <r_lp_tautomer_probability>  (62) 
1

>  <r_epik_Ionization_Penalty>  (62) 
5.25636e-06

>  <r_epik_Ionization_Penalty_Charging>  (62) 
0

>  <r_epik_Ionization_Penalty_Neutral>  (62) 
5.25636e-06

>  <r_epik_State_Penalty>  (62) 
-0

>  <r_epik_Charging_Adjusted_Penalty>  (62) 
0

>  <i_epik_Tot_Q>  (62) 
0

>  <i_epik_Tot_abs_Q>  (62) 
0

>  <s_epik_Chemistry_Notes>  (62) 
This compound has an ester and may undergo hydrolysis at high or low pH.

>  <s_lp_Force_Field>  (62) 
OPLS3e

>  <r_lp_Energy>  (62) 
136.33

>  <b_lp_Chiralities_Consistent>  (62) 
1

>  <s_lp_Variant>  (62) 
24:0-1

>  <s_i_glide_gridfile>  (62) 
pfpi4k_grid

>  <i_i_glide_lignum>  (62) 
33

>  <i_i_glide_rotatable_bonds>  (62) 
1

>  <r_i_docking_score>  (62) 
-2.00593

>  <r_i_glide_ligand_efficiency>  (62) 
-0.0647076

>  <r_i_glide_ligand_efficiency_sa>  (62) 
-0.203271

>  <r_i_glide_ligand_efficiency_ln>  (62) 
-0.4524

>  <r_i_glide_gscore>  (62) 
-2.00593

>  <r_i_glide_lipo>  (62) 
-0.4209

>  <r_i_glide_hbond>  (62) 
-0.00864801

>  <r_i_glide_metal>  (62) 
-0

>  <r_i_glide_rewards>  (62) 
-1.16473

>  <r_i_glide_evdw>  (62) 
-8.99754

>  <r_i_glide_ecoul>  (62) 
0.346658

>  <r_i_glide_erotb>  (62) 
0

>  <r_i_glide_esite>  (62) 
-0.0137822

>  <r_i_glide_emodel>  (62) 
-14.005

>  <r_i_glide_energy>  (62) 
-8.65088

>  <r_i_glide_einternal>  (62) 
0.569282

>  <r_i_glide_intrahb_reward>  (62) 
-0.5

>  <i_i_glide_confnum>  (62) 
1

>  <i_i_glide_posenum>  (62) 
5

>  <r_i_glide_eff_state_penalty>  (62) 
0

>  <ligand_id>  (62) 
24

>  <original_smiles>  (62) 
CC1CC(=O)C(=O)C2(C)C3(C1)OC(=O)C1C4(C)C(CCC(C)C45OC5C=CC3=O)C12O

>  <smiles>  (62) 
[H]OC12C3([H])C(=O)OC4(C(=O)C([H])=C([H])C5([H])OC56C([H])(C([H])([H])[H])C([H])([H])C([H])([H])C1([H])C36C([H])([H])[H])C([H])([H])C([H])(C([H])([H])[H])C([H])([H])C(=O)C(=O)C42C([H])([H])[H]

$$$$
24:0:1
     RDKit          3D

 59 64  0  0  1  0  0  0  0  0999 V2000
   -0.3198   -1.0895    5.7718 C   0  0  0  0  0  0  0  0  0  0  0  0
    1.0627   -1.1756    6.4518 C   0  0  2  0  0  0  0  0  0  0  0  0
    1.7374    0.2117    6.6025 C   0  0  0  0  0  0  0  0  0  0  0  0
    3.2741    0.2294    6.6743 C   0  0  0  0  0  0  0  0  0  0  0  0
    3.8211    0.8457    7.5889 O   0  0  0  0  0  0  0  0  0  0  0  0
    4.1410   -0.4725    5.5906 C   0  0  0  0  0  0  0  0  0  0  0  0
    5.3017   -0.7627    5.8976 O   0  0  0  0  0  0  0  0  0  0  0  0
    3.5089   -0.9386    4.2248 C   0  0  2  0  0  0  0  0  0  0  0  0
    2.6029    0.2218    3.6910 C   0  0  0  0  0  0  0  0  0  0  0  0
    2.7355   -2.3098    4.5850 C   0  0  2  0  0  0  0  0  0  0  0  0
    1.9546   -2.3495    5.9584 C   0  0  0  0  0  0  0  0  0  0  0  0
    3.7337   -3.3064    4.8717 O   0  0  0  0  0  0  0  0  0  0  0  0
    4.7153   -3.6957    4.0235 C   0  0  0  0  0  0  0  0  0  0  0  0
    5.2659   -4.7821    4.1635 O   0  0  0  0  0  0  0  0  0  0  0  0
    5.1106   -2.6577    3.0229 C   0  0  1  0  0  0  0  0  0  0  0  0
    4.8815   -2.7461    1.4769 C   0  0  2  0  0  0  0  0  0  0  0  0
    6.2976   -2.9057    0.8506 C   0  0  0  0  0  0  0  0  0  0  0  0
    4.2780   -1.3502    1.6073 C   0  0  2  0  0  0  0  0  0  0  0  0
    4.6166   -0.4967    0.3966 C   0  0  0  0  0  0  0  0  0  0  0  0
    4.1351   -1.2430   -0.9009 C   0  0  0  0  0  0  0  0  0  0  0  0
    3.9961   -2.8239   -0.8906 C   0  0  1  0  0  0  0  0  0  0  0  0
    4.8850   -3.5969   -1.8926 C   0  0  0  0  0  0  0  0  0  0  0  0
    3.8642   -3.4563    0.5267 C   0  0  0  0  0  0  0  0  0  0  0  0
    2.4781   -3.2734    0.7905 O   0  0  0  0  0  0  0  0  0  0  0  0
    2.8847   -4.6014    0.9240 C   0  0  2  0  0  0  0  0  0  0  0  0
    2.3716   -5.0737    2.2491 C   0  0  0  0  0  0  0  0  0  0  0  0
    1.8403   -4.4052    3.3054 C   0  0  0  0  0  0  0  0  0  0  0  0
    1.8027   -2.9241    3.4962 C   0  0  0  0  0  0  0  0  0  0  0  0
    1.0141   -2.1999    2.8936 O   0  0  0  0  0  0  0  0  0  0  0  0
    4.6300   -1.1999    3.1131 C   0  0  1  0  0  0  0  0  0  0  0  0
    5.6600   -0.2367    3.2247 O   0  0  0  0  0  0  0  0  0  0  0  0
   -0.2612   -0.8200    4.7192 H   0  0  0  0  0  0  0  0  0  0  0  0
   -0.9442   -0.3374    6.2554 H   0  0  0  0  0  0  0  0  0  0  0  0
   -0.8517   -2.0398    5.8328 H   0  0  0  0  0  0  0  0  0  0  0  0
    0.8152   -1.4560    7.4783 H   0  0  0  0  0  0  0  0  0  0  0  0
    1.4031    0.9036    5.8324 H   0  0  0  0  0  0  0  0  0  0  0  0
    1.3705    0.6585    7.5277 H   0  0  0  0  0  0  0  0  0  0  0  0
    2.6244    0.3613    2.6136 H   0  0  0  0  0  0  0  0  0  0  0  0
    2.8844    1.1979    4.0899 H   0  0  0  0  0  0  0  0  0  0  0  0
    1.5575    0.0624    3.9231 H   0  0  0  0  0  0  0  0  0  0  0  0
    2.6609   -2.5430    6.7702 H   0  0  0  0  0  0  0  0  0  0  0  0
    1.3291   -3.2420    5.9820 H   0  0  0  0  0  0  0  0  0  0  0  0
    6.1785   -2.5940    3.2038 H   0  0  0  0  0  0  0  0  0  0  0  0
    6.4305   -2.3590   -0.0803 H   0  0  0  0  0  0  0  0  0  0  0  0
    6.5559   -3.9541    0.6802 H   0  0  0  0  0  0  0  0  0  0  0  0
    7.0834   -2.4734    1.4694 H   0  0  0  0  0  0  0  0  0  0  0  0
    3.1994   -1.3809    1.6402 H   0  0  0  0  0  0  0  0  0  0  0  0
    4.1526    0.4861    0.4719 H   0  0  0  0  0  0  0  0  0  0  0  0
    5.6882   -0.3013    0.3455 H   0  0  0  0  0  0  0  0  0  0  0  0
    3.1380   -0.8568   -1.1156 H   0  0  0  0  0  0  0  0  0  0  0  0
    4.7340   -0.9234   -1.7522 H   0  0  0  0  0  0  0  0  0  0  0  0
    3.0194   -2.9781   -1.3535 H   0  0  0  0  0  0  0  0  0  0  0  0
    5.9522   -3.5493   -1.7032 H   0  0  0  0  0  0  0  0  0  0  0  0
    4.7290   -3.2282   -2.9079 H   0  0  0  0  0  0  0  0  0  0  0  0
    4.6153   -4.6528   -1.9013 H   0  0  0  0  0  0  0  0  0  0  0  0
    2.5538   -5.2441    0.1147 H   0  0  0  0  0  0  0  0  0  0  0  0
    2.3847   -6.1491    2.3401 H   0  0  0  0  0  0  0  0  0  0  0  0
    1.5304   -4.9939    4.1599 H   0  0  0  0  0  0  0  0  0  0  0  0
    6.3131   -0.4530    2.5741 H   0  0  0  0  0  0  0  0  0  0  0  0
  1  2  1  0
  1 32  1  0
  1 33  1  0
  1 34  1  0
  2 11  1  0
  2  3  1  0
  2 35  1  1
  3  4  1  0
  3 36  1  0
  3 37  1  0
  4  5  2  0
  4  6  1  0
  6  7  2  0
  6  8  1  0
  8 30  1  0
  8  9  1  6
  8 10  1  0
  9 38  1  0
  9 39  1  0
  9 40  1  0
 10 28  1  0
 10 11  1  1
 10 12  1  0
 11 41  1  0
 11 42  1  0
 12 13  1  0
 13 14  2  0
 13 15  1  0
 15 30  1  0
 15 16  1  0
 15 43  1  6
 16 23  1  0
 16 17  1  6
 16 18  1  0
 17 44  1  0
 17 45  1  0
 17 46  1  0
 18 19  1  0
 18 30  1  0
 18 47  1  1
 19 20  1  0
 19 48  1  0
 19 49  1  0
 20 21  1  0
 20 50  1  0
 20 51  1  0
 21 22  1  0
 21 23  1  0
 21 52  1  6
 22 53  1  0
 22 54  1  0
 22 55  1  0
 23 25  1  0
 23 24  1  0
 24 25  1  0
 25 26  1  0
 25 56  1  6
 26 27  2  3
 26 57  1  0
 27 28  1  0
 27 58  1  0
 28 29  2  0
 30 31  1  6
 31 59  1  0
M  END
>  <i_m_ct_stereo_status>  (63) 
1

>  <s_m_source_file>  (63) 
/var/tmp/pbs.5076255.sched01/tmpbdos_d33/0hajo06zg.sdf

>  <i_m_source_file_index>  (63) 
33

>  <i_lp_mmshare_version>  (63) 
48012

>  <i_f3d_flags>  (63) 
0

>  <s_epik_input>  (63) 
W0NIM11bQ0BASF0oW0NIMl0xKVtDSDJdQyg9TylDKD1PKVtDQEBdKFtDQF0xMjMpKFtDSDNdKVtDQEBdNChbT0hdKVtDQEBIXShDKE8yKT1PKVtDQEBdNShbQ0gzXSlbQ0BAXTYoW0NASF0oW0NIM10pW0NIMl1bQ0gyXVtDQEhdNDUpW0NASF0oTzYpL1tDSF09W0NIXVxDMz1P

>  <s_epik_cmdline>  (63) 
J2VwaWtfcHl0aG9uJywgJy1waHQnLCAnMi4wJywgJy1waCcsICc3LjAnLCAnLXRuJywgJzgnLCAnLW1hJywgJzIwMCcsICctaW1hZScsICc8aW5maWxlLm1hZT4nLCAnLW9tYWUnLCAnPG91dGZpbGUubWFlPic=

>  <r_lp_tautomer_probability>  (63) 
1

>  <r_epik_Ionization_Penalty>  (63) 
5.25636e-06

>  <r_epik_Ionization_Penalty_Charging>  (63) 
0

>  <r_epik_Ionization_Penalty_Neutral>  (63) 
5.25636e-06

>  <r_epik_State_Penalty>  (63) 
-0

>  <r_epik_Charging_Adjusted_Penalty>  (63) 
0

>  <i_epik_Tot_Q>  (63) 
0

>  <i_epik_Tot_abs_Q>  (63) 
0

>  <s_epik_Chemistry_Notes>  (63) 
This compound has an ester and may undergo hydrolysis at high or low pH.

>  <s_lp_Force_Field>  (63) 
OPLS3e

>  <r_lp_Energy>  (63) 
136.33

>  <b_lp_Chiralities_Consistent>  (63) 
1

>  <s_lp_Variant>  (63) 
24:0-1

>  <s_i_glide_gridfile>  (63) 
pfpi4k_grid

>  <i_i_glide_lignum>  (63) 
33

>  <i_i_glide_rotatable_bonds>  (63) 
1

>  <r_i_docking_score>  (63) 
-1.67761

>  <r_i_glide_ligand_efficiency>  (63) 
-0.0541164

>  <r_i_glide_ligand_efficiency_sa>  (63) 
-0.17

>  <r_i_glide_ligand_efficiency_ln>  (63) 
-0.378352

>  <r_i_glide_gscore>  (63) 
-1.67761

>  <r_i_glide_lipo>  (63) 
-0.402359

>  <r_i_glide_hbond>  (63) 
0

>  <r_i_glide_metal>  (63) 
-0

>  <r_i_glide_rewards>  (63) 
-0.539814

>  <r_i_glide_evdw>  (63) 
-19.3411

>  <r_i_glide_ecoul>  (63) 
1.54412

>  <r_i_glide_erotb>  (63) 
0

>  <r_i_glide_esite>  (63) 
0

>  <r_i_glide_emodel>  (63) 
-19.6053

>  <r_i_glide_energy>  (63) 
-17.7969

>  <r_i_glide_einternal>  (63) 
0.00295157

>  <r_i_glide_intrahb_reward>  (63) 
-0

>  <i_i_glide_confnum>  (63) 
2

>  <i_i_glide_posenum>  (63) 
39

>  <r_i_glide_eff_state_penalty>  (63) 
0

>  <ligand_id>  (63) 
24

>  <original_smiles>  (63) 
CC1CC(=O)C(=O)C2(C)C3(C1)OC(=O)C1C4(C)C(CCC(C)C45OC5C=CC3=O)C12O

>  <smiles>  (63) 
[H]OC12C3([H])C(=O)OC4(C(=O)C([H])=C([H])C5([H])OC56C([H])(C([H])([H])[H])C([H])([H])C([H])([H])C1([H])C36C([H])([H])[H])C([H])([H])C([H])(C([H])([H])[H])C([H])([H])C(=O)C(=O)C42C([H])([H])[H]

$$$$
24:0:2
     RDKit          3D

 59 64  0  0  1  0  0  0  0  0999 V2000
   -0.3917   -1.5889    5.7977 C   0  0  0  0  0  0  0  0  0  0  0  0
    0.9977   -1.5814    6.4686 C   0  0  2  0  0  0  0  0  0  0  0  0
    1.5666   -0.1495    6.6375 C   0  0  0  0  0  0  0  0  0  0  0  0
    3.0968   -0.0176    6.7016 C   0  0  0  0  0  0  0  0  0  0  0  0
    3.6031    0.6296    7.6184 O   0  0  0  0  0  0  0  0  0  0  0  0
    4.0039   -0.6344    5.6004 C   0  0  0  0  0  0  0  0  0  0  0  0
    5.1883   -0.8283    5.8896 O   0  0  0  0  0  0  0  0  0  0  0  0
    3.4010   -1.1242    4.2314 C   0  0  2  0  0  0  0  0  0  0  0  0
    2.4045   -0.0273    3.7219 C   0  0  0  0  0  0  0  0  0  0  0  0
    2.7386   -2.5570    4.5770 C   0  0  2  0  0  0  0  0  0  0  0  0
    1.9727   -2.6773    5.9539 C   0  0  0  0  0  0  0  0  0  0  0  0
    3.8135   -3.4766    4.8400 O   0  0  0  0  0  0  0  0  0  0  0  0
    4.8100   -3.7782    3.9720 C   0  0  0  0  0  0  0  0  0  0  0  0
    5.4398   -4.8238    4.0847 O   0  0  0  0  0  0  0  0  0  0  0  0
    5.1133   -2.6980    2.9839 C   0  0  1  0  0  0  0  0  0  0  0  0
    4.8805   -2.7816    1.4400 C   0  0  2  0  0  0  0  0  0  0  0  0
    6.3002   -2.8218    0.8027 C   0  0  0  0  0  0  0  0  0  0  0  0
    4.1745   -1.4373    1.5995 C   0  0  2  0  0  0  0  0  0  0  0  0
    4.4434   -0.5423    0.3996 C   0  0  0  0  0  0  0  0  0  0  0  0
    4.0248   -1.3048   -0.9080 C   0  0  0  0  0  0  0  0  0  0  0  0
    3.9891   -2.8913   -0.9206 C   0  0  1  0  0  0  0  0  0  0  0  0
    4.9192   -3.5828   -1.9431 C   0  0  0  0  0  0  0  0  0  0  0  0
    3.9147   -3.5533    0.4867 C   0  0  0  0  0  0  0  0  0  0  0  0
    2.5201   -3.4798    0.7620 O   0  0  0  0  0  0  0  0  0  0  0  0
    3.0264   -4.7754    0.8730 C   0  0  2  0  0  0  0  0  0  0  0  0
    2.5607   -5.3018    2.1938 C   0  0  0  0  0  0  0  0  0  0  0  0
    1.9921   -4.6921    3.2653 C   0  0  0  0  0  0  0  0  0  0  0  0
    1.8489   -3.2197    3.4856 C   0  0  0  0  0  0  0  0  0  0  0  0
    1.0178   -2.5377    2.8958 O   0  0  0  0  0  0  0  0  0  0  0  0
    4.5299   -1.2830    3.1057 C   0  0  1  0  0  0  0  0  0  0  0  0
    5.4885   -0.2516    3.2267 O   0  0  0  0  0  0  0  0  0  0  0  0
   -0.3626   -1.3002    4.7491 H   0  0  0  0  0  0  0  0  0  0  0  0
   -1.0654   -0.8924    6.2973 H   0  0  0  0  0  0  0  0  0  0  0  0
   -0.8504   -2.5773    5.8492 H   0  0  0  0  0  0  0  0  0  0  0  0
    0.7806   -1.8952    7.4916 H   0  0  0  0  0  0  0  0  0  0  0  0
    1.1769    0.5274    5.8801 H   0  0  0  0  0  0  0  0  0  0  0  0
    1.1744    0.2554    7.5713 H   0  0  0  0  0  0  0  0  0  0  0  0
    2.4049    0.1264    2.6458 H   0  0  0  0  0  0  0  0  0  0  0  0
    2.6122    0.9626    4.1337 H   0  0  0  0  0  0  0  0  0  0  0  0
    1.3734   -0.2669    3.9570 H   0  0  0  0  0  0  0  0  0  0  0  0
    2.6985   -2.8300    6.7577 H   0  0  0  0  0  0  0  0  0  0  0  0
    1.4162   -3.6150    5.9652 H   0  0  0  0  0  0  0  0  0  0  0  0
    6.1725   -2.5454    3.1566 H   0  0  0  0  0  0  0  0  0  0  0  0
    6.3839   -2.2544   -0.1209 H   0  0  0  0  0  0  0  0  0  0  0  0
    6.6377   -3.8436    0.6144 H   0  0  0  0  0  0  0  0  0  0  0  0
    7.0535   -2.3354    1.4208 H   0  0  0  0  0  0  0  0  0  0  0  0
    3.1013   -1.5509    1.6352 H   0  0  0  0  0  0  0  0  0  0  0  0
    3.9015    0.3990    0.4842 H   0  0  0  0  0  0  0  0  0  0  0  0
    5.4967   -0.2643    0.3505 H   0  0  0  0  0  0  0  0  0  0  0  0
    3.0102   -0.9839   -1.1178 H   0  0  0  0  0  0  0  0  0  0  0  0
    4.5857   -0.9276   -1.7601 H   0  0  0  0  0  0  0  0  0  0  0  0
    3.0223   -3.1084   -1.3777 H   0  0  0  0  0  0  0  0  0  0  0  0
    5.9818   -3.4585   -1.7599 H   0  0  0  0  0  0  0  0  0  0  0  0
    4.7287   -3.2077   -2.9504 H   0  0  0  0  0  0  0  0  0  0  0  0
    4.7211   -4.6543   -1.9663 H   0  0  0  0  0  0  0  0  0  0  0  0
    2.7373   -5.4276    0.0572 H   0  0  0  0  0  0  0  0  0  0  0  0
    2.6533   -6.3759    2.2660 H   0  0  0  0  0  0  0  0  0  0  0  0
    1.7356   -5.3184    4.1110 H   0  0  0  0  0  0  0  0  0  0  0  0
    5.0066    0.5641    3.2522 H   0  0  0  0  0  0  0  0  0  0  0  0
  1  2  1  0
  1 32  1  0
  1 33  1  0
  1 34  1  0
  2 11  1  0
  2  3  1  0
  2 35  1  1
  3  4  1  0
  3 36  1  0
  3 37  1  0
  4  5  2  0
  4  6  1  0
  6  7  2  0
  6  8  1  0
  8 30  1  0
  8  9  1  6
  8 10  1  0
  9 38  1  0
  9 39  1  0
  9 40  1  0
 10 28  1  0
 10 11  1  1
 10 12  1  0
 11 41  1  0
 11 42  1  0
 12 13  1  0
 13 14  2  0
 13 15  1  0
 15 30  1  0
 15 16  1  0
 15 43  1  6
 16 23  1  0
 16 17  1  6
 16 18  1  0
 17 44  1  0
 17 45  1  0
 17 46  1  0
 18 19  1  0
 18 30  1  0
 18 47  1  1
 19 20  1  0
 19 48  1  0
 19 49  1  0
 20 21  1  0
 20 50  1  0
 20 51  1  0
 21 22  1  0
 21 23  1  0
 21 52  1  6
 22 53  1  0
 22 54  1  0
 22 55  1  0
 23 25  1  0
 23 24  1  0
 24 25  1  0
 25 26  1  0
 25 56  1  6
 26 27  2  3
 26 57  1  0
 27 28  1  0
 27 58  1  0
 28 29  2  0
 30 31  1  6
 31 59  1  0
M  END
>  <i_m_ct_stereo_status>  (64) 
1

>  <s_m_source_file>  (64) 
/var/tmp/pbs.5076255.sched01/tmpbdos_d33/0hajo06zg.sdf

>  <i_m_source_file_index>  (64) 
33

>  <i_lp_mmshare_version>  (64) 
48012

>  <i_f3d_flags>  (64) 
0

>  <s_epik_input>  (64) 
W0NIM11bQ0BASF0oW0NIMl0xKVtDSDJdQyg9TylDKD1PKVtDQEBdKFtDQF0xMjMpKFtDSDNdKVtDQEBdNChbT0hdKVtDQEBIXShDKE8yKT1PKVtDQEBdNShbQ0gzXSlbQ0BAXTYoW0NASF0oW0NIM10pW0NIMl1bQ0gyXVtDQEhdNDUpW0NASF0oTzYpL1tDSF09W0NIXVxDMz1P

>  <s_epik_cmdline>  (64) 
J2VwaWtfcHl0aG9uJywgJy1waHQnLCAnMi4wJywgJy1waCcsICc3LjAnLCAnLXRuJywgJzgnLCAnLW1hJywgJzIwMCcsICctaW1hZScsICc8aW5maWxlLm1hZT4nLCAnLW9tYWUnLCAnPG91dGZpbGUubWFlPic=

>  <r_lp_tautomer_probability>  (64) 
1

>  <r_epik_Ionization_Penalty>  (64) 
5.25636e-06

>  <r_epik_Ionization_Penalty_Charging>  (64) 
0

>  <r_epik_Ionization_Penalty_Neutral>  (64) 
5.25636e-06

>  <r_epik_State_Penalty>  (64) 
-0

>  <r_epik_Charging_Adjusted_Penalty>  (64) 
0

>  <i_epik_Tot_Q>  (64) 
0

>  <i_epik_Tot_abs_Q>  (64) 
0

>  <s_epik_Chemistry_Notes>  (64) 
This compound has an ester and may undergo hydrolysis at high or low pH.

>  <s_lp_Force_Field>  (64) 
OPLS3e

>  <r_lp_Energy>  (64) 
136.33

>  <b_lp_Chiralities_Consistent>  (64) 
1

>  <s_lp_Variant>  (64) 
24:0-1

>  <s_i_glide_gridfile>  (64) 
pfpi4k_grid

>  <i_i_glide_lignum>  (64) 
33

>  <i_i_glide_rotatable_bonds>  (64) 
1

>  <r_i_docking_score>  (64) 
-1.52558

>  <r_i_glide_ligand_efficiency>  (64) 
-0.0492121

>  <r_i_glide_ligand_efficiency_sa>  (64) 
-0.154594

>  <r_i_glide_ligand_efficiency_ln>  (64) 
-0.344064

>  <r_i_glide_gscore>  (64) 
-1.52558

>  <r_i_glide_lipo>  (64) 
-0.382744

>  <r_i_glide_hbond>  (64) 
0

>  <r_i_glide_metal>  (64) 
-0

>  <r_i_glide_rewards>  (64) 
-0.536597

>  <r_i_glide_evdw>  (64) 
-19.0321

>  <r_i_glide_ecoul>  (64) 
2.30246

>  <r_i_glide_erotb>  (64) 
0

>  <r_i_glide_esite>  (64) 
0

>  <r_i_glide_emodel>  (64) 
-17.9576

>  <r_i_glide_energy>  (64) 
-16.7296

>  <r_i_glide_einternal>  (64) 
0.677169

>  <r_i_glide_intrahb_reward>  (64) 
-0

>  <i_i_glide_confnum>  (64) 
2

>  <i_i_glide_posenum>  (64) 
17

>  <r_i_glide_eff_state_penalty>  (64) 
0

>  <ligand_id>  (64) 
24

>  <original_smiles>  (64) 
CC1CC(=O)C(=O)C2(C)C3(C1)OC(=O)C1C4(C)C(CCC(C)C45OC5C=CC3=O)C12O

>  <smiles>  (64) 
[H]OC12C3([H])C(=O)OC4(C(=O)C([H])=C([H])C5([H])OC56C([H])(C([H])([H])[H])C([H])([H])C([H])([H])C1([H])C36C([H])([H])[H])C([H])([H])C([H])(C([H])([H])[H])C([H])([H])C(=O)C(=O)C42C([H])([H])[H]

$$$$
24:1:0
     RDKit          3D

 59 64  0  0  1  0  0  0  0  0999 V2000
    4.9417   -4.6277    6.3566 C   0  0  0  0  0  0  0  0  0  0  0  0
    5.3347   -3.8602    5.0814 C   0  0  2  0  0  0  0  0  0  0  0  0
    4.4914   -2.5850    4.8762 C   0  0  0  0  0  0  0  0  0  0  0  0
    3.0990   -2.7945    4.2966 C   0  0  0  0  0  0  0  0  0  0  0  0
    2.2193   -1.9550    4.4945 O   0  0  0  0  0  0  0  0  0  0  0  0
    2.7963   -4.0254    3.4338 C   0  0  0  0  0  0  0  0  0  0  0  0
    1.9109   -4.8007    3.8165 O   0  0  0  0  0  0  0  0  0  0  0  0
    3.5837   -4.2896    2.1035 C   0  0  2  0  0  0  0  0  0  0  0  0
    3.0907   -5.6761    1.5810 C   0  0  0  0  0  0  0  0  0  0  0  0
    5.1792   -4.3432    2.4130 C   0  0  2  0  0  0  0  0  0  0  0  0
    5.4727   -4.8368    3.8807 C   0  0  0  0  0  0  0  0  0  0  0  0
    5.8239   -3.0566    2.3789 O   0  0  0  0  0  0  0  0  0  0  0  0
    5.5534   -2.0283    1.5264 C   0  0  0  0  0  0  0  0  0  0  0  0
    6.2840   -1.0348    1.4496 O   0  0  0  0  0  0  0  0  0  0  0  0
    4.3084   -2.1593    0.7606 C   0  0  1  0  0  0  0  0  0  0  0  0
    4.1421   -2.2377   -0.7862 C   0  0  2  0  0  0  0  0  0  0  0  0
    3.5263   -0.8906   -1.1401 C   0  0  0  0  0  0  0  0  0  0  0  0
    3.2151   -3.4109   -0.5429 C   0  0  2  0  0  0  0  0  0  0  0  0
    2.1626   -3.4791   -1.6574 C   0  0  0  0  0  0  0  0  0  0  0  0
    2.7616   -3.2393   -3.1130 C   0  0  0  0  0  0  0  0  0  0  0  0
    4.1464   -2.5245   -3.2770 C   0  0  1  0  0  0  0  0  0  0  0  0
    4.0633   -1.2296   -4.1239 C   0  0  0  0  0  0  0  0  0  0  0  0
    5.0270   -2.5830   -1.9923 C   0  0  1  0  0  0  0  0  0  0  0  0
    5.3709   -3.9816   -2.1496 O   0  0  0  0  0  0  0  0  0  0  0  0
    6.4559   -3.2387   -1.6972 C   0  0  2  0  0  0  0  0  0  0  0  0
    6.8222   -3.8166   -0.3861 C   0  0  0  0  0  0  0  0  0  0  0  0
    6.1989   -4.9248    0.0791 C   0  0  0  0  0  0  0  0  0  0  0  0
    6.0253   -5.2796    1.4863 C   0  0  0  0  0  0  0  0  0  0  0  0
    6.4087   -6.3717    1.8865 O   0  0  0  0  0  0  0  0  0  0  0  0
    3.2278   -3.1870    1.0169 C   0  0  1  0  0  0  0  0  0  0  0  0
    2.0628   -2.4795    1.3888 O   0  0  0  0  0  0  0  0  0  0  0  0
    3.9390   -5.0504    6.2821 H   0  0  0  0  0  0  0  0  0  0  0  0
    4.9696   -3.9782    7.2323 H   0  0  0  0  0  0  0  0  0  0  0  0
    5.6348   -5.4494    6.5452 H   0  0  0  0  0  0  0  0  0  0  0  0
    6.3408   -3.4814    5.2755 H   0  0  0  0  0  0  0  0  0  0  0  0
    4.3573   -2.1159    5.8483 H   0  0  0  0  0  0  0  0  0  0  0  0
    5.0272   -1.8498    4.2830 H   0  0  0  0  0  0  0  0  0  0  0  0
    3.5633   -6.0175    0.6647 H   0  0  0  0  0  0  0  0  0  0  0  0
    2.0215   -5.6733    1.3885 H   0  0  0  0  0  0  0  0  0  0  0  0
    3.2842   -6.4486    2.3241 H   0  0  0  0  0  0  0  0  0  0  0  0
    6.5073   -5.1739    3.9523 H   0  0  0  0  0  0  0  0  0  0  0  0
    4.8875   -5.7374    4.0755 H   0  0  0  0  0  0  0  0  0  0  0  0
    3.8464   -1.2522    1.1289 H   0  0  0  0  0  0  0  0  0  0  0  0
    2.7582   -0.9280   -1.9169 H   0  0  0  0  0  0  0  0  0  0  0  0
    4.3219   -0.1917   -1.4144 H   0  0  0  0  0  0  0  0  0  0  0  0
    2.9339   -0.4738   -0.3160 H   0  0  0  0  0  0  0  0  0  0  0  0
    3.7856   -4.3263   -0.6142 H   0  0  0  0  0  0  0  0  0  0  0  0
    1.5939   -4.4172   -1.6179 H   0  0  0  0  0  0  0  0  0  0  0  0
    1.4050   -2.7098   -1.5373 H   0  0  0  0  0  0  0  0  0  0  0  0
    2.8691   -4.1382   -3.6587 H   0  0  0  0  0  0  0  0  0  0  0  0
    1.9956   -2.7147   -3.6918 H   0  0  0  0  0  0  0  0  0  0  0  0
    4.6676   -3.1590   -3.9939 H   0  0  0  0  0  0  0  0  0  0  0  0
    3.5815   -0.3605   -3.6840 H   0  0  0  0  0  0  0  0  0  0  0  0
    3.5896   -1.4242   -5.0886 H   0  0  0  0  0  0  0  0  0  0  0  0
    5.0248   -0.9147   -4.3943 H   0  0  0  0  0  0  0  0  0  0  0  0
    7.2556   -3.1457   -2.4024 H   0  0  0  0  0  0  0  0  0  0  0  0
    7.4346   -3.1974    0.2591 H   0  0  0  0  0  0  0  0  0  0  0  0
    5.5911   -5.5351   -0.5815 H   0  0  0  0  0  0  0  0  0  0  0  0
    1.8056   -1.9761    0.6338 H   0  0  0  0  0  0  0  0  0  0  0  0
  1  2  1  0
  1 32  1  0
  1 33  1  0
  1 34  1  0
  2 11  1  0
  2  3  1  0
  2 35  1  1
  3  4  1  0
  3 36  1  0
  3 37  1  0
  4  5  2  0
  4  6  1  0
  6  7  2  0
  6  8  1  0
  8 30  1  0
  8  9  1  6
  8 10  1  0
  9 38  1  0
  9 39  1  0
  9 40  1  0
 10 28  1  0
 10 11  1  1
 10 12  1  0
 11 41  1  0
 11 42  1  0
 12 13  1  0
 13 14  2  0
 13 15  1  0
 15 30  1  0
 15 16  1  0
 15 43  1  1
 16 23  1  0
 16 17  1  6
 16 18  1  0
 17 44  1  0
 17 45  1  0
 17 46  1  0
 18 19  1  0
 18 30  1  0
 18 47  1  1
 19 20  1  0
 19 48  1  0
 19 49  1  0
 20 21  1  0
 20 50  1  0
 20 51  1  0
 21 22  1  0
 21 23  1  0
 21 52  1  6
 22 53  1  0
 22 54  1  0
 22 55  1  0
 23 25  1  0
 23 24  1  6
 24 25  1  0
 25 26  1  0
 25 56  1  6
 26 27  2  3
 26 57  1  0
 27 28  1  0
 27 58  1  0
 28 29  2  0
 30 31  1  1
 31 59  1  0
M  END
>  <i_m_ct_stereo_status>  (65) 
1

>  <s_m_source_file>  (65) 
/var/tmp/pbs.5076255.sched01/tmpbdos_d33/0hajo06zg.sdf

>  <i_m_source_file_index>  (65) 
34

>  <i_lp_mmshare_version>  (65) 
48012

>  <i_f3d_flags>  (65) 
0

>  <s_epik_input>  (65) 
W0NIM11bQ0BASF0oW0NIMl0xKVtDSDJdQyg9TylDKD1PKVtDQEBdKFtDQF0xMjMpKFtDSDNdKVtDQEBdNChbT0hdKVtDQEBIXShDKE8yKT1PKVtDQEBdNShbQ0gzXSlbQ0BAXTYoW0NASF0oW0NIM10pW0NIMl1bQ0gyXVtDQEhdNDUpW0NASF0oTzYpL1tDSF09W0NIXVxDMz1P

>  <s_epik_cmdline>  (65) 
J2VwaWtfcHl0aG9uJywgJy1waHQnLCAnMi4wJywgJy1waCcsICc3LjAnLCAnLXRuJywgJzgnLCAnLW1hJywgJzIwMCcsICctaW1hZScsICc8aW5maWxlLm1hZT4nLCAnLW9tYWUnLCAnPG91dGZpbGUubWFlPic=

>  <r_lp_tautomer_probability>  (65) 
1

>  <r_epik_Ionization_Penalty>  (65) 
5.25636e-06

>  <r_epik_Ionization_Penalty_Charging>  (65) 
0

>  <r_epik_Ionization_Penalty_Neutral>  (65) 
5.25636e-06

>  <r_epik_State_Penalty>  (65) 
-0

>  <r_epik_Charging_Adjusted_Penalty>  (65) 
0

>  <i_epik_Tot_Q>  (65) 
0

>  <i_epik_Tot_abs_Q>  (65) 
0

>  <s_epik_Chemistry_Notes>  (65) 
This compound has an ester and may undergo hydrolysis at high or low pH.

>  <s_lp_Force_Field>  (65) 
OPLS3e

>  <r_lp_Energy>  (65) 
156.757

>  <b_lp_Chiralities_Consistent>  (65) 
1

>  <s_lp_Variant>  (65) 
24:0-2

>  <s_i_glide_gridfile>  (65) 
pfpi4k_grid

>  <i_i_glide_lignum>  (65) 
34

>  <i_i_glide_rotatable_bonds>  (65) 
1

>  <r_i_docking_score>  (65) 
-2.59511

>  <r_i_glide_ligand_efficiency>  (65) 
-0.0837131

>  <r_i_glide_ligand_efficiency_sa>  (65) 
-0.262975

>  <r_i_glide_ligand_efficiency_ln>  (65) 
-0.585276

>  <r_i_glide_gscore>  (65) 
-2.59511

>  <r_i_glide_lipo>  (65) 
-0.894964

>  <r_i_glide_hbond>  (65) 
0

>  <r_i_glide_metal>  (65) 
-0

>  <r_i_glide_rewards>  (65) 
-0.714419

>  <r_i_glide_evdw>  (65) 
-18.1768

>  <r_i_glide_ecoul>  (65) 
-0.51255

>  <r_i_glide_erotb>  (65) 
0

>  <r_i_glide_esite>  (65) 
0

>  <r_i_glide_emodel>  (65) 
-17.5979

>  <r_i_glide_energy>  (65) 
-18.6894

>  <r_i_glide_einternal>  (65) 
0.00827503

>  <r_i_glide_intrahb_reward>  (65) 
-0

>  <i_i_glide_confnum>  (65) 
1

>  <i_i_glide_posenum>  (65) 
12

>  <r_i_glide_eff_state_penalty>  (65) 
0

>  <ligand_id>  (65) 
24

>  <original_smiles>  (65) 
CC1CC(=O)C(=O)C2(C)C3(C1)OC(=O)C1C4(C)C(CCC(C)C45OC5C=CC3=O)C12O

>  <smiles>  (65) 
[H]OC12C3([H])C(=O)OC4(C(=O)C([H])=C([H])C5([H])OC56C([H])(C([H])([H])[H])C([H])([H])C([H])([H])C1([H])C36C([H])([H])[H])C([H])([H])C([H])(C([H])([H])[H])C([H])([H])C(=O)C(=O)C42C([H])([H])[H]

$$$$
25:0:0
     RDKit          3D

 26 28  0  0  1  0  0  0  0  0999 V2000
    3.2286   -0.7607   -4.6327 C   0  0  0  0  0  0  0  0  0  0  0  0
    3.9030   -1.3620   -3.4225 C   0  0  0  0  0  0  0  0  0  0  0  0
    4.5763   -0.5217   -2.5243 C   0  0  0  0  0  0  0  0  0  0  0  0
    5.1977   -1.0383   -1.3709 C   0  0  0  0  0  0  0  0  0  0  0  0
    5.1676   -2.4134   -1.1019 C   0  0  0  0  0  0  0  0  0  0  0  0
    5.7209   -3.1246   -0.0525 N   0  0  0  0  0  0  0  0  0  0  0  0
    5.3492   -4.3750   -0.3228 C   0  0  0  0  0  0  0  0  0  0  0  0
    5.7247   -5.5000    0.5195 C   0  0  0  0  0  0  0  0  0  0  0  0
    4.5602   -6.7086    0.9011 S   0  0  0  0  0  0  0  0  0  0  0  0
    5.6312   -7.5796    1.8442 N   0  0  0  0  0  0  0  0  0  0  0  0
    6.8066   -7.0223    1.8744 N   0  0  0  0  0  0  0  0  0  0  0  0
    6.9031   -5.8318    1.1334 C   0  0  0  0  0  0  0  0  0  0  0  0
    8.2167   -5.1109    1.0846 C   0  0  0  0  0  0  0  0  0  0  0  0
    4.6297   -4.4990   -1.4567 N   0  0  0  0  0  0  0  0  0  0  0  0
    4.4847   -3.2495   -2.0158 C   0  0  0  0  0  0  0  0  0  0  0  0
    3.8548   -2.7483   -3.1723 C   0  0  0  0  0  0  0  0  0  0  0  0
    3.3534    0.3188   -4.6854 H   0  0  0  0  0  0  0  0  0  0  0  0
    2.1674   -0.9877   -4.6347 H   0  0  0  0  0  0  0  0  0  0  0  0
    3.6755   -1.1838   -5.5227 H   0  0  0  0  0  0  0  0  0  0  0  0
    4.5960    0.5383   -2.7233 H   0  0  0  0  0  0  0  0  0  0  0  0
    5.6825   -0.3881   -0.6614 H   0  0  0  0  0  0  0  0  0  0  0  0
    8.2116   -4.2682    0.3866 H   0  0  0  0  0  0  0  0  0  0  0  0
    9.0124   -5.7905    0.7749 H   0  0  0  0  0  0  0  0  0  0  0  0
    8.4825   -4.7236    2.0693 H   0  0  0  0  0  0  0  0  0  0  0  0
    3.3278   -3.4093   -3.8456 H   0  0  0  0  0  0  0  0  0  0  0  0
    4.2420   -5.3533   -1.8452 H   0  0  0  0  0  0  0  0  0  0  0  0
  1  2  1  0
  1 17  1  0
  1 18  1  0
  1 19  1  0
  2 16  2  0
  2  3  1  0
  3  4  2  0
  3 20  1  0
  4  5  1  0
  4 21  1  0
  5 15  2  0
  5  6  1  0
  6  7  2  0
  7  8  1  0
  7 14  1  0
  8 12  2  0
  8  9  1  0
  9 10  1  0
 10 11  2  0
 11 12  1  0
 12 13  1  0
 13 22  1  0
 13 23  1  0
 13 24  1  0
 14 15  1  0
 14 26  1  0
 15 16  1  0
 16 25  1  0
M  END
>  <i_m_ct_stereo_status>  (66) 
1

>  <s_m_source_file>  (66) 
/var/tmp/pbs.5076255.sched01/tmpbdos_d33/0hajo06zg.sdf

>  <i_m_source_file_index>  (66) 
35

>  <i_lp_mmshare_version>  (66) 
48012

>  <i_f3d_flags>  (66) 
0

>  <s_epik_input>  (66) 
W2NIXTFbY0hdYyhbQ0gzXSlbY0hdYyhjMTIpbmMoW25IXTIpLWMzc25uYzNbQ0gzXQ==

>  <s_epik_cmdline>  (66) 
J2VwaWtfcHl0aG9uJywgJy1waHQnLCAnMi4wJywgJy1waCcsICc3LjAnLCAnLXRuJywgJzgnLCAnLW1hJywgJzIwMCcsICctaW1hZScsICc8aW5maWxlLm1hZT4nLCAnLW9tYWUnLCAnPG91dGZpbGUubWFlPic=

>  <r_lp_tautomer_probability>  (66) 
1

>  <r_epik_Ionization_Penalty>  (66) 
0.000348823

>  <r_epik_Ionization_Penalty_Charging>  (66) 
0

>  <r_epik_Ionization_Penalty_Neutral>  (66) 
0.000348823

>  <r_epik_State_Penalty>  (66) 
0.35546

>  <r_epik_Charging_Adjusted_Penalty>  (66) 
0.35546

>  <i_epik_Tot_Q>  (66) 
0

>  <i_epik_Tot_abs_Q>  (66) 
0

>  <s_lp_Force_Field>  (66) 
OPLS3e

>  <r_lp_Energy>  (66) 
7.97643

>  <b_lp_Chiralities_Consistent>  (66) 
1

>  <s_lp_Variant>  (66) 
25:0-1

>  <s_i_glide_gridfile>  (66) 
pfpi4k_grid

>  <i_i_glide_lignum>  (66) 
35

>  <i_i_glide_rotatable_bonds>  (66) 
1

>  <r_i_docking_score>  (66) 
-4.52099

>  <r_i_glide_ligand_efficiency>  (66) 
-0.282562

>  <r_i_glide_ligand_efficiency_sa>  (66) 
-0.712011

>  <r_i_glide_ligand_efficiency_ln>  (66) 
-1.19838

>  <r_i_glide_gscore>  (66) 
-4.52099

>  <r_i_glide_lipo>  (66) 
-0.817062

>  <r_i_glide_hbond>  (66) 
-0.315206

>  <r_i_glide_metal>  (66) 
-0

>  <r_i_glide_rewards>  (66) 
-1.91817

>  <r_i_glide_evdw>  (66) 
-18.8654

>  <r_i_glide_ecoul>  (66) 
-5.38854

>  <r_i_glide_erotb>  (66) 
0.322104

>  <r_i_glide_esite>  (66) 
-0.0411044

>  <r_i_glide_emodel>  (66) 
-29.7783

>  <r_i_glide_energy>  (66) 
-24.254

>  <r_i_glide_einternal>  (66) 
4.35419

>  <r_i_glide_intrahb_reward>  (66) 
-0

>  <i_i_glide_confnum>  (66) 
2

>  <i_i_glide_posenum>  (66) 
28

>  <r_i_glide_eff_state_penalty>  (66) 
0

>  <ligand_id>  (66) 
25

>  <original_smiles>  (66) 
Cc1ccc2[nH]c(-c3snnc3C)nc2c1

>  <smiles>  (66) 
[H]c1c(C([H])([H])[H])c([H])c2c(nc(-c3snnc3C([H])([H])[H])n2[H])c1[H]

$$$$
25:0:1
     RDKit          3D

 26 28  0  0  1  0  0  0  0  0999 V2000
   -1.9280    2.5991    3.6831 C   0  0  0  0  0  0  0  0  0  0  0  0
   -0.5071    2.1022    3.5205 C   0  0  0  0  0  0  0  0  0  0  0  0
    0.4691    2.4063    4.4927 C   0  0  0  0  0  0  0  0  0  0  0  0
    1.7943    1.9477    4.3221 C   0  0  0  0  0  0  0  0  0  0  0  0
    2.1557    1.1846    3.1941 C   0  0  0  0  0  0  0  0  0  0  0  0
    3.3662    0.6188    2.8443 N   0  0  0  0  0  0  0  0  0  0  0  0
    3.1147    0.0216    1.6764 C   0  0  0  0  0  0  0  0  0  0  0  0
    4.1477   -0.7030    0.9377 C   0  0  0  0  0  0  0  0  0  0  0  0
    3.8979   -1.1450   -0.7073 S   0  0  0  0  0  0  0  0  0  0  0  0
    5.3877   -1.8746   -0.8670 N   0  0  0  0  0  0  0  0  0  0  0  0
    6.0612   -1.8271    0.2431 N   0  0  0  0  0  0  0  0  0  0  0  0
    5.3941   -1.1699    1.2995 C   0  0  0  0  0  0  0  0  0  0  0  0
    6.0730   -1.0738    2.6258 C   0  0  0  0  0  0  0  0  0  0  0  0
    1.8260    0.1409    1.2825 N   0  0  0  0  0  0  0  0  0  0  0  0
    1.1603    0.8916    2.2299 C   0  0  0  0  0  0  0  0  0  0  0  0
   -0.1654    1.3411    2.3885 C   0  0  0  0  0  0  0  0  0  0  0  0
   -2.0342    3.1699    4.6058 H   0  0  0  0  0  0  0  0  0  0  0  0
   -2.6062    1.7459    3.7306 H   0  0  0  0  0  0  0  0  0  0  0  0
   -2.2073    3.2323    2.8374 H   0  0  0  0  0  0  0  0  0  0  0  0
    0.2111    2.9935    5.3647 H   0  0  0  0  0  0  0  0  0  0  0  0
    2.5447    2.1774    5.0603 H   0  0  0  0  0  0  0  0  0  0  0  0
    5.5631   -0.4552    3.3654 H   0  0  0  0  0  0  0  0  0  0  0  0
    7.0657   -0.6671    2.4954 H   0  0  0  0  0  0  0  0  0  0  0  0
    6.1826   -2.0646    3.0548 H   0  0  0  0  0  0  0  0  0  0  0  0
   -0.9009    1.1133    1.6369 H   0  0  0  0  0  0  0  0  0  0  0  0
    1.4254   -0.2569    0.4130 H   0  0  0  0  0  0  0  0  0  0  0  0
  1  2  1  0
  1 17  1  0
  1 18  1  0
  1 19  1  0
  2 16  2  0
  2  3  1  0
  3  4  2  0
  3 20  1  0
  4  5  1  0
  4 21  1  0
  5 15  2  0
  5  6  1  0
  6  7  2  0
  7  8  1  0
  7 14  1  0
  8 12  2  0
  8  9  1  0
  9 10  1  0
 10 11  2  0
 11 12  1  0
 12 13  1  0
 13 22  1  0
 13 23  1  0
 13 24  1  0
 14 15  1  0
 14 26  1  0
 15 16  1  0
 16 25  1  0
M  END
>  <i_m_ct_stereo_status>  (67) 
1

>  <s_m_source_file>  (67) 
/var/tmp/pbs.5076255.sched01/tmpbdos_d33/0hajo06zg.sdf

>  <i_m_source_file_index>  (67) 
35

>  <i_lp_mmshare_version>  (67) 
48012

>  <i_f3d_flags>  (67) 
0

>  <s_epik_input>  (67) 
W2NIXTFbY0hdYyhbQ0gzXSlbY0hdYyhjMTIpbmMoW25IXTIpLWMzc25uYzNbQ0gzXQ==

>  <s_epik_cmdline>  (67) 
J2VwaWtfcHl0aG9uJywgJy1waHQnLCAnMi4wJywgJy1waCcsICc3LjAnLCAnLXRuJywgJzgnLCAnLW1hJywgJzIwMCcsICctaW1hZScsICc8aW5maWxlLm1hZT4nLCAnLW9tYWUnLCAnPG91dGZpbGUubWFlPic=

>  <r_lp_tautomer_probability>  (67) 
1

>  <r_epik_Ionization_Penalty>  (67) 
0.000348823

>  <r_epik_Ionization_Penalty_Charging>  (67) 
0

>  <r_epik_Ionization_Penalty_Neutral>  (67) 
0.000348823

>  <r_epik_State_Penalty>  (67) 
0.35546

>  <r_epik_Charging_Adjusted_Penalty>  (67) 
0.35546

>  <i_epik_Tot_Q>  (67) 
0

>  <i_epik_Tot_abs_Q>  (67) 
0

>  <s_lp_Force_Field>  (67) 
OPLS3e

>  <r_lp_Energy>  (67) 
7.97643

>  <b_lp_Chiralities_Consistent>  (67) 
1

>  <s_lp_Variant>  (67) 
25:0-1

>  <s_i_glide_gridfile>  (67) 
pfpi4k_grid

>  <i_i_glide_lignum>  (67) 
35

>  <i_i_glide_rotatable_bonds>  (67) 
1

>  <r_i_docking_score>  (67) 
-3.85813

>  <r_i_glide_ligand_efficiency>  (67) 
-0.241133

>  <r_i_glide_ligand_efficiency_sa>  (67) 
-0.607617

>  <r_i_glide_ligand_efficiency_ln>  (67) 
-1.02267

>  <r_i_glide_gscore>  (67) 
-3.85813

>  <r_i_glide_lipo>  (67) 
-0.276398

>  <r_i_glide_hbond>  (67) 
-0.16

>  <r_i_glide_metal>  (67) 
-0

>  <r_i_glide_rewards>  (67) 
-1.8499

>  <r_i_glide_evdw>  (67) 
-18.1542

>  <r_i_glide_ecoul>  (67) 
-5.779

>  <r_i_glide_erotb>  (67) 
0.322104

>  <r_i_glide_esite>  (67) 
-0.119377

>  <r_i_glide_emodel>  (67) 
-28.6797

>  <r_i_glide_energy>  (67) 
-23.9332

>  <r_i_glide_einternal>  (67) 
3.52459

>  <r_i_glide_intrahb_reward>  (67) 
-0

>  <i_i_glide_confnum>  (67) 
2

>  <i_i_glide_posenum>  (67) 
4

>  <r_i_glide_eff_state_penalty>  (67) 
0

>  <ligand_id>  (67) 
25

>  <original_smiles>  (67) 
Cc1ccc2[nH]c(-c3snnc3C)nc2c1

>  <smiles>  (67) 
[H]c1c(C([H])([H])[H])c([H])c2c(nc(-c3snnc3C([H])([H])[H])n2[H])c1[H]

$$$$
25:0:2
     RDKit          3D

 26 28  0  0  1  0  0  0  0  0999 V2000
    3.1930   -1.1828   -4.2849 C   0  0  0  0  0  0  0  0  0  0  0  0
    3.9550   -1.6699   -3.0773 C   0  0  0  0  0  0  0  0  0  0  0  0
    4.5669   -0.7417   -2.2189 C   0  0  0  0  0  0  0  0  0  0  0  0
    5.2659   -1.1641   -1.0675 C   0  0  0  0  0  0  0  0  0  0  0  0
    5.3701   -2.5382   -0.7731 C   0  0  0  0  0  0  0  0  0  0  0  0
    6.0057   -3.1918    0.2691 N   0  0  0  0  0  0  0  0  0  0  0  0
    5.7234   -4.4775    0.0418 C   0  0  0  0  0  0  0  0  0  0  0  0
    6.2026   -5.5609    0.8911 C   0  0  0  0  0  0  0  0  0  0  0  0
    7.7475   -5.4509    1.6531 S   0  0  0  0  0  0  0  0  0  0  0  0
    7.6137   -6.9563    2.3684 N   0  0  0  0  0  0  0  0  0  0  0  0
    6.4888   -7.5366    2.0558 N   0  0  0  0  0  0  0  0  0  0  0  0
    5.6594   -6.7751    1.2177 C   0  0  0  0  0  0  0  0  0  0  0  0
    4.3405   -7.3492    0.7885 C   0  0  0  0  0  0  0  0  0  0  0  0
    5.0145   -4.6809   -1.0848 N   0  0  0  0  0  0  0  0  0  0  0  0
    4.7440   -3.4576   -1.6535 C   0  0  0  0  0  0  0  0  0  0  0  0
    4.0462   -3.0450   -2.8005 C   0  0  0  0  0  0  0  0  0  0  0  0
    3.2065   -0.0956   -4.3687 H   0  0  0  0  0  0  0  0  0  0  0  0
    2.1601   -1.5207   -4.2466 H   0  0  0  0  0  0  0  0  0  0  0  0
    3.6518   -1.5936   -5.1726 H   0  0  0  0  0  0  0  0  0  0  0  0
    4.4700    0.3009   -2.4595 H   0  0  0  0  0  0  0  0  0  0  0  0
    5.7044   -0.4466   -0.3930 H   0  0  0  0  0  0  0  0  0  0  0  0
    3.7321   -6.6370    0.2287 H   0  0  0  0  0  0  0  0  0  0  0  0
    3.7588   -7.6591    1.6560 H   0  0  0  0  0  0  0  0  0  0  0  0
    4.4899   -8.2259    0.1578 H   0  0  0  0  0  0  0  0  0  0  0  0
    3.5752   -3.7702   -3.4486 H   0  0  0  0  0  0  0  0  0  0  0  0
    4.7281   -5.5807   -1.4449 H   0  0  0  0  0  0  0  0  0  0  0  0
  1  2  1  0
  1 17  1  0
  1 18  1  0
  1 19  1  0
  2 16  2  0
  2  3  1  0
  3  4  2  0
  3 20  1  0
  4  5  1  0
  4 21  1  0
  5 15  2  0
  5  6  1  0
  6  7  2  0
  7  8  1  0
  7 14  1  0
  8 12  2  0
  8  9  1  0
  9 10  1  0
 10 11  2  0
 11 12  1  0
 12 13  1  0
 13 22  1  0
 13 23  1  0
 13 24  1  0
 14 15  1  0
 14 26  1  0
 15 16  1  0
 16 25  1  0
M  END
>  <i_m_ct_stereo_status>  (68) 
1

>  <s_m_source_file>  (68) 
/var/tmp/pbs.5076255.sched01/tmpbdos_d33/0hajo06zg.sdf

>  <i_m_source_file_index>  (68) 
35

>  <i_lp_mmshare_version>  (68) 
48012

>  <i_f3d_flags>  (68) 
0

>  <s_epik_input>  (68) 
W2NIXTFbY0hdYyhbQ0gzXSlbY0hdYyhjMTIpbmMoW25IXTIpLWMzc25uYzNbQ0gzXQ==

>  <s_epik_cmdline>  (68) 
J2VwaWtfcHl0aG9uJywgJy1waHQnLCAnMi4wJywgJy1waCcsICc3LjAnLCAnLXRuJywgJzgnLCAnLW1hJywgJzIwMCcsICctaW1hZScsICc8aW5maWxlLm1hZT4nLCAnLW9tYWUnLCAnPG91dGZpbGUubWFlPic=

>  <r_lp_tautomer_probability>  (68) 
1

>  <r_epik_Ionization_Penalty>  (68) 
0.000348823

>  <r_epik_Ionization_Penalty_Charging>  (68) 
0

>  <r_epik_Ionization_Penalty_Neutral>  (68) 
0.000348823

>  <r_epik_State_Penalty>  (68) 
0.35546

>  <r_epik_Charging_Adjusted_Penalty>  (68) 
0.35546

>  <i_epik_Tot_Q>  (68) 
0

>  <i_epik_Tot_abs_Q>  (68) 
0

>  <s_lp_Force_Field>  (68) 
OPLS3e

>  <r_lp_Energy>  (68) 
7.97643

>  <b_lp_Chiralities_Consistent>  (68) 
1

>  <s_lp_Variant>  (68) 
25:0-1

>  <s_i_glide_gridfile>  (68) 
pfpi4k_grid

>  <i_i_glide_lignum>  (68) 
35

>  <i_i_glide_rotatable_bonds>  (68) 
1

>  <r_i_docking_score>  (68) 
-3.73456

>  <r_i_glide_ligand_efficiency>  (68) 
-0.23341

>  <r_i_glide_ligand_efficiency_sa>  (68) 
-0.588156

>  <r_i_glide_ligand_efficiency_ln>  (68) 
-0.989919

>  <r_i_glide_gscore>  (68) 
-3.73456

>  <r_i_glide_lipo>  (68) 
-0.482786

>  <r_i_glide_hbond>  (68) 
-0.13387

>  <r_i_glide_metal>  (68) 
-0

>  <r_i_glide_rewards>  (68) 
-1.92705

>  <r_i_glide_evdw>  (68) 
-21.9487

>  <r_i_glide_ecoul>  (68) 
-2.55902

>  <r_i_glide_erotb>  (68) 
0.322104

>  <r_i_glide_esite>  (68) 
-0.0316661

>  <r_i_glide_emodel>  (68) 
-30.3569

>  <r_i_glide_energy>  (68) 
-24.5077

>  <r_i_glide_einternal>  (68) 
1.06697

>  <r_i_glide_intrahb_reward>  (68) 
-0

>  <i_i_glide_confnum>  (68) 
2

>  <i_i_glide_posenum>  (68) 
6

>  <r_i_glide_eff_state_penalty>  (68) 
0

>  <ligand_id>  (68) 
25

>  <original_smiles>  (68) 
Cc1ccc2[nH]c(-c3snnc3C)nc2c1

>  <smiles>  (68) 
[H]c1c(C([H])([H])[H])c([H])c2c(nc(-c3snnc3C([H])([H])[H])n2[H])c1[H]

$$$$
25:1:0
     RDKit          3D

 26 28  0  0  1  0  0  0  0  0999 V2000
    2.3190    0.0465   -4.9185 C   0  0  0  0  0  0  0  0  0  0  0  0
    2.9151   -1.0341   -4.0460 C   0  0  0  0  0  0  0  0  0  0  0  0
    2.2289   -2.2524   -3.8888 C   0  0  0  0  0  0  0  0  0  0  0  0
    2.7523   -3.2380   -3.0620 C   0  0  0  0  0  0  0  0  0  0  0  0
    3.9768   -3.0364   -2.4190 C   0  0  0  0  0  0  0  0  0  0  0  0
    4.7613   -3.7990   -1.5813 N   0  0  0  0  0  0  0  0  0  0  0  0
    5.8203   -3.0589   -1.2189 C   0  0  0  0  0  0  0  0  0  0  0  0
    6.8711   -3.5229   -0.3221 C   0  0  0  0  0  0  0  0  0  0  0  0
    8.3755   -2.6971   -0.2803 S   0  0  0  0  0  0  0  0  0  0  0  0
    9.0274   -3.7370    0.8462 N   0  0  0  0  0  0  0  0  0  0  0  0
    8.1853   -4.6695    1.1805 N   0  0  0  0  0  0  0  0  0  0  0  0
    6.9400   -4.5796    0.5393 C   0  0  0  0  0  0  0  0  0  0  0  0
    5.8886   -5.5982    0.8567 C   0  0  0  0  0  0  0  0  0  0  0  0
    5.8517   -1.8465   -1.7830 N   0  0  0  0  0  0  0  0  0  0  0  0
    4.6878   -1.8207   -2.5338 C   0  0  0  0  0  0  0  0  0  0  0  0
    4.1245   -0.8097   -3.3504 C   0  0  0  0  0  0  0  0  0  0  0  0
    4.5775   -4.7491   -1.2892 H   0  0  0  0  0  0  0  0  0  0  0  0
    1.3596   -0.2552   -5.3332 H   0  0  0  0  0  0  0  0  0  0  0  0
    2.9921    0.2979   -5.7363 H   0  0  0  0  0  0  0  0  0  0  0  0
    2.1159    0.9295   -4.3262 H   0  0  0  0  0  0  0  0  0  0  0  0
    1.2703   -2.4693   -4.3274 H   0  0  0  0  0  0  0  0  0  0  0  0
    2.1564   -4.1178   -2.9500 H   0  0  0  0  0  0  0  0  0  0  0  0
    5.0058   -5.5417    0.2137 H   0  0  0  0  0  0  0  0  0  0  0  0
    5.5377   -5.4668    1.8806 H   0  0  0  0  0  0  0  0  0  0  0  0
    6.2929   -6.6048    0.7484 H   0  0  0  0  0  0  0  0  0  0  0  0
    4.5958    0.1510   -3.4103 H   0  0  0  0  0  0  0  0  0  0  0  0
  1  2  1  0
  1 18  1  0
  1 19  1  0
  1 20  1  0
  2 16  2  0
  2  3  1  0
  3  4  2  0
  3 21  1  0
  4  5  1  0
  4 22  1  0
  5 15  2  0
  5  6  1  0
  6 17  1  0
  6  7  1  0
  7  8  1  0
  7 14  2  0
  8 12  2  0
  8  9  1  0
  9 10  1  0
 10 11  2  0
 11 12  1  0
 12 13  1  0
 13 23  1  0
 13 24  1  0
 13 25  1  0
 14 15  1  0
 15 16  1  0
 16 26  1  0
M  END
>  <i_m_ct_stereo_status>  (69) 
1

>  <s_m_source_file>  (69) 
/var/tmp/pbs.5076255.sched01/tmpbdos_d33/0hajo06zg.sdf

>  <i_m_source_file_index>  (69) 
36

>  <i_lp_mmshare_version>  (69) 
48012

>  <i_f3d_flags>  (69) 
0

>  <s_epik_input>  (69) 
W2NIXTFbY0hdYyhbQ0gzXSlbY0hdYyhjMTIpbmMoW25IXTIpLWMzc25uYzNbQ0gzXQ==

>  <s_epik_cmdline>  (69) 
J2VwaWtfcHl0aG9uJywgJy1waHQnLCAnMi4wJywgJy1waCcsICc3LjAnLCAnLXRuJywgJzgnLCAnLW1hJywgJzIwMCcsICctaW1hZScsICc8aW5maWxlLm1hZT4nLCAnLW9tYWUnLCAnPG91dGZpbGUubWFlPic=

>  <r_epik_Ionization_Penalty>  (69) 
0.000426014

>  <r_epik_Ionization_Penalty_Charging>  (69) 
0

>  <r_epik_Ionization_Penalty_Neutral>  (69) 
0.000426014

>  <r_epik_State_Penalty>  (69) 
0.47158

>  <r_epik_Charging_Adjusted_Penalty>  (69) 
0.47158

>  <i_epik_Tot_Q>  (69) 
0

>  <i_epik_Tot_abs_Q>  (69) 
0

>  <s_lp_Force_Field>  (69) 
OPLS3e

>  <r_lp_Energy>  (69) 
8.00512

>  <b_lp_Chiralities_Consistent>  (69) 
1

>  <s_lp_Variant>  (69) 
25:0-2

>  <s_i_glide_gridfile>  (69) 
pfpi4k_grid

>  <i_i_glide_lignum>  (69) 
36

>  <i_i_glide_rotatable_bonds>  (69) 
1

>  <r_i_docking_score>  (69) 
-4.18454

>  <r_i_glide_ligand_efficiency>  (69) 
-0.261534

>  <r_i_glide_ligand_efficiency_sa>  (69) 
-0.659024

>  <r_i_glide_ligand_efficiency_ln>  (69) 
-1.1092

>  <r_i_glide_gscore>  (69) 
-4.18454

>  <r_i_glide_lipo>  (69) 
-0.954473

>  <r_i_glide_hbond>  (69) 
-0.0498663

>  <r_i_glide_metal>  (69) 
-0

>  <r_i_glide_rewards>  (69) 
-1.91385

>  <r_i_glide_evdw>  (69) 
-17.8865

>  <r_i_glide_ecoul>  (69) 
-4.52926

>  <r_i_glide_erotb>  (69) 
0.322104

>  <r_i_glide_esite>  (69) 
-0.0147445

>  <r_i_glide_emodel>  (69) 
-29.0615

>  <r_i_glide_energy>  (69) 
-22.4158

>  <r_i_glide_einternal>  (69) 
0.284285

>  <r_i_glide_intrahb_reward>  (69) 
-0

>  <i_i_glide_confnum>  (69) 
2

>  <i_i_glide_posenum>  (69) 
29

>  <r_i_glide_eff_state_penalty>  (69) 
0

>  <ligand_id>  (69) 
25

>  <original_smiles>  (69) 
Cc1ccc2[nH]c(-c3snnc3C)nc2c1

>  <smiles>  (69) 
[H]c1c(C([H])([H])[H])c([H])c2nc(-c3snnc3C([H])([H])[H])n([H])c2c1[H]

$$$$
25:1:1
     RDKit          3D

 26 28  0  0  1  0  0  0  0  0999 V2000
   -1.5563    3.0973    5.6280 C   0  0  0  0  0  0  0  0  0  0  0  0
   -0.8641    2.3483    4.5158 C   0  0  0  0  0  0  0  0  0  0  0  0
   -1.5511    2.0524    3.3197 C   0  0  0  0  0  0  0  0  0  0  0  0
   -0.9008    1.3450    2.2898 C   0  0  0  0  0  0  0  0  0  0  0  0
    0.4397    0.9581    2.4561 C   0  0  0  0  0  0  0  0  0  0  0  0
    1.3628    0.2758    1.6802 N   0  0  0  0  0  0  0  0  0  0  0  0
    2.5145    0.2083    2.3864 C   0  0  0  0  0  0  0  0  0  0  0  0
    3.7417   -0.4317    1.9092 C   0  0  0  0  0  0  0  0  0  0  0  0
    3.8230   -1.0621    0.3052 S   0  0  0  0  0  0  0  0  0  0  0  0
    5.4036   -1.5697    0.4695 N   0  0  0  0  0  0  0  0  0  0  0  0
    5.8664   -1.3179    1.6573 N   0  0  0  0  0  0  0  0  0  0  0  0
    4.9547   -0.6674    2.5136 C   0  0  0  0  0  0  0  0  0  0  0  0
    5.4119   -0.3351    3.9092 C   0  0  0  0  0  0  0  0  0  0  0  0
    2.4424    0.7772    3.5906 N   0  0  0  0  0  0  0  0  0  0  0  0
    1.1500    1.2572    3.6465 C   0  0  0  0  0  0  0  0  0  0  0  0
    0.4802    1.9489    4.6773 C   0  0  0  0  0  0  0  0  0  0  0  0
    1.2144   -0.0971    0.7381 H   0  0  0  0  0  0  0  0  0  0  0  0
   -2.5869    3.3319    5.3600 H   0  0  0  0  0  0  0  0  0  0  0  0
   -1.0287    4.0302    5.8301 H   0  0  0  0  0  0  0  0  0  0  0  0
   -1.5631    2.4942    6.5367 H   0  0  0  0  0  0  0  0  0  0  0  0
   -2.5810    2.3558    3.1850 H   0  0  0  0  0  0  0  0  0  0  0  0
   -1.4239    1.1193    1.3773 H   0  0  0  0  0  0  0  0  0  0  0  0
    4.6234    0.0548    4.5499 H   0  0  0  0  0  0  0  0  0  0  0  0
    6.2064    0.4084    3.8865 H   0  0  0  0  0  0  0  0  0  0  0  0
    5.7992   -1.2213    4.4069 H   0  0  0  0  0  0  0  0  0  0  0  0
    1.0136    2.1727    5.5885 H   0  0  0  0  0  0  0  0  0  0  0  0
  1  2  1  0
  1 18  1  0
  1 19  1  0
  1 20  1  0
  2 16  2  0
  2  3  1  0
  3  4  2  0
  3 21  1  0
  4  5  1  0
  4 22  1  0
  5 15  2  0
  5  6  1  0
  6 17  1  0
  6  7  1  0
  7  8  1  0
  7 14  2  0
  8 12  2  0
  8  9  1  0
  9 10  1  0
 10 11  2  0
 11 12  1  0
 12 13  1  0
 13 23  1  0
 13 24  1  0
 13 25  1  0
 14 15  1  0
 15 16  1  0
 16 26  1  0
M  END
>  <i_m_ct_stereo_status>  (70) 
1

>  <s_m_source_file>  (70) 
/var/tmp/pbs.5076255.sched01/tmpbdos_d33/0hajo06zg.sdf

>  <i_m_source_file_index>  (70) 
36

>  <i_lp_mmshare_version>  (70) 
48012

>  <i_f3d_flags>  (70) 
0

>  <s_epik_input>  (70) 
W2NIXTFbY0hdYyhbQ0gzXSlbY0hdYyhjMTIpbmMoW25IXTIpLWMzc25uYzNbQ0gzXQ==

>  <s_epik_cmdline>  (70) 
J2VwaWtfcHl0aG9uJywgJy1waHQnLCAnMi4wJywgJy1waCcsICc3LjAnLCAnLXRuJywgJzgnLCAnLW1hJywgJzIwMCcsICctaW1hZScsICc8aW5maWxlLm1hZT4nLCAnLW9tYWUnLCAnPG91dGZpbGUubWFlPic=

>  <r_epik_Ionization_Penalty>  (70) 
0.000426014

>  <r_epik_Ionization_Penalty_Charging>  (70) 
0

>  <r_epik_Ionization_Penalty_Neutral>  (70) 
0.000426014

>  <r_epik_State_Penalty>  (70) 
0.47158

>  <r_epik_Charging_Adjusted_Penalty>  (70) 
0.47158

>  <i_epik_Tot_Q>  (70) 
0

>  <i_epik_Tot_abs_Q>  (70) 
0

>  <s_lp_Force_Field>  (70) 
OPLS3e

>  <r_lp_Energy>  (70) 
8.00512

>  <b_lp_Chiralities_Consistent>  (70) 
1

>  <s_lp_Variant>  (70) 
25:0-2

>  <s_i_glide_gridfile>  (70) 
pfpi4k_grid

>  <i_i_glide_lignum>  (70) 
36

>  <i_i_glide_rotatable_bonds>  (70) 
1

>  <r_i_docking_score>  (70) 
-3.48915

>  <r_i_glide_ligand_efficiency>  (70) 
-0.218072

>  <r_i_glide_ligand_efficiency_sa>  (70) 
-0.549507

>  <r_i_glide_ligand_efficiency_ln>  (70) 
-0.92487

>  <r_i_glide_gscore>  (70) 
-3.48915

>  <r_i_glide_lipo>  (70) 
-0.249302

>  <r_i_glide_hbond>  (70) 
-0.16

>  <r_i_glide_metal>  (70) 
-0

>  <r_i_glide_rewards>  (70) 
-1.83893

>  <r_i_glide_evdw>  (70) 
-19.8904

>  <r_i_glide_ecoul>  (70) 
-3.16645

>  <r_i_glide_erotb>  (70) 
0.322104

>  <r_i_glide_esite>  (70) 
-0.0935335

>  <r_i_glide_emodel>  (70) 
-27.0531

>  <r_i_glide_energy>  (70) 
-23.0569

>  <r_i_glide_einternal>  (70) 
3.34362

>  <r_i_glide_intrahb_reward>  (70) 
-0

>  <i_i_glide_confnum>  (70) 
2

>  <i_i_glide_posenum>  (70) 
21

>  <r_i_glide_eff_state_penalty>  (70) 
0

>  <ligand_id>  (70) 
25

>  <original_smiles>  (70) 
Cc1ccc2[nH]c(-c3snnc3C)nc2c1

>  <smiles>  (70) 
[H]c1c(C([H])([H])[H])c([H])c2nc(-c3snnc3C([H])([H])[H])n([H])c2c1[H]

$$$$
25:1:2
     RDKit          3D

 26 28  0  0  1  0  0  0  0  0999 V2000
    4.0856   -2.1324   -1.3968 C   0  0  0  0  0  0  0  0  0  0  0  0
    3.9947   -3.4412   -0.6490 C   0  0  0  0  0  0  0  0  0  0  0  0
    5.1640   -4.1403   -0.2820 C   0  0  0  0  0  0  0  0  0  0  0  0
    5.0632   -5.3577    0.4167 C   0  0  0  0  0  0  0  0  0  0  0  0
    3.7907   -5.8512    0.7401 C   0  0  0  0  0  0  0  0  0  0  0  0
    3.3354   -6.9745    1.3988 N   0  0  0  0  0  0  0  0  0  0  0  0
    1.9876   -6.9419    1.4156 C   0  0  0  0  0  0  0  0  0  0  0  0
    1.1706   -7.9909    2.0273 C   0  0  0  0  0  0  0  0  0  0  0  0
   -0.5433   -7.7949    2.1461 S   0  0  0  0  0  0  0  0  0  0  0  0
   -0.7656   -9.2773    2.8801 N   0  0  0  0  0  0  0  0  0  0  0  0
    0.3633   -9.9098    3.0335 N   0  0  0  0  0  0  0  0  0  0  0  0
    1.4896   -9.2136    2.5667 C   0  0  0  0  0  0  0  0  0  0  0  0
    2.8394   -9.8666    2.7054 C   0  0  0  0  0  0  0  0  0  0  0  0
    1.4724   -5.8600    0.8182 N   0  0  0  0  0  0  0  0  0  0  0  0
    2.5988   -5.1705    0.3875 C   0  0  0  0  0  0  0  0  0  0  0  0
    2.7211   -3.9551   -0.3204 C   0  0  0  0  0  0  0  0  0  0  0  0
    3.8855   -7.7117    1.8038 H   0  0  0  0  0  0  0  0  0  0  0  0
    5.1217   -1.8608   -1.5876 H   0  0  0  0  0  0  0  0  0  0  0  0
    3.6199   -1.3379   -0.8143 H   0  0  0  0  0  0  0  0  0  0  0  0
    3.5664   -2.2094   -2.3507 H   0  0  0  0  0  0  0  0  0  0  0  0
    6.1404   -3.7524   -0.5384 H   0  0  0  0  0  0  0  0  0  0  0  0
    5.9485   -5.9035    0.6991 H   0  0  0  0  0  0  0  0  0  0  0  0
    3.6723   -9.2261    2.4233 H   0  0  0  0  0  0  0  0  0  0  0  0
    2.9071  -10.7559    2.0785 H   0  0  0  0  0  0  0  0  0  0  0  0
    3.0180  -10.1655    3.7390 H   0  0  0  0  0  0  0  0  0  0  0  0
    1.8360   -3.4205   -0.6292 H   0  0  0  0  0  0  0  0  0  0  0  0
  1  2  1  0
  1 18  1  0
  1 19  1  0
  1 20  1  0
  2 16  2  0
  2  3  1  0
  3  4  2  0
  3 21  1  0
  4  5  1  0
  4 22  1  0
  5 15  2  0
  5  6  1  0
  6 17  1  0
  6  7  1  0
  7  8  1  0
  7 14  2  0
  8 12  2  0
  8  9  1  0
  9 10  1  0
 10 11  2  0
 11 12  1  0
 12 13  1  0
 13 23  1  0
 13 24  1  0
 13 25  1  0
 14 15  1  0
 15 16  1  0
 16 26  1  0
M  END
>  <i_m_ct_stereo_status>  (71) 
1

>  <s_m_source_file>  (71) 
/var/tmp/pbs.5076255.sched01/tmpbdos_d33/0hajo06zg.sdf

>  <i_m_source_file_index>  (71) 
36

>  <i_lp_mmshare_version>  (71) 
48012

>  <i_f3d_flags>  (71) 
0

>  <s_epik_input>  (71) 
W2NIXTFbY0hdYyhbQ0gzXSlbY0hdYyhjMTIpbmMoW25IXTIpLWMzc25uYzNbQ0gzXQ==

>  <s_epik_cmdline>  (71) 
J2VwaWtfcHl0aG9uJywgJy1waHQnLCAnMi4wJywgJy1waCcsICc3LjAnLCAnLXRuJywgJzgnLCAnLW1hJywgJzIwMCcsICctaW1hZScsICc8aW5maWxlLm1hZT4nLCAnLW9tYWUnLCAnPG91dGZpbGUubWFlPic=

>  <r_epik_Ionization_Penalty>  (71) 
0.000426014

>  <r_epik_Ionization_Penalty_Charging>  (71) 
0

>  <r_epik_Ionization_Penalty_Neutral>  (71) 
0.000426014

>  <r_epik_State_Penalty>  (71) 
0.47158

>  <r_epik_Charging_Adjusted_Penalty>  (71) 
0.47158

>  <i_epik_Tot_Q>  (71) 
0

>  <i_epik_Tot_abs_Q>  (71) 
0

>  <s_lp_Force_Field>  (71) 
OPLS3e

>  <r_lp_Energy>  (71) 
8.00512

>  <b_lp_Chiralities_Consistent>  (71) 
1

>  <s_lp_Variant>  (71) 
25:0-2

>  <s_i_glide_gridfile>  (71) 
pfpi4k_grid

>  <i_i_glide_lignum>  (71) 
36

>  <i_i_glide_rotatable_bonds>  (71) 
1

>  <r_i_docking_score>  (71) 
-3.41839

>  <r_i_glide_ligand_efficiency>  (71) 
-0.213649

>  <r_i_glide_ligand_efficiency_sa>  (71) 
-0.538362

>  <r_i_glide_ligand_efficiency_ln>  (71) 
-0.906112

>  <r_i_glide_gscore>  (71) 
-3.41839

>  <r_i_glide_lipo>  (71) 
-0.27545

>  <r_i_glide_hbond>  (71) 
-0.152492

>  <r_i_glide_metal>  (71) 
-0

>  <r_i_glide_rewards>  (71) 
-1.83893

>  <r_i_glide_evdw>  (71) 
-23.0598

>  <r_i_glide_ecoul>  (71) 
-1.8843

>  <r_i_glide_erotb>  (71) 
0.322104

>  <r_i_glide_esite>  (71) 
-0.0379826

>  <r_i_glide_emodel>  (71) 
-30.5328

>  <r_i_glide_energy>  (71) 
-24.9441

>  <r_i_glide_einternal>  (71) 
0.0632697

>  <r_i_glide_intrahb_reward>  (71) 
-0

>  <i_i_glide_confnum>  (71) 
3

>  <i_i_glide_posenum>  (71) 
1

>  <r_i_glide_eff_state_penalty>  (71) 
0

>  <ligand_id>  (71) 
25

>  <original_smiles>  (71) 
Cc1ccc2[nH]c(-c3snnc3C)nc2c1

>  <smiles>  (71) 
[H]c1c(C([H])([H])[H])c([H])c2nc(-c3snnc3C([H])([H])[H])n([H])c2c1[H]

$$$$
26:0:0
     RDKit          3D

 41 41  0  0  1  0  0  0  0  0999 V2000
    6.4308   -3.0573   -2.0811 C   0  0  0  0  0  0  0  0  0  0  0  0
    5.1305   -3.3987   -1.9744 C   0  0  0  0  0  0  0  0  0  0  0  0
    4.4899   -4.0012   -0.7294 C   0  0  0  0  0  0  0  0  0  0  0  0
    5.3952   -4.9539    0.0743 C   0  0  0  0  0  0  0  0  0  0  0  0
    4.9199   -5.1120    1.5342 C   0  0  2  0  0  0  0  0  0  0  0  0
    6.1017   -5.4315    2.4652 C   0  0  0  0  0  0  0  0  0  0  0  0
    3.7189   -6.0694    1.7092 C   0  0  0  0  0  0  0  0  0  0  0  0
    2.4929   -5.6525    2.1259 C   0  0  0  0  0  0  0  0  0  0  0  0
    2.1793   -4.1932    2.4670 C   0  0  0  0  0  0  0  0  0  0  0  0
    1.3539   -6.6100    2.2752 C   0  0  0  0  0  0  0  0  0  0  0  0
    0.2314   -6.2524    2.6387 O   0  0  0  0  0  0  0  0  0  0  0  0
    1.6281   -8.0307    1.9602 C   0  0  0  0  0  0  0  0  0  0  0  0
    0.5855   -8.8855    2.2088 O   0  0  0  0  0  0  0  0  0  0  0  0
    0.9102  -10.0953    2.8811 C   0  0  0  0  0  0  0  0  0  0  0  0
    2.8481   -8.4437    1.5353 C   0  0  0  0  0  0  0  0  0  0  0  0
    3.9683   -7.5147    1.3856 C   0  0  0  0  0  0  0  0  0  0  0  0
    5.0606   -7.9368    1.0159 O   0  0  0  0  0  0  0  0  0  0  0  0
    4.0724   -3.0624   -3.4129 S   0  0  0  0  0  0  0  0  0  0  0  0
    2.3386   -3.0263   -2.7574 C   0  0  0  0  0  0  0  0  0  0  0  0
    4.4087   -1.7151   -3.9056 O   0  0  0  0  0  0  0  0  0  0  0  0
    4.2196   -4.2119   -4.3194 O   0  0  0  0  0  0  0  0  0  0  0  0
    7.1307   -3.1749   -1.2551 H   0  0  0  0  0  0  0  0  0  0  0  0
    6.8285   -2.6531   -3.0046 H   0  0  0  0  0  0  0  0  0  0  0  0
    4.1477   -3.1561   -0.1263 H   0  0  0  0  0  0  0  0  0  0  0  0
    3.6099   -4.5843   -1.0066 H   0  0  0  0  0  0  0  0  0  0  0  0
    5.4246   -5.9058   -0.4578 H   0  0  0  0  0  0  0  0  0  0  0  0
    6.4224   -4.5962    0.1084 H   0  0  0  0  0  0  0  0  0  0  0  0
    4.6268   -4.1103    1.8522 H   0  0  0  0  0  0  0  0  0  0  0  0
    5.7818   -5.4474    3.5075 H   0  0  0  0  0  0  0  0  0  0  0  0
    6.8706   -4.6646    2.3697 H   0  0  0  0  0  0  0  0  0  0  0  0
    6.5784   -6.3836    2.2335 H   0  0  0  0  0  0  0  0  0  0  0  0
    1.1825   -4.0379    2.8710 H   0  0  0  0  0  0  0  0  0  0  0  0
    2.2694   -3.5777    1.5733 H   0  0  0  0  0  0  0  0  0  0  0  0
    2.8726   -3.8166    3.2176 H   0  0  0  0  0  0  0  0  0  0  0  0
    0.0200  -10.7208    2.9903 H   0  0  0  0  0  0  0  0  0  0  0  0
    1.2848   -9.8455    3.8732 H   0  0  0  0  0  0  0  0  0  0  0  0
    1.6656  -10.6865    2.3681 H   0  0  0  0  0  0  0  0  0  0  0  0
    3.0660   -9.4812    1.3002 H   0  0  0  0  0  0  0  0  0  0  0  0
    1.6544   -2.7699   -3.5666 H   0  0  0  0  0  0  0  0  0  0  0  0
    2.2758   -2.2776   -1.9690 H   0  0  0  0  0  0  0  0  0  0  0  0
    2.0675   -4.0054   -2.3698 H   0  0  0  0  0  0  0  0  0  0  0  0
  1  2  2  0
  1 22  1  0
  1 23  1  0
  2  3  1  0
  2 18  1  0
  3  4  1  0
  3 24  1  0
  3 25  1  0
  4  5  1  0
  4 26  1  0
  4 27  1  0
  5  6  1  0
  5  7  1  0
  5 28  1  1
  6 29  1  0
  6 30  1  0
  6 31  1  0
  7 16  1  0
  7  8  2  0
  8  9  1  0
  8 10  1  0
  9 32  1  0
  9 33  1  0
  9 34  1  0
 10 11  2  0
 10 12  1  0
 12 13  1  0
 12 15  2  0
 13 14  1  0
 14 35  1  0
 14 36  1  0
 14 37  1  0
 15 16  1  0
 15 38  1  0
 16 17  2  0
 18 19  1  0
 18 20  2  0
 18 21  2  0
 19 39  1  0
 19 40  1  0
 19 41  1  0
M  END
>  <i_m_ct_stereo_status>  (72) 
1

>  <s_m_source_file>  (72) 
/var/tmp/pbs.5076255.sched01/tmpbdos_d33/0hajo06zg.sdf

>  <i_m_source_file_index>  (72) 
37

>  <i_lp_mmshare_version>  (72) 
48012

>  <i_f3d_flags>  (72) 
0

>  <s_epik_input>  (72) 
W0NIM11TKD1PKSg9TylDKD1bQ0gyXSlbQ0gyXVtDSDJdW0NASF0oW0NIM10pQzE9QyhbQ0gzXSlDKD1PKUMoT1tDSDNdKT1bQ0hdQzE9Tw==

>  <s_epik_cmdline>  (72) 
J2VwaWtfcHl0aG9uJywgJy1waHQnLCAnMi4wJywgJy1waCcsICc3LjAnLCAnLXRuJywgJzgnLCAnLW1hJywgJzIwMCcsICctaW1hZScsICc8aW5maWxlLm1hZT4nLCAnLW9tYWUnLCAnPG91dGZpbGUubWFlPic=

>  <r_lp_tautomer_probability>  (72) 
1

>  <r_epik_Ionization_Penalty>  (72) 
0

>  <r_epik_Ionization_Penalty_Charging>  (72) 
0

>  <r_epik_Ionization_Penalty_Neutral>  (72) 
0

>  <r_epik_State_Penalty>  (72) 
-0

>  <r_epik_Charging_Adjusted_Penalty>  (72) 
0

>  <i_epik_Tot_Q>  (72) 
0

>  <i_epik_Tot_abs_Q>  (72) 
0

>  <s_lp_Force_Field>  (72) 
OPLS3e

>  <r_lp_Energy>  (72) 
19.8945

>  <b_lp_Chiralities_Consistent>  (72) 
1

>  <s_lp_Variant>  (72) 
26:0-1

>  <s_i_glide_gridfile>  (72) 
pfpi4k_grid

>  <i_i_glide_lignum>  (72) 
37

>  <i_i_glide_rotatable_bonds>  (72) 
6

>  <r_i_docking_score>  (72) 
-3.90334

>  <r_i_glide_ligand_efficiency>  (72) 
-0.185873

>  <r_i_glide_ligand_efficiency_sa>  (72) 
-0.512811

>  <r_i_glide_ligand_efficiency_ln>  (72) 
-0.965093

>  <r_i_glide_gscore>  (72) 
-3.90334

>  <r_i_glide_lipo>  (72) 
-0.550383

>  <r_i_glide_hbond>  (72) 
-0.136095

>  <r_i_glide_metal>  (72) 
-0

>  <r_i_glide_rewards>  (72) 
-1.58062

>  <r_i_glide_evdw>  (72) 
-26.5383

>  <r_i_glide_ecoul>  (72) 
-7.70755

>  <r_i_glide_erotb>  (72) 
0.950932

>  <r_i_glide_esite>  (72) 
-0.104126

>  <r_i_glide_emodel>  (72) 
-39.6917

>  <r_i_glide_energy>  (72) 
-34.2459

>  <r_i_glide_einternal>  (72) 
5.18221

>  <r_i_glide_intrahb_reward>  (72) 
-0

>  <i_i_glide_confnum>  (72) 
1

>  <i_i_glide_posenum>  (72) 
36

>  <r_i_glide_eff_state_penalty>  (72) 
0

>  <ligand_id>  (72) 
26

>  <original_smiles>  (72) 
C=C(CCC(C)C1=C(C)C(=O)C(OC)=CC1=O)S(C)(=O)=O

>  <smiles>  (72) 
[H]C([H])=C(C([H])([H])C([H])([H])C([H])(C1=C(C([H])([H])[H])C(=O)C(OC([H])([H])[H])=C([H])C1=O)C([H])([H])[H])S(=O)(=O)C([H])([H])[H]

$$$$
26:0:1
     RDKit          3D

 41 41  0  0  1  0  0  0  0  0999 V2000
    1.7064   -4.6221    3.6501 C   0  0  0  0  0  0  0  0  0  0  0  0
    2.0033   -5.1708    2.4605 C   0  0  0  0  0  0  0  0  0  0  0  0
    3.1162   -4.6946    1.5550 C   0  0  0  0  0  0  0  0  0  0  0  0
    3.7674   -3.3372    1.9080 C   0  0  0  0  0  0  0  0  0  0  0  0
    5.0073   -2.9947    1.0581 C   0  0  2  0  0  0  0  0  0  0  0  0
    5.9295   -1.9762    1.7825 C   0  0  0  0  0  0  0  0  0  0  0  0
    4.6306   -2.6426   -0.3950 C   0  0  0  0  0  0  0  0  0  0  0  0
    4.6543   -3.5434   -1.4265 C   0  0  0  0  0  0  0  0  0  0  0  0
    5.0207   -5.0029   -1.2020 C   0  0  0  0  0  0  0  0  0  0  0  0
    4.3290   -3.1340   -2.8474 C   0  0  0  0  0  0  0  0  0  0  0  0
    4.4056   -3.8941   -3.8014 O   0  0  0  0  0  0  0  0  0  0  0  0
    3.9751   -1.7387   -3.0954 C   0  0  0  0  0  0  0  0  0  0  0  0
    3.6792   -1.3696   -4.3989 O   0  0  0  0  0  0  0  0  0  0  0  0
    3.3394   -0.0028   -4.6281 C   0  0  0  0  0  0  0  0  0  0  0  0
    4.0043   -0.8773   -2.0743 C   0  0  0  0  0  0  0  0  0  0  0  0
    4.2789   -1.2384   -0.6925 C   0  0  0  0  0  0  0  0  0  0  0  0
    4.2100   -0.3510    0.1488 O   0  0  0  0  0  0  0  0  0  0  0  0
    0.9665   -6.5440    1.8746 S   0  0  0  0  0  0  0  0  0  0  0  0
    2.0847   -8.0136    1.9346 C   0  0  0  0  0  0  0  0  0  0  0  0
   -0.1265   -6.7240    2.8481 O   0  0  0  0  0  0  0  0  0  0  0  0
    0.6218   -6.2653    0.4781 O   0  0  0  0  0  0  0  0  0  0  0  0
    2.2723   -3.7895    4.0490 H   0  0  0  0  0  0  0  0  0  0  0  0
    0.8941   -4.9789    4.2595 H   0  0  0  0  0  0  0  0  0  0  0  0
    3.8746   -5.4770    1.5618 H   0  0  0  0  0  0  0  0  0  0  0  0
    2.6878   -4.6264    0.5539 H   0  0  0  0  0  0  0  0  0  0  0  0
    3.0241   -2.5391    1.8401 H   0  0  0  0  0  0  0  0  0  0  0  0
    4.1129   -3.3864    2.9368 H   0  0  0  0  0  0  0  0  0  0  0  0
    5.6286   -3.8886    1.0324 H   0  0  0  0  0  0  0  0  0  0  0  0
    6.8224   -1.7677    1.1874 H   0  0  0  0  0  0  0  0  0  0  0  0
    6.2352   -2.3637    2.7506 H   0  0  0  0  0  0  0  0  0  0  0  0
    5.4595   -1.0265    2.0365 H   0  0  0  0  0  0  0  0  0  0  0  0
    5.0139   -5.5367   -2.1424 H   0  0  0  0  0  0  0  0  0  0  0  0
    4.2616   -5.5425   -0.6427 H   0  0  0  0  0  0  0  0  0  0  0  0
    5.9708   -5.1127   -0.6738 H   0  0  0  0  0  0  0  0  0  0  0  0
    3.1356    0.2098   -5.6753 H   0  0  0  0  0  0  0  0  0  0  0  0
    4.1651    0.6438   -4.3275 H   0  0  0  0  0  0  0  0  0  0  0  0
    2.4549    0.2713   -4.0476 H   0  0  0  0  0  0  0  0  0  0  0  0
    3.8399    0.1594   -2.2079 H   0  0  0  0  0  0  0  0  0  0  0  0
    1.5263   -8.8955    1.6228 H   0  0  0  0  0  0  0  0  0  0  0  0
    2.4412   -8.1429    2.9478 H   0  0  0  0  0  0  0  0  0  0  0  0
    2.9208   -7.8572    1.2647 H   0  0  0  0  0  0  0  0  0  0  0  0
  1  2  2  0
  1 22  1  0
  1 23  1  0
  2  3  1  0
  2 18  1  0
  3  4  1  0
  3 24  1  0
  3 25  1  0
  4  5  1  0
  4 26  1  0
  4 27  1  0
  5  6  1  0
  5  7  1  0
  5 28  1  6
  6 29  1  0
  6 30  1  0
  6 31  1  0
  7 16  1  0
  7  8  2  0
  8  9  1  0
  8 10  1  0
  9 32  1  0
  9 33  1  0
  9 34  1  0
 10 11  2  0
 10 12  1  0
 12 13  1  0
 12 15  2  0
 13 14  1  0
 14 35  1  0
 14 36  1  0
 14 37  1  0
 15 16  1  0
 15 38  1  0
 16 17  2  0
 18 19  1  0
 18 20  2  0
 18 21  2  0
 19 39  1  0
 19 40  1  0
 19 41  1  0
M  END
>  <i_m_ct_stereo_status>  (73) 
1

>  <s_m_source_file>  (73) 
/var/tmp/pbs.5076255.sched01/tmpbdos_d33/0hajo06zg.sdf

>  <i_m_source_file_index>  (73) 
37

>  <i_lp_mmshare_version>  (73) 
48012

>  <i_f3d_flags>  (73) 
0

>  <s_epik_input>  (73) 
W0NIM11TKD1PKSg9TylDKD1bQ0gyXSlbQ0gyXVtDSDJdW0NASF0oW0NIM10pQzE9QyhbQ0gzXSlDKD1PKUMoT1tDSDNdKT1bQ0hdQzE9Tw==

>  <s_epik_cmdline>  (73) 
J2VwaWtfcHl0aG9uJywgJy1waHQnLCAnMi4wJywgJy1waCcsICc3LjAnLCAnLXRuJywgJzgnLCAnLW1hJywgJzIwMCcsICctaW1hZScsICc8aW5maWxlLm1hZT4nLCAnLW9tYWUnLCAnPG91dGZpbGUubWFlPic=

>  <r_lp_tautomer_probability>  (73) 
1

>  <r_epik_Ionization_Penalty>  (73) 
0

>  <r_epik_Ionization_Penalty_Charging>  (73) 
0

>  <r_epik_Ionization_Penalty_Neutral>  (73) 
0

>  <r_epik_State_Penalty>  (73) 
-0

>  <r_epik_Charging_Adjusted_Penalty>  (73) 
0

>  <i_epik_Tot_Q>  (73) 
0

>  <i_epik_Tot_abs_Q>  (73) 
0

>  <s_lp_Force_Field>  (73) 
OPLS3e

>  <r_lp_Energy>  (73) 
19.8945

>  <b_lp_Chiralities_Consistent>  (73) 
1

>  <s_lp_Variant>  (73) 
26:0-1

>  <s_i_glide_gridfile>  (73) 
pfpi4k_grid

>  <i_i_glide_lignum>  (73) 
37

>  <i_i_glide_rotatable_bonds>  (73) 
6

>  <r_i_docking_score>  (73) 
-3.67847

>  <r_i_glide_ligand_efficiency>  (73) 
-0.175165

>  <r_i_glide_ligand_efficiency_sa>  (73) 
-0.483268

>  <r_i_glide_ligand_efficiency_ln>  (73) 
-0.909494

>  <r_i_glide_gscore>  (73) 
-3.67847

>  <r_i_glide_lipo>  (73) 
-0.422655

>  <r_i_glide_hbond>  (73) 
-0.269319

>  <r_i_glide_metal>  (73) 
-0

>  <r_i_glide_rewards>  (73) 
-1.32746

>  <r_i_glide_evdw>  (73) 
-25.2728

>  <r_i_glide_ecoul>  (73) 
-6.91285

>  <r_i_glide_erotb>  (73) 
0.950932

>  <r_i_glide_esite>  (73) 
-0.309402

>  <r_i_glide_emodel>  (73) 
-36.9281

>  <r_i_glide_energy>  (73) 
-32.1857

>  <r_i_glide_einternal>  (73) 
4.95955

>  <r_i_glide_intrahb_reward>  (73) 
-0

>  <i_i_glide_confnum>  (73) 
1

>  <i_i_glide_posenum>  (73) 
11

>  <r_i_glide_eff_state_penalty>  (73) 
0

>  <ligand_id>  (73) 
26

>  <original_smiles>  (73) 
C=C(CCC(C)C1=C(C)C(=O)C(OC)=CC1=O)S(C)(=O)=O

>  <smiles>  (73) 
[H]C([H])=C(C([H])([H])C([H])([H])C([H])(C1=C(C([H])([H])[H])C(=O)C(OC([H])([H])[H])=C([H])C1=O)C([H])([H])[H])S(=O)(=O)C([H])([H])[H]

$$$$
26:0:2
     RDKit          3D

 41 41  0  0  1  0  0  0  0  0999 V2000
    0.7661   -2.6535    3.4543 C   0  0  0  0  0  0  0  0  0  0  0  0
    1.6572   -1.8920    2.7888 C   0  0  0  0  0  0  0  0  0  0  0  0
    2.5471   -2.4903    1.7068 C   0  0  0  0  0  0  0  0  0  0  0  0
    4.0404   -2.3911    2.0601 C   0  0  0  0  0  0  0  0  0  0  0  0
    4.9597   -3.0624    1.0174 C   0  0  2  0  0  0  0  0  0  0  0  0
    6.4314   -2.9691    1.4415 C   0  0  0  0  0  0  0  0  0  0  0  0
    4.7961   -2.5948   -0.4547 C   0  0  0  0  0  0  0  0  0  0  0  0
    4.7992   -3.4826   -1.4804 C   0  0  0  0  0  0  0  0  0  0  0  0
    4.9790   -4.9732   -1.2298 C   0  0  0  0  0  0  0  0  0  0  0  0
    4.6164   -3.0435   -2.9168 C   0  0  0  0  0  0  0  0  0  0  0  0
    4.6217   -3.8368   -3.8619 O   0  0  0  0  0  0  0  0  0  0  0  0
    4.4239   -1.5697   -3.1473 C   0  0  0  0  0  0  0  0  0  0  0  0
    4.1490   -1.2045   -4.4569 O   0  0  0  0  0  0  0  0  0  0  0  0
    3.1903   -0.1750   -4.6598 C   0  0  0  0  0  0  0  0  0  0  0  0
    4.4506   -0.7032   -2.1241 C   0  0  0  0  0  0  0  0  0  0  0  0
    4.6655   -1.1265   -0.7319 C   0  0  0  0  0  0  0  0  0  0  0  0
    4.7463   -0.2830    0.1470 O   0  0  0  0  0  0  0  0  0  0  0  0
    1.7007   -0.1038    3.2024 S   0  0  0  0  0  0  0  0  0  0  0  0
    1.2925    0.6974    1.6265 C   0  0  0  0  0  0  0  0  0  0  0  0
    0.6140    0.1505    4.1527 O   0  0  0  0  0  0  0  0  0  0  0  0
    3.0806    0.2538    3.5756 O   0  0  0  0  0  0  0  0  0  0  0  0
    0.6586   -3.7127    3.2443 H   0  0  0  0  0  0  0  0  0  0  0  0
    0.1128   -2.2322    4.2065 H   0  0  0  0  0  0  0  0  0  0  0  0
    2.2722   -3.5374    1.5395 H   0  0  0  0  0  0  0  0  0  0  0  0
    2.3028   -1.9909    0.7684 H   0  0  0  0  0  0  0  0  0  0  0  0
    4.3480   -1.3564    2.1859 H   0  0  0  0  0  0  0  0  0  0  0  0
    4.1953   -2.8324    3.0485 H   0  0  0  0  0  0  0  0  0  0  0  0
    4.6931   -4.1218    1.0808 H   0  0  0  0  0  0  0  0  0  0  0  0
    7.0843   -3.5466    0.7821 H   0  0  0  0  0  0  0  0  0  0  0  0
    6.5264   -3.3839    2.4428 H   0  0  0  0  0  0  0  0  0  0  0  0
    6.7945   -1.9372    1.4548 H   0  0  0  0  0  0  0  0  0  0  0  0
    5.0274   -5.5014   -2.1670 H   0  0  0  0  0  0  0  0  0  0  0  0
    4.1325   -5.3837   -0.6875 H   0  0  0  0  0  0  0  0  0  0  0  0
    5.8817   -5.1795   -0.6561 H   0  0  0  0  0  0  0  0  0  0  0  0
    3.1424    0.0909   -5.7151 H   0  0  0  0  0  0  0  0  0  0  0  0
    3.4001    0.7440   -4.1239 H   0  0  0  0  0  0  0  0  0  0  0  0
    2.2144   -0.5509   -4.3572 H   0  0  0  0  0  0  0  0  0  0  0  0
    4.2993    0.3512   -2.2448 H   0  0  0  0  0  0  0  0  0  0  0  0
    1.3147    1.7812    1.7391 H   0  0  0  0  0  0  0  0  0  0  0  0
    0.2980    0.3837    1.3046 H   0  0  0  0  0  0  0  0  0  0  0  0
    2.0083    0.3912    0.8641 H   0  0  0  0  0  0  0  0  0  0  0  0
  1  2  2  0
  1 22  1  0
  1 23  1  0
  2  3  1  0
  2 18  1  0
  3  4  1  0
  3 24  1  0
  3 25  1  0
  4  5  1  0
  4 26  1  0
  4 27  1  0
  5  6  1  0
  5  7  1  0
  5 28  1  6
  6 29  1  0
  6 30  1  0
  6 31  1  0
  7 16  1  0
  7  8  2  0
  8  9  1  0
  8 10  1  0
  9 32  1  0
  9 33  1  0
  9 34  1  0
 10 11  2  0
 10 12  1  0
 12 13  1  0
 12 15  2  0
 13 14  1  0
 14 35  1  0
 14 36  1  0
 14 37  1  0
 15 16  1  0
 15 38  1  0
 16 17  2  0
 18 19  1  0
 18 20  2  0
 18 21  2  0
 19 39  1  0
 19 40  1  0
 19 41  1  0
M  END
>  <i_m_ct_stereo_status>  (74) 
1

>  <s_m_source_file>  (74) 
/var/tmp/pbs.5076255.sched01/tmpbdos_d33/0hajo06zg.sdf

>  <i_m_source_file_index>  (74) 
37

>  <i_lp_mmshare_version>  (74) 
48012

>  <i_f3d_flags>  (74) 
0

>  <s_epik_input>  (74) 
W0NIM11TKD1PKSg9TylDKD1bQ0gyXSlbQ0gyXVtDSDJdW0NASF0oW0NIM10pQzE9QyhbQ0gzXSlDKD1PKUMoT1tDSDNdKT1bQ0hdQzE9Tw==

>  <s_epik_cmdline>  (74) 
J2VwaWtfcHl0aG9uJywgJy1waHQnLCAnMi4wJywgJy1waCcsICc3LjAnLCAnLXRuJywgJzgnLCAnLW1hJywgJzIwMCcsICctaW1hZScsICc8aW5maWxlLm1hZT4nLCAnLW9tYWUnLCAnPG91dGZpbGUubWFlPic=

>  <r_lp_tautomer_probability>  (74) 
1

>  <r_epik_Ionization_Penalty>  (74) 
0

>  <r_epik_Ionization_Penalty_Charging>  (74) 
0

>  <r_epik_Ionization_Penalty_Neutral>  (74) 
0

>  <r_epik_State_Penalty>  (74) 
-0

>  <r_epik_Charging_Adjusted_Penalty>  (74) 
0

>  <i_epik_Tot_Q>  (74) 
0

>  <i_epik_Tot_abs_Q>  (74) 
0

>  <s_lp_Force_Field>  (74) 
OPLS3e

>  <r_lp_Energy>  (74) 
19.8945

>  <b_lp_Chiralities_Consistent>  (74) 
1

>  <s_lp_Variant>  (74) 
26:0-1

>  <s_i_glide_gridfile>  (74) 
pfpi4k_grid

>  <i_i_glide_lignum>  (74) 
37

>  <i_i_glide_rotatable_bonds>  (74) 
6

>  <r_i_docking_score>  (74) 
-3.15781

>  <r_i_glide_ligand_efficiency>  (74) 
-0.150372

>  <r_i_glide_ligand_efficiency_sa>  (74) 
-0.414864

>  <r_i_glide_ligand_efficiency_ln>  (74) 
-0.780761

>  <r_i_glide_gscore>  (74) 
-3.15781

>  <r_i_glide_lipo>  (74) 
-0.478067

>  <r_i_glide_hbond>  (74) 
-0.28855

>  <r_i_glide_metal>  (74) 
-0

>  <r_i_glide_rewards>  (74) 
-1.43021

>  <r_i_glide_evdw>  (74) 
-25.6027

>  <r_i_glide_ecoul>  (74) 
-3.81252

>  <r_i_glide_erotb>  (74) 
0.950932

>  <r_i_glide_esite>  (74) 
-0.0598936

>  <r_i_glide_emodel>  (74) 
-34.5413

>  <r_i_glide_energy>  (74) 
-29.4153

>  <r_i_glide_einternal>  (74) 
2.96972

>  <r_i_glide_intrahb_reward>  (74) 
-0

>  <i_i_glide_confnum>  (74) 
4

>  <i_i_glide_posenum>  (74) 
34

>  <r_i_glide_eff_state_penalty>  (74) 
0

>  <ligand_id>  (74) 
26

>  <original_smiles>  (74) 
C=C(CCC(C)C1=C(C)C(=O)C(OC)=CC1=O)S(C)(=O)=O

>  <smiles>  (74) 
[H]C([H])=C(C([H])([H])C([H])([H])C([H])(C1=C(C([H])([H])[H])C(=O)C(OC([H])([H])[H])=C([H])C1=O)C([H])([H])[H])S(=O)(=O)C([H])([H])[H]

$$$$
27:0:0
     RDKit          3D

 17 18  0  0  1  0  0  0  0  0999 V2000
    6.6768   -2.2610   -1.0254 O   0  0  0  0  0  0  0  0  0  0  0  0
    5.5300   -2.6096   -0.7444 C   0  0  0  0  0  0  0  0  0  0  0  0
    5.1438   -2.9514    0.5637 N   0  0  0  0  0  0  0  0  0  0  0  0
    3.9231   -3.3056    0.7648 C   0  0  0  0  0  0  0  0  0  0  0  0
    2.8733   -3.4012   -0.2245 N   0  0  0  0  0  0  0  0  0  0  0  0
    3.2704   -3.0631   -1.4085 C   0  0  0  0  0  0  0  0  0  0  0  0
    4.5740   -2.6752   -1.7129 N   0  0  0  0  0  0  0  0  0  0  0  0
    4.7492   -2.3881   -3.1262 C   0  0  0  0  0  0  0  0  0  0  0  0
    3.5109   -2.9871   -3.7981 C   0  0  0  0  0  0  0  0  0  0  0  0
    2.4669   -3.0561   -2.6836 C   0  0  0  0  0  0  0  0  0  0  0  0
    3.6573   -3.5596    1.7943 H   0  0  0  0  0  0  0  0  0  0  0  0
    4.7829   -1.3068   -3.2650 H   0  0  0  0  0  0  0  0  0  0  0  0
    5.6720   -2.8198   -3.5148 H   0  0  0  0  0  0  0  0  0  0  0  0
    3.1718   -2.4123   -4.6606 H   0  0  0  0  0  0  0  0  0  0  0  0
    3.7401   -3.9998   -4.1346 H   0  0  0  0  0  0  0  0  0  0  0  0
    1.8324   -3.9383   -2.7583 H   0  0  0  0  0  0  0  0  0  0  0  0
    1.8227   -2.1779   -2.6951 H   0  0  0  0  0  0  0  0  0  0  0  0
  1  2  2  0
  2  7  1  0
  2  3  1  0
  3  4  2  0
  4  5  1  0
  4 11  1  0
  5  6  2  0
  6 10  1  0
  6  7  1  0
  7  8  1  0
  8  9  1  0
  8 12  1  0
  8 13  1  0
  9 10  1  0
  9 14  1  0
  9 15  1  0
 10 16  1  0
 10 17  1  0
M  END
>  <i_m_ct_stereo_status>  (75) 
1

>  <s_m_source_file>  (75) 
/var/tmp/pbs.5076255.sched01/tmpbdos_d33/0hajo06zg.sdf

>  <i_m_source_file_index>  (75) 
38

>  <i_lp_mmshare_version>  (75) 
48012

>  <i_f3d_flags>  (75) 
0

>  <s_epik_input>  (75) 
bjFbY0hdbmMoPU8pbihjMTIpW0NIMl1bQ0gyXVtDSDJdMg==

>  <s_epik_cmdline>  (75) 
J2VwaWtfcHl0aG9uJywgJy1waHQnLCAnMi4wJywgJy1waCcsICc3LjAnLCAnLXRuJywgJzgnLCAnLW1hJywgJzIwMCcsICctaW1hZScsICc8aW5maWxlLm1hZT4nLCAnLW9tYWUnLCAnPG91dGZpbGUubWFlPic=

>  <r_lp_tautomer_probability>  (75) 
1

>  <r_epik_Ionization_Penalty>  (75) 
7.34528e-05

>  <r_epik_Ionization_Penalty_Charging>  (75) 
0

>  <r_epik_Ionization_Penalty_Neutral>  (75) 
7.34528e-05

>  <r_epik_State_Penalty>  (75) 
-0

>  <r_epik_Charging_Adjusted_Penalty>  (75) 
0

>  <i_epik_Tot_Q>  (75) 
0

>  <i_epik_Tot_abs_Q>  (75) 
0

>  <s_lp_Force_Field>  (75) 
OPLS3e

>  <r_lp_Energy>  (75) 
28.0857

>  <b_lp_Chiralities_Consistent>  (75) 
1

>  <s_lp_Variant>  (75) 
27:0-1

>  <s_i_glide_gridfile>  (75) 
pfpi4k_grid

>  <i_i_glide_lignum>  (75) 
38

>  <i_i_glide_rotatable_bonds>  (75) 
0

>  <r_i_docking_score>  (75) 
-3.8387

>  <r_i_glide_ligand_efficiency>  (75) 
-0.38387

>  <r_i_glide_ligand_efficiency_sa>  (75) 
-0.827023

>  <r_i_glide_ligand_efficiency_ln>  (75) 
-1.16233

>  <r_i_glide_gscore>  (75) 
-3.8387

>  <r_i_glide_lipo>  (75) 
-0.288924

>  <r_i_glide_hbond>  (75) 
-0.140671

>  <r_i_glide_metal>  (75) 
-0

>  <r_i_glide_rewards>  (75) 
-2.26661

>  <r_i_glide_evdw>  (75) 
-18.0621

>  <r_i_glide_ecoul>  (75) 
-1.46737

>  <r_i_glide_erotb>  (75) 
0

>  <r_i_glide_esite>  (75) 
-0.0192826

>  <r_i_glide_emodel>  (75) 
-24.3437

>  <r_i_glide_energy>  (75) 
-19.5295

>  <r_i_glide_einternal>  (75) 
0

>  <r_i_glide_intrahb_reward>  (75) 
-0

>  <i_i_glide_confnum>  (75) 
1

>  <i_i_glide_posenum>  (75) 
16

>  <r_i_glide_eff_state_penalty>  (75) 
0

>  <ligand_id>  (75) 
27

>  <original_smiles>  (75) 
O=c1ncnc2n1CCC2

>  <smiles>  (75) 
[H]c1nc2n(c(=O)n1)C([H])([H])C([H])([H])C2([H])[H]

$$$$
27:0:1
     RDKit          3D

 17 18  0  0  1  0  0  0  0  0999 V2000
    5.6241   -1.0743   -0.4180 O   0  0  0  0  0  0  0  0  0  0  0  0
    4.7192   -1.9084   -0.4460 C   0  0  0  0  0  0  0  0  0  0  0  0
    4.3826   -2.6933    0.6717 N   0  0  0  0  0  0  0  0  0  0  0  0
    3.4230   -3.5431    0.5531 C   0  0  0  0  0  0  0  0  0  0  0  0
    2.6272   -3.7947   -0.6273 N   0  0  0  0  0  0  0  0  0  0  0  0
    2.9787   -3.0565   -1.6321 C   0  0  0  0  0  0  0  0  0  0  0  0
    4.0032   -2.1123   -1.5880 N   0  0  0  0  0  0  0  0  0  0  0  0
    4.1792   -1.4260   -2.8583 C   0  0  0  0  0  0  0  0  0  0  0  0
    3.4146   -2.2871   -3.8666 C   0  0  0  0  0  0  0  0  0  0  0  0
    2.3952   -3.0534   -3.0218 C   0  0  0  0  0  0  0  0  0  0  0  0
    3.1911   -4.1366    1.4397 H   0  0  0  0  0  0  0  0  0  0  0  0
    3.7500   -0.4244   -2.7889 H   0  0  0  0  0  0  0  0  0  0  0  0
    5.2309   -1.3373   -3.1202 H   0  0  0  0  0  0  0  0  0  0  0  0
    2.9592   -1.6975   -4.6621 H   0  0  0  0  0  0  0  0  0  0  0  0
    4.1008   -3.0029   -4.3219 H   0  0  0  0  0  0  0  0  0  0  0  0
    2.2238   -4.0610   -3.3954 H   0  0  0  0  0  0  0  0  0  0  0  0
    1.4335   -2.5449   -2.9971 H   0  0  0  0  0  0  0  0  0  0  0  0
  1  2  2  0
  2  7  1  0
  2  3  1  0
  3  4  2  0
  4  5  1  0
  4 11  1  0
  5  6  2  0
  6 10  1  0
  6  7  1  0
  7  8  1  0
  8  9  1  0
  8 12  1  0
  8 13  1  0
  9 10  1  0
  9 14  1  0
  9 15  1  0
 10 16  1  0
 10 17  1  0
M  END
>  <i_m_ct_stereo_status>  (76) 
1

>  <s_m_source_file>  (76) 
/var/tmp/pbs.5076255.sched01/tmpbdos_d33/0hajo06zg.sdf

>  <i_m_source_file_index>  (76) 
38

>  <i_lp_mmshare_version>  (76) 
48012

>  <i_f3d_flags>  (76) 
0

>  <s_epik_input>  (76) 
bjFbY0hdbmMoPU8pbihjMTIpW0NIMl1bQ0gyXVtDSDJdMg==

>  <s_epik_cmdline>  (76) 
J2VwaWtfcHl0aG9uJywgJy1waHQnLCAnMi4wJywgJy1waCcsICc3LjAnLCAnLXRuJywgJzgnLCAnLW1hJywgJzIwMCcsICctaW1hZScsICc8aW5maWxlLm1hZT4nLCAnLW9tYWUnLCAnPG91dGZpbGUubWFlPic=

>  <r_lp_tautomer_probability>  (76) 
1

>  <r_epik_Ionization_Penalty>  (76) 
7.34528e-05

>  <r_epik_Ionization_Penalty_Charging>  (76) 
0

>  <r_epik_Ionization_Penalty_Neutral>  (76) 
7.34528e-05

>  <r_epik_State_Penalty>  (76) 
-0

>  <r_epik_Charging_Adjusted_Penalty>  (76) 
0

>  <i_epik_Tot_Q>  (76) 
0

>  <i_epik_Tot_abs_Q>  (76) 
0

>  <s_lp_Force_Field>  (76) 
OPLS3e

>  <r_lp_Energy>  (76) 
28.0857

>  <b_lp_Chiralities_Consistent>  (76) 
1

>  <s_lp_Variant>  (76) 
27:0-1

>  <s_i_glide_gridfile>  (76) 
pfpi4k_grid

>  <i_i_glide_lignum>  (76) 
38

>  <i_i_glide_rotatable_bonds>  (76) 
0

>  <r_i_docking_score>  (76) 
-3.61042

>  <r_i_glide_ligand_efficiency>  (76) 
-0.361042

>  <r_i_glide_ligand_efficiency_sa>  (76) 
-0.777841

>  <r_i_glide_ligand_efficiency_ln>  (76) 
-1.09321

>  <r_i_glide_gscore>  (76) 
-3.61042

>  <r_i_glide_lipo>  (76) 
-0.248538

>  <r_i_glide_hbond>  (76) 
0

>  <r_i_glide_metal>  (76) 
-0

>  <r_i_glide_rewards>  (76) 
-2.27976

>  <r_i_glide_evdw>  (76) 
-17.8907

>  <r_i_glide_ecoul>  (76) 
-0.843334

>  <r_i_glide_erotb>  (76) 
0

>  <r_i_glide_esite>  (76) 
-0.0610821

>  <r_i_glide_emodel>  (76) 
-23.2599

>  <r_i_glide_energy>  (76) 
-18.7341

>  <r_i_glide_einternal>  (76) 
0

>  <r_i_glide_intrahb_reward>  (76) 
-0

>  <i_i_glide_confnum>  (76) 
2

>  <i_i_glide_posenum>  (76) 
28

>  <r_i_glide_eff_state_penalty>  (76) 
0

>  <ligand_id>  (76) 
27

>  <original_smiles>  (76) 
O=c1ncnc2n1CCC2

>  <smiles>  (76) 
[H]c1nc2n(c(=O)n1)C([H])([H])C([H])([H])C2([H])[H]

$$$$
27:0:2
     RDKit          3D

 17 18  0  0  1  0  0  0  0  0999 V2000
    0.1963   -6.6934    0.9224 O   0  0  0  0  0  0  0  0  0  0  0  0
   -0.1696   -7.1648    1.9988 C   0  0  0  0  0  0  0  0  0  0  0  0
   -1.0974   -8.2167    2.0853 N   0  0  0  0  0  0  0  0  0  0  0  0
   -1.4389   -8.6375    3.2516 C   0  0  0  0  0  0  0  0  0  0  0  0
   -0.9828   -8.1223    4.5204 N   0  0  0  0  0  0  0  0  0  0  0  0
   -0.1288   -7.1599    4.3959 C   0  0  0  0  0  0  0  0  0  0  0  0
    0.2925   -6.6469    3.1701 N   0  0  0  0  0  0  0  0  0  0  0  0
    1.2313   -5.5447    3.3235 C   0  0  0  0  0  0  0  0  0  0  0  0
    1.0975   -5.1329    4.7935 C   0  0  0  0  0  0  0  0  0  0  0  0
    0.5398   -6.3739    5.4937 C   0  0  0  0  0  0  0  0  0  0  0  0
   -2.1590   -9.4587    3.2787 H   0  0  0  0  0  0  0  0  0  0  0  0
    2.2387   -5.9059    3.1099 H   0  0  0  0  0  0  0  0  0  0  0  0
    1.0159   -4.7134    2.6512 H   0  0  0  0  0  0  0  0  0  0  0  0
    2.0378   -4.7859    5.2241 H   0  0  0  0  0  0  0  0  0  0  0  0
    0.3720   -4.3209    4.8736 H   0  0  0  0  0  0  0  0  0  0  0  0
   -0.1638   -6.1183    6.2866 H   0  0  0  0  0  0  0  0  0  0  0  0
    1.3396   -6.9784    5.9233 H   0  0  0  0  0  0  0  0  0  0  0  0
  1  2  2  0
  2  7  1  0
  2  3  1  0
  3  4  2  0
  4  5  1  0
  4 11  1  0
  5  6  2  0
  6 10  1  0
  6  7  1  0
  7  8  1  0
  8  9  1  0
  8 12  1  0
  8 13  1  0
  9 10  1  0
  9 14  1  0
  9 15  1  0
 10 16  1  0
 10 17  1  0
M  END
>  <i_m_ct_stereo_status>  (77) 
1

>  <s_m_source_file>  (77) 
/var/tmp/pbs.5076255.sched01/tmpbdos_d33/0hajo06zg.sdf

>  <i_m_source_file_index>  (77) 
38

>  <i_lp_mmshare_version>  (77) 
48012

>  <i_f3d_flags>  (77) 
0

>  <s_epik_input>  (77) 
bjFbY0hdbmMoPU8pbihjMTIpW0NIMl1bQ0gyXVtDSDJdMg==

>  <s_epik_cmdline>  (77) 
J2VwaWtfcHl0aG9uJywgJy1waHQnLCAnMi4wJywgJy1waCcsICc3LjAnLCAnLXRuJywgJzgnLCAnLW1hJywgJzIwMCcsICctaW1hZScsICc8aW5maWxlLm1hZT4nLCAnLW9tYWUnLCAnPG91dGZpbGUubWFlPic=

>  <r_lp_tautomer_probability>  (77) 
1

>  <r_epik_Ionization_Penalty>  (77) 
7.34528e-05

>  <r_epik_Ionization_Penalty_Charging>  (77) 
0

>  <r_epik_Ionization_Penalty_Neutral>  (77) 
7.34528e-05

>  <r_epik_State_Penalty>  (77) 
-0

>  <r_epik_Charging_Adjusted_Penalty>  (77) 
0

>  <i_epik_Tot_Q>  (77) 
0

>  <i_epik_Tot_abs_Q>  (77) 
0

>  <s_lp_Force_Field>  (77) 
OPLS3e

>  <r_lp_Energy>  (77) 
28.0857

>  <b_lp_Chiralities_Consistent>  (77) 
1

>  <s_lp_Variant>  (77) 
27:0-1

>  <s_i_glide_gridfile>  (77) 
pfpi4k_grid

>  <i_i_glide_lignum>  (77) 
38

>  <i_i_glide_rotatable_bonds>  (77) 
0

>  <r_i_docking_score>  (77) 
-3.54289

>  <r_i_glide_ligand_efficiency>  (77) 
-0.354289

>  <r_i_glide_ligand_efficiency_sa>  (77) 
-0.763292

>  <r_i_glide_ligand_efficiency_ln>  (77) 
-1.07276

>  <r_i_glide_gscore>  (77) 
-3.54289

>  <r_i_glide_lipo>  (77) 
0

>  <r_i_glide_hbond>  (77) 
-0.147033

>  <r_i_glide_metal>  (77) 
-0

>  <r_i_glide_rewards>  (77) 
-2.25

>  <r_i_glide_evdw>  (77) 
-16.6073

>  <r_i_glide_ecoul>  (77) 
-0.414447

>  <r_i_glide_erotb>  (77) 
0

>  <r_i_glide_esite>  (77) 
-0.253323

>  <r_i_glide_emodel>  (77) 
-21.4613

>  <r_i_glide_energy>  (77) 
-17.0217

>  <r_i_glide_einternal>  (77) 
0

>  <r_i_glide_intrahb_reward>  (77) 
-0

>  <i_i_glide_confnum>  (77) 
1

>  <i_i_glide_posenum>  (77) 
3

>  <r_i_glide_eff_state_penalty>  (77) 
0

>  <ligand_id>  (77) 
27

>  <original_smiles>  (77) 
O=c1ncnc2n1CCC2

>  <smiles>  (77) 
[H]c1nc2n(c(=O)n1)C([H])([H])C([H])([H])C2([H])[H]

$$$$
28:0:0
     RDKit          3D

 24 26  0  0  1  0  0  0  0  0999 V2000
    3.5232    0.1737   -4.4954 C   0  0  0  0  0  0  0  0  0  0  0  0
    3.8468   -1.0052   -3.7135 N   0  0  0  0  0  0  0  0  0  0  0  0
    4.2105   -1.0980   -2.3834 C   0  0  0  0  0  0  0  0  0  0  0  0
    4.4053   -2.4284   -2.1260 C   0  0  0  0  0  0  0  0  0  0  0  0
    4.8047   -3.0668   -0.8523 C   0  0  0  0  0  0  0  0  0  0  0  0
    5.1054   -2.3123    0.3177 C   0  0  0  0  0  0  0  0  0  0  0  0
    5.4749   -2.8186    1.4924 N   0  0  0  0  0  0  0  0  0  0  0  0
    5.5559   -4.1560    1.5780 C   0  0  0  0  0  0  0  0  0  0  0  0
    5.8838   -5.0180    2.5858 C   0  0  0  0  0  0  0  0  0  0  0  0
    5.7795   -6.3124    2.0149 C   0  0  0  0  0  0  0  0  0  0  0  0
    5.4051   -6.3072    0.7563 N   0  0  0  0  0  0  0  0  0  0  0  0
    5.2671   -4.9747    0.4661 N   0  0  0  0  0  0  0  0  0  0  0  0
    4.8979   -4.4426   -0.7311 C   0  0  0  0  0  0  0  0  0  0  0  0
    4.1308   -3.0817   -3.3607 C   0  0  0  0  0  0  0  0  0  0  0  0
    3.8155   -2.2156   -4.3157 N   0  0  0  0  0  0  0  0  0  0  0  0
    3.6324    1.0680   -3.8905 H   0  0  0  0  0  0  0  0  0  0  0  0
    2.4983    0.1178   -4.8673 H   0  0  0  0  0  0  0  0  0  0  0  0
    4.2013    0.2644   -5.3412 H   0  0  0  0  0  0  0  0  0  0  0  0
    4.2955   -0.2282   -1.7556 H   0  0  0  0  0  0  0  0  0  0  0  0
    5.0407   -1.2291    0.2838 H   0  0  0  0  0  0  0  0  0  0  0  0
    6.1683   -4.7660    3.5935 H   0  0  0  0  0  0  0  0  0  0  0  0
    5.9723   -7.2574    2.5064 H   0  0  0  0  0  0  0  0  0  0  0  0
    4.6912   -5.1471   -1.5265 H   0  0  0  0  0  0  0  0  0  0  0  0
    4.1511   -4.1338   -3.6074 H   0  0  0  0  0  0  0  0  0  0  0  0
  1  2  1  0
  1 16  1  0
  1 17  1  0
  1 18  1  0
  2 15  1  0
  2  3  1  0
  3  4  2  0
  3 19  1  0
  4  5  1  0
  4 14  1  0
  5 13  2  0
  5  6  1  0
  6  7  2  0
  6 20  1  0
  7  8  1  0
  8 12  1  0
  8  9  2  0
  9 10  1  0
  9 21  1  0
 10 11  2  0
 10 22  1  0
 11 12  1  0
 12 13  1  0
 13 23  1  0
 14 15  2  0
 14 24  1  0
M  END
>  <i_m_ct_stereo_status>  (78) 
1

>  <s_m_source_file>  (78) 
/var/tmp/pbs.5076255.sched01/tmpbdos_d33/0hajo06zg.sdf

>  <i_m_source_file_index>  (78) 
39

>  <i_lp_mmshare_version>  (78) 
48012

>  <i_f3d_flags>  (78) 
0

>  <s_epik_input>  (78) 
W0NIM11uMVtjSF1jKFtjSF1uMSktYyhbY0hdbjIpW2NIXW4oYzIzKW5bY0hdW2NIXTM=

>  <s_epik_cmdline>  (78) 
J2VwaWtfcHl0aG9uJywgJy1waHQnLCAnMi4wJywgJy1waCcsICc3LjAnLCAnLXRuJywgJzgnLCAnLW1hJywgJzIwMCcsICctaW1hZScsICc8aW5maWxlLm1hZT4nLCAnLW9tYWUnLCAnPG91dGZpbGUubWFlPic=

>  <r_lp_tautomer_probability>  (78) 
1

>  <r_epik_Ionization_Penalty>  (78) 
0.00012845

>  <r_epik_Ionization_Penalty_Charging>  (78) 
0

>  <r_epik_Ionization_Penalty_Neutral>  (78) 
0.00012845

>  <r_epik_State_Penalty>  (78) 
-0

>  <r_epik_Charging_Adjusted_Penalty>  (78) 
0

>  <i_epik_Tot_Q>  (78) 
0

>  <i_epik_Tot_abs_Q>  (78) 
0

>  <s_lp_Force_Field>  (78) 
OPLS3e

>  <r_lp_Energy>  (78) 
15.0514

>  <b_lp_Chiralities_Consistent>  (78) 
1

>  <s_lp_Variant>  (78) 
28:0-1

>  <s_i_glide_gridfile>  (78) 
pfpi4k_grid

>  <i_i_glide_lignum>  (78) 
39

>  <i_i_glide_rotatable_bonds>  (78) 
1

>  <r_i_docking_score>  (78) 
-4.77905

>  <r_i_glide_ligand_efficiency>  (78) 
-0.318603

>  <r_i_glide_ligand_efficiency_sa>  (78) 
-0.785743

>  <r_i_glide_ligand_efficiency_ln>  (78) 
-1.28883

>  <r_i_glide_gscore>  (78) 
-4.77905

>  <r_i_glide_lipo>  (78) 
-0.413497

>  <r_i_glide_hbond>  (78) 
-0.32

>  <r_i_glide_metal>  (78) 
-0

>  <r_i_glide_rewards>  (78) 
-2.53107

>  <r_i_glide_evdw>  (78) 
-22.3952

>  <r_i_glide_ecoul>  (78) 
-5.37165

>  <r_i_glide_erotb>  (78) 
0.411028

>  <r_i_glide_esite>  (78) 
0

>  <r_i_glide_emodel>  (78) 
-36.4595

>  <r_i_glide_energy>  (78) 
-27.7668

>  <r_i_glide_einternal>  (78) 
0.00792898

>  <r_i_glide_intrahb_reward>  (78) 
-0

>  <i_i_glide_confnum>  (78) 
3

>  <i_i_glide_posenum>  (78) 
20

>  <r_i_glide_eff_state_penalty>  (78) 
0

>  <ligand_id>  (78) 
28

>  <original_smiles>  (78) 
Cn1cc(-c2cnc3ccnn3c2)cn1

>  <smiles>  (78) 
[H]c1nn(C([H])([H])[H])c([H])c1-c1c([H])nc2c([H])c([H])nn2c1[H]

$$$$
28:0:1
     RDKit          3D

 24 26  0  0  1  0  0  0  0  0999 V2000
    2.8989   -0.0557   -4.6670 C   0  0  0  0  0  0  0  0  0  0  0  0
    3.3946   -0.8072   -3.5236 N   0  0  0  0  0  0  0  0  0  0  0  0
    2.9460   -2.0079   -3.0011 C   0  0  0  0  0  0  0  0  0  0  0  0
    3.7486   -2.2797   -1.9291 C   0  0  0  0  0  0  0  0  0  0  0  0
    3.6790   -3.4298   -1.0106 C   0  0  0  0  0  0  0  0  0  0  0  0
    4.8396   -3.9612   -0.3879 C   0  0  0  0  0  0  0  0  0  0  0  0
    4.8547   -5.0051    0.4385 N   0  0  0  0  0  0  0  0  0  0  0  0
    3.6765   -5.5879    0.6959 C   0  0  0  0  0  0  0  0  0  0  0  0
    3.3063   -6.6551    1.4683 C   0  0  0  0  0  0  0  0  0  0  0  0
    1.9037   -6.7576    1.3062 C   0  0  0  0  0  0  0  0  0  0  0  0
    1.3948   -5.8559    0.5024 N   0  0  0  0  0  0  0  0  0  0  0  0
    2.4829   -5.1092    0.1201 N   0  0  0  0  0  0  0  0  0  0  0  0
    2.4769   -4.0356   -0.7152 C   0  0  0  0  0  0  0  0  0  0  0  0
    4.6584   -1.1926   -1.8532 C   0  0  0  0  0  0  0  0  0  0  0  0
    4.4314   -0.3114   -2.8124 N   0  0  0  0  0  0  0  0  0  0  0  0
    2.0500   -0.5664   -5.1186 H   0  0  0  0  0  0  0  0  0  0  0  0
    3.6787    0.0577   -5.4224 H   0  0  0  0  0  0  0  0  0  0  0  0
    2.5677    0.9370   -4.3594 H   0  0  0  0  0  0  0  0  0  0  0  0
    2.1032   -2.5332   -3.4292 H   0  0  0  0  0  0  0  0  0  0  0  0
    5.8067   -3.5107   -0.5881 H   0  0  0  0  0  0  0  0  0  0  0  0
    3.9492   -7.2810    2.0651 H   0  0  0  0  0  0  0  0  0  0  0  0
    1.2478   -7.4907    1.7602 H   0  0  0  0  0  0  0  0  0  0  0  0
    1.5266   -3.7259   -1.1446 H   0  0  0  0  0  0  0  0  0  0  0  0
    5.4558   -0.9975   -1.1513 H   0  0  0  0  0  0  0  0  0  0  0  0
  1  2  1  0
  1 16  1  0
  1 17  1  0
  1 18  1  0
  2 15  1  0
  2  3  1  0
  3  4  2  0
  3 19  1  0
  4  5  1  0
  4 14  1  0
  5 13  2  0
  5  6  1  0
  6  7  2  0
  6 20  1  0
  7  8  1  0
  8 12  1  0
  8  9  2  0
  9 10  1  0
  9 21  1  0
 10 11  2  0
 10 22  1  0
 11 12  1  0
 12 13  1  0
 13 23  1  0
 14 15  2  0
 14 24  1  0
M  END
>  <i_m_ct_stereo_status>  (79) 
1

>  <s_m_source_file>  (79) 
/var/tmp/pbs.5076255.sched01/tmpbdos_d33/0hajo06zg.sdf

>  <i_m_source_file_index>  (79) 
39

>  <i_lp_mmshare_version>  (79) 
48012

>  <i_f3d_flags>  (79) 
0

>  <s_epik_input>  (79) 
W0NIM11uMVtjSF1jKFtjSF1uMSktYyhbY0hdbjIpW2NIXW4oYzIzKW5bY0hdW2NIXTM=

>  <s_epik_cmdline>  (79) 
J2VwaWtfcHl0aG9uJywgJy1waHQnLCAnMi4wJywgJy1waCcsICc3LjAnLCAnLXRuJywgJzgnLCAnLW1hJywgJzIwMCcsICctaW1hZScsICc8aW5maWxlLm1hZT4nLCAnLW9tYWUnLCAnPG91dGZpbGUubWFlPic=

>  <r_lp_tautomer_probability>  (79) 
1

>  <r_epik_Ionization_Penalty>  (79) 
0.00012845

>  <r_epik_Ionization_Penalty_Charging>  (79) 
0

>  <r_epik_Ionization_Penalty_Neutral>  (79) 
0.00012845

>  <r_epik_State_Penalty>  (79) 
-0

>  <r_epik_Charging_Adjusted_Penalty>  (79) 
0

>  <i_epik_Tot_Q>  (79) 
0

>  <i_epik_Tot_abs_Q>  (79) 
0

>  <s_lp_Force_Field>  (79) 
OPLS3e

>  <r_lp_Energy>  (79) 
15.0514

>  <b_lp_Chiralities_Consistent>  (79) 
1

>  <s_lp_Variant>  (79) 
28:0-1

>  <s_i_glide_gridfile>  (79) 
pfpi4k_grid

>  <i_i_glide_lignum>  (79) 
39

>  <i_i_glide_rotatable_bonds>  (79) 
1

>  <r_i_docking_score>  (79) 
-4.25241

>  <r_i_glide_ligand_efficiency>  (79) 
-0.283494

>  <r_i_glide_ligand_efficiency_sa>  (79) 
-0.699157

>  <r_i_glide_ligand_efficiency_ln>  (79) 
-1.14681

>  <r_i_glide_gscore>  (79) 
-4.25241

>  <r_i_glide_lipo>  (79) 
-0.262532

>  <r_i_glide_hbond>  (79) 
-0.157161

>  <r_i_glide_metal>  (79) 
-0

>  <r_i_glide_rewards>  (79) 
-2.35078

>  <r_i_glide_evdw>  (79) 
-21.0296

>  <r_i_glide_ecoul>  (79) 
-5.21365

>  <r_i_glide_erotb>  (79) 
0.411028

>  <r_i_glide_esite>  (79) 
-0.0594401

>  <r_i_glide_emodel>  (79) 
-33.4221

>  <r_i_glide_energy>  (79) 
-26.2432

>  <r_i_glide_einternal>  (79) 
1.01974

>  <r_i_glide_intrahb_reward>  (79) 
-0

>  <i_i_glide_confnum>  (79) 
2

>  <i_i_glide_posenum>  (79) 
26

>  <r_i_glide_eff_state_penalty>  (79) 
0

>  <ligand_id>  (79) 
28

>  <original_smiles>  (79) 
Cn1cc(-c2cnc3ccnn3c2)cn1

>  <smiles>  (79) 
[H]c1nn(C([H])([H])[H])c([H])c1-c1c([H])nc2c([H])c([H])nn2c1[H]

$$$$
28:0:2
     RDKit          3D

 24 26  0  0  1  0  0  0  0  0999 V2000
    3.9925   -0.2230   -3.2431 C   0  0  0  0  0  0  0  0  0  0  0  0
    4.2941   -1.3145   -2.3348 N   0  0  0  0  0  0  0  0  0  0  0  0
    3.4404   -2.2712   -1.8202 C   0  0  0  0  0  0  0  0  0  0  0  0
    4.2023   -3.0771   -1.0201 C   0  0  0  0  0  0  0  0  0  0  0  0
    3.7712   -4.2512   -0.2317 C   0  0  0  0  0  0  0  0  0  0  0  0
    4.6857   -5.0528    0.5098 C   0  0  0  0  0  0  0  0  0  0  0  0
    4.3661   -6.1238    1.2296 N   0  0  0  0  0  0  0  0  0  0  0  0
    3.0685   -6.4738    1.2533 C   0  0  0  0  0  0  0  0  0  0  0  0
    2.3724   -7.4839    1.8579 C   0  0  0  0  0  0  0  0  0  0  0  0
    1.0236   -7.2960    1.4687 C   0  0  0  0  0  0  0  0  0  0  0  0
    0.8384   -6.2600    0.6877 N   0  0  0  0  0  0  0  0  0  0  0  0
    2.1028   -5.7317    0.5390 N   0  0  0  0  0  0  0  0  0  0  0  0
    2.4511   -4.6378   -0.1938 C   0  0  0  0  0  0  0  0  0  0  0  0
    5.5181   -2.5390   -1.1025 C   0  0  0  0  0  0  0  0  0  0  0  0
    5.5604   -1.4737   -1.8875 N   0  0  0  0  0  0  0  0  0  0  0  0
    2.9330   -0.2243   -3.4994 H   0  0  0  0  0  0  0  0  0  0  0  0
    4.5743   -0.3192   -4.1619 H   0  0  0  0  0  0  0  0  0  0  0  0
    4.2242    0.7312   -2.7743 H   0  0  0  0  0  0  0  0  0  0  0  0
    2.3877   -2.2796   -2.0682 H   0  0  0  0  0  0  0  0  0  0  0  0
    5.7389   -4.8009    0.5115 H   0  0  0  0  0  0  0  0  0  0  0  0
    2.7689   -8.2676    2.4843 H   0  0  0  0  0  0  0  0  0  0  0  0
    0.1782   -7.9092    1.7389 H   0  0  0  0  0  0  0  0  0  0  0  0
    1.6625   -4.1318   -0.7372 H   0  0  0  0  0  0  0  0  0  0  0  0
    6.4370   -2.8635   -0.6278 H   0  0  0  0  0  0  0  0  0  0  0  0
  1  2  1  0
  1 16  1  0
  1 17  1  0
  1 18  1  0
  2 15  1  0
  2  3  1  0
  3  4  2  0
  3 19  1  0
  4  5  1  0
  4 14  1  0
  5 13  2  0
  5  6  1  0
  6  7  2  0
  6 20  1  0
  7  8  1  0
  8 12  1  0
  8  9  2  0
  9 10  1  0
  9 21  1  0
 10 11  2  0
 10 22  1  0
 11 12  1  0
 12 13  1  0
 13 23  1  0
 14 15  2  0
 14 24  1  0
M  END
>  <i_m_ct_stereo_status>  (80) 
1

>  <s_m_source_file>  (80) 
/var/tmp/pbs.5076255.sched01/tmpbdos_d33/0hajo06zg.sdf

>  <i_m_source_file_index>  (80) 
39

>  <i_lp_mmshare_version>  (80) 
48012

>  <i_f3d_flags>  (80) 
0

>  <s_epik_input>  (80) 
W0NIM11uMVtjSF1jKFtjSF1uMSktYyhbY0hdbjIpW2NIXW4oYzIzKW5bY0hdW2NIXTM=

>  <s_epik_cmdline>  (80) 
J2VwaWtfcHl0aG9uJywgJy1waHQnLCAnMi4wJywgJy1waCcsICc3LjAnLCAnLXRuJywgJzgnLCAnLW1hJywgJzIwMCcsICctaW1hZScsICc8aW5maWxlLm1hZT4nLCAnLW9tYWUnLCAnPG91dGZpbGUubWFlPic=

>  <r_lp_tautomer_probability>  (80) 
1

>  <r_epik_Ionization_Penalty>  (80) 
0.00012845

>  <r_epik_Ionization_Penalty_Charging>  (80) 
0

>  <r_epik_Ionization_Penalty_Neutral>  (80) 
0.00012845

>  <r_epik_State_Penalty>  (80) 
-0

>  <r_epik_Charging_Adjusted_Penalty>  (80) 
0

>  <i_epik_Tot_Q>  (80) 
0

>  <i_epik_Tot_abs_Q>  (80) 
0

>  <s_lp_Force_Field>  (80) 
OPLS3e

>  <r_lp_Energy>  (80) 
15.0514

>  <b_lp_Chiralities_Consistent>  (80) 
1

>  <s_lp_Variant>  (80) 
28:0-1

>  <s_i_glide_gridfile>  (80) 
pfpi4k_grid

>  <i_i_glide_lignum>  (80) 
39

>  <i_i_glide_rotatable_bonds>  (80) 
1

>  <r_i_docking_score>  (80) 
-4.21306

>  <r_i_glide_ligand_efficiency>  (80) 
-0.280871

>  <r_i_glide_ligand_efficiency_sa>  (80) 
-0.692687

>  <r_i_glide_ligand_efficiency_ln>  (80) 
-1.13619

>  <r_i_glide_gscore>  (80) 
-4.21306

>  <r_i_glide_lipo>  (80) 
-0.240399

>  <r_i_glide_hbond>  (80) 
-0.176221

>  <r_i_glide_metal>  (80) 
-0

>  <r_i_glide_rewards>  (80) 
-2.10115

>  <r_i_glide_evdw>  (80) 
-19.7207

>  <r_i_glide_ecoul>  (80) 
-6.84747

>  <r_i_glide_erotb>  (80) 
0.411028

>  <r_i_glide_esite>  (80) 
-0.0931641

>  <r_i_glide_emodel>  (80) 
-34.2305

>  <r_i_glide_energy>  (80) 
-26.5682

>  <r_i_glide_einternal>  (80) 
0.0181158

>  <r_i_glide_intrahb_reward>  (80) 
-0

>  <i_i_glide_confnum>  (80) 
4

>  <i_i_glide_posenum>  (80) 
1

>  <r_i_glide_eff_state_penalty>  (80) 
0

>  <ligand_id>  (80) 
28

>  <original_smiles>  (80) 
Cn1cc(-c2cnc3ccnn3c2)cn1

>  <smiles>  (80) 
[H]c1nn(C([H])([H])[H])c([H])c1-c1c([H])nc2c([H])c([H])nn2c1[H]

$$$$
29:0:0
     RDKit          3D

 42 44  0  0  1  0  0  0  0  0999 V2000
    3.6743   -2.5493   -3.4960 C   0  0  0  0  0  0  0  0  0  0  0  0
    4.2827   -3.1827   -2.2577 C   0  0  0  0  0  0  0  0  0  0  0  0
    4.1837   -2.3130   -0.9781 C   0  0  0  0  0  0  0  0  0  0  0  0
    4.7139   -3.0254    0.3132 C   0  0  1  0  0  0  0  0  0  0  0  0
    6.0497   -3.8155    0.0563 C   0  0  0  0  0  0  0  0  0  0  0  0
    7.2723   -3.0015   -0.4367 C   0  0  0  0  0  0  0  0  0  0  0  0
    8.3877   -3.5525   -0.2918 O   0  0  0  0  0  0  0  0  0  0  0  0
    7.1162   -1.8870   -0.9827 O   0  0  0  0  0  0  0  0  0  0  0  0
    4.9281   -2.0092    1.3271 O   0  0  0  0  0  0  0  0  0  0  0  0
    5.1066   -2.4504    2.6922 C   0  0  0  0  0  0  0  0  0  0  0  0
    3.8036   -3.0756    3.2387 C   0  0  0  0  0  0  0  0  0  0  0  0
    3.2498   -3.9716    2.1986 C   0  0  0  0  0  0  0  0  0  0  0  0
    3.6513   -3.9439    0.8941 C   0  0  0  0  0  0  0  0  0  0  0  0
    2.9210   -4.9093    0.2072 N   0  0  0  0  0  0  0  0  0  0  0  0
    2.0520   -5.5729    1.0615 C   0  0  0  0  0  0  0  0  0  0  0  0
    1.1029   -6.5942    0.8950 C   0  0  0  0  0  0  0  0  0  0  0  0
    0.3623   -7.0622    1.9978 C   0  0  0  0  0  0  0  0  0  0  0  0
    0.5696   -6.4984    3.2806 C   0  0  0  0  0  0  0  0  0  0  0  0
   -0.2159   -6.9510    4.4676 C   0  0  0  0  0  0  0  0  0  0  0  0
   -0.5520   -8.2444    4.4982 N   0  0  0  0  0  0  0  0  0  0  0  0
   -0.4931   -6.1697    5.3709 O   0  0  0  0  0  0  0  0  0  0  0  0
    1.5031   -5.4565    3.4324 C   0  0  0  0  0  0  0  0  0  0  0  0
    2.2574   -4.9828    2.3355 C   0  0  0  0  0  0  0  0  0  0  0  0
    3.0185   -5.0836   -0.7880 H   0  0  0  0  0  0  0  0  0  0  0  0
    3.7552   -3.2433   -4.3342 H   0  0  0  0  0  0  0  0  0  0  0  0
    4.2086   -1.6349   -3.7486 H   0  0  0  0  0  0  0  0  0  0  0  0
    2.6213   -2.3276   -3.3290 H   0  0  0  0  0  0  0  0  0  0  0  0
    3.8051   -4.1433   -2.0929 H   0  0  0  0  0  0  0  0  0  0  0  0
    5.3168   -3.4151   -2.5138 H   0  0  0  0  0  0  0  0  0  0  0  0
    4.7328   -1.3837   -1.1604 H   0  0  0  0  0  0  0  0  0  0  0  0
    3.1668   -1.9557   -0.8126 H   0  0  0  0  0  0  0  0  0  0  0  0
    6.3487   -4.3520    0.9546 H   0  0  0  0  0  0  0  0  0  0  0  0
    5.8690   -4.6008   -0.6661 H   0  0  0  0  0  0  0  0  0  0  0  0
    5.9319   -3.1705    2.7996 H   0  0  0  0  0  0  0  0  0  0  0  0
    5.3650   -1.6113    3.3363 H   0  0  0  0  0  0  0  0  0  0  0  0
    3.9968   -3.6289    4.1563 H   0  0  0  0  0  0  0  0  0  0  0  0
    3.0795   -2.2902    3.4733 H   0  0  0  0  0  0  0  0  0  0  0  0
    0.9551   -7.0349   -0.0754 H   0  0  0  0  0  0  0  0  0  0  0  0
   -0.3590   -7.8535    1.8354 H   0  0  0  0  0  0  0  0  0  0  0  0
   -0.2620   -8.8668    3.7550 H   0  0  0  0  0  0  0  0  0  0  0  0
   -1.0595   -8.6152    5.2895 H   0  0  0  0  0  0  0  0  0  0  0  0
    1.6677   -4.9903    4.4026 H   0  0  0  0  0  0  0  0  0  0  0  0
  1  2  1  0
  1 25  1  0
  1 26  1  0
  1 27  1  0
  2  3  1  0
  2 28  1  0
  2 29  1  0
  4  3  1  6
  3 30  1  0
  3 31  1  0
  4 13  1  0
  4  5  1  0
  4  9  1  0
  5  6  1  0
  5 32  1  0
  5 33  1  0
  6  7  2  0
  6  8  1  0
  9 10  1  0
 10 11  1  0
 10 34  1  0
 10 35  1  0
 11 12  1  0
 11 36  1  0
 11 37  1  0
 12 23  1  0
 12 13  2  0
 13 14  1  0
 14 24  1  0
 14 15  1  0
 15 23  2  0
 15 16  1  0
 16 17  2  0
 16 38  1  0
 17 18  1  0
 17 39  1  0
 18 19  1  0
 18 22  2  0
 19 20  1  0
 19 21  2  0
 20 40  1  0
 20 41  1  0
 22 23  1  0
 22 42  1  0
M  CHG  1   8  -1
M  END
>  <i_m_ct_stereo_status>  (81) 
1

>  <s_m_source_file>  (81) 
/var/tmp/pbs.5076255.sched01/tmpbdos_d33/0hajo06zg.sdf

>  <i_m_source_file_index>  (81) 
40

>  <i_lp_mmshare_version>  (81) 
48012

>  <i_f3d_flags>  (81) 
0

>  <s_epik_input>  (81) 
W0NIM11bQ0gyXVtDSDJdW0NAQF0oW0NIMl1DKD1PKVtPSF0pKE9bQ0gyXVtDSDJdMSljKGMxMilbbkhdYzNjMltjSF1jKFtjSF1bY0hdMylDKD1PKVtOSDJd

>  <s_epik_cmdline>  (81) 
J2VwaWtfcHl0aG9uJywgJy1waHQnLCAnMi4wJywgJy1waCcsICc3LjAnLCAnLXRuJywgJzgnLCAnLW1hJywgJzIwMCcsICctaW1hZScsICc8aW5maWxlLm1hZT4nLCAnLW9tYWUnLCAnPG91dGZpbGUubWFlPic=

>  <r_epik_Ionization_Penalty>  (81) 
0.00115977

>  <r_epik_Ionization_Penalty_Charging>  (81) 
0.00115971

>  <r_epik_Ionization_Penalty_Neutral>  (81) 
6.65897e-08

>  <r_epik_State_Penalty>  (81) 
0.000763565

>  <r_epik_Charging_Adjusted_Penalty>  (81) 
0.00192327

>  <i_epik_Tot_Q>  (81) 
-1

>  <i_epik_Tot_abs_Q>  (81) 
1

>  <s_lp_Force_Field>  (81) 
OPLS3e

>  <r_lp_Energy>  (81) 
14.1898

>  <b_lp_Chiralities_Consistent>  (81) 
1

>  <s_lp_Variant>  (81) 
29:0-1

>  <s_i_glide_gridfile>  (81) 
pfpi4k_grid

>  <i_i_glide_lignum>  (81) 
40

>  <i_i_glide_rotatable_bonds>  (81) 
5

>  <r_i_docking_score>  (81) 
-4.14063

>  <r_i_glide_ligand_efficiency>  (81) 
-0.180027

>  <r_i_glide_ligand_efficiency_sa>  (81) 
-0.511974

>  <r_i_glide_ligand_efficiency_ln>  (81) 
-1.00124

>  <r_i_glide_gscore>  (81) 
-4.14063

>  <r_i_glide_lipo>  (81) 
-0.355149

>  <r_i_glide_hbond>  (81) 
-0.480575

>  <r_i_glide_metal>  (81) 
-0

>  <r_i_glide_rewards>  (81) 
-1.36046

>  <r_i_glide_evdw>  (81) 
-22.4628

>  <r_i_glide_ecoul>  (81) 
-7.10671

>  <r_i_glide_erotb>  (81) 
0.374114

>  <r_i_glide_esite>  (81) 
-0.129415

>  <r_i_glide_emodel>  (81) 
-38.8189

>  <r_i_glide_energy>  (81) 
-29.5695

>  <r_i_glide_einternal>  (81) 
3.97933

>  <r_i_glide_intrahb_reward>  (81) 
-0

>  <i_i_glide_confnum>  (81) 
2

>  <i_i_glide_posenum>  (81) 
28

>  <r_i_glide_eff_state_penalty>  (81) 
0

>  <ligand_id>  (81) 
29

>  <original_smiles>  (81) 
CCCC1(CC(=O)O)OCCc2c1[nH]c1ccc(C(N)=O)cc21

>  <smiles>  (81) 
[H]c1c(C(=O)N([H])[H])c([H])c2c3c(n([H])c2c1[H])C(C([H])([H])C(=O)[O-])(C([H])([H])C([H])([H])C([H])([H])[H])OC([H])([H])C3([H])[H]

$$$$
29:0:1
     RDKit          3D

 42 44  0  0  1  0  0  0  0  0999 V2000
    3.3613  -11.3220    3.5603 C   0  0  0  0  0  0  0  0  0  0  0  0
    2.4646  -10.0779    3.6536 C   0  0  0  0  0  0  0  0  0  0  0  0
    3.0797   -8.8380    2.9481 C   0  0  0  0  0  0  0  0  0  0  0  0
    2.1542   -7.5805    2.7792 C   0  0  1  0  0  0  0  0  0  0  0  0
    0.8919   -8.0454    1.9894 C   0  0  0  0  0  0  0  0  0  0  0  0
   -0.0621   -6.9358    1.5425 C   0  0  0  0  0  0  0  0  0  0  0  0
    0.2133   -6.2613    0.5335 O   0  0  0  0  0  0  0  0  0  0  0  0
   -1.0869   -6.7498    2.2582 O   0  0  0  0  0  0  0  0  0  0  0  0
    1.8441   -7.0976    4.1100 O   0  0  0  0  0  0  0  0  0  0  0  0
    1.3106   -5.7740    4.2970 C   0  0  0  0  0  0  0  0  0  0  0  0
    2.2992   -4.7037    3.8148 C   0  0  0  0  0  0  0  0  0  0  0  0
    2.9480   -5.1620    2.5610 C   0  0  0  0  0  0  0  0  0  0  0  0
    2.9028   -6.4525    2.1108 C   0  0  0  0  0  0  0  0  0  0  0  0
    3.6478   -6.5192    0.9283 N   0  0  0  0  0  0  0  0  0  0  0  0
    4.1328   -5.2636    0.5855 C   0  0  0  0  0  0  0  0  0  0  0  0
    4.8954   -4.7712   -0.4794 C   0  0  0  0  0  0  0  0  0  0  0  0
    5.2208   -3.3993   -0.5296 C   0  0  0  0  0  0  0  0  0  0  0  0
    4.7575   -2.5187    0.4831 C   0  0  0  0  0  0  0  0  0  0  0  0
    5.1290   -1.0739    0.4746 C   0  0  0  0  0  0  0  0  0  0  0  0
    4.1908   -0.2345    0.9070 N   0  0  0  0  0  0  0  0  0  0  0  0
    6.2233   -0.7037    0.0666 O   0  0  0  0  0  0  0  0  0  0  0  0
    3.9926   -3.0315    1.5442 C   0  0  0  0  0  0  0  0  0  0  0  0
    3.6782   -4.3981    1.6107 C   0  0  0  0  0  0  0  0  0  0  0  0
    3.7556   -7.3636    0.3968 H   0  0  0  0  0  0  0  0  0  0  0  0
    2.8872  -12.1735    4.0543 H   0  0  0  0  0  0  0  0  0  0  0  0
    4.3321  -11.1597    4.0257 H   0  0  0  0  0  0  0  0  0  0  0  0
    3.5251  -11.6165    2.5210 H   0  0  0  0  0  0  0  0  0  0  0  0
    1.5286  -10.3909    3.2005 H   0  0  0  0  0  0  0  0  0  0  0  0
    2.2518   -9.8481    4.6963 H   0  0  0  0  0  0  0  0  0  0  0  0
    4.0043   -8.5648    3.4667 H   0  0  0  0  0  0  0  0  0  0  0  0
    3.3812   -9.1586    1.9553 H   0  0  0  0  0  0  0  0  0  0  0  0
    1.2349   -8.5244    1.0794 H   0  0  0  0  0  0  0  0  0  0  0  0
    0.2845   -8.7572    2.5348 H   0  0  0  0  0  0  0  0  0  0  0  0
    0.3667   -5.5751    3.7959 H   0  0  0  0  0  0  0  0  0  0  0  0
    1.0831   -5.6074    5.3481 H   0  0  0  0  0  0  0  0  0  0  0  0
    1.7560   -3.7758    3.6280 H   0  0  0  0  0  0  0  0  0  0  0  0
    3.0627   -4.5155    4.5776 H   0  0  0  0  0  0  0  0  0  0  0  0
    5.2034   -5.4533   -1.2567 H   0  0  0  0  0  0  0  0  0  0  0  0
    5.8201   -3.0279   -1.3493 H   0  0  0  0  0  0  0  0  0  0  0  0
    3.2740   -0.5701    1.1719 H   0  0  0  0  0  0  0  0  0  0  0  0
    4.3833    0.7558    0.8682 H   0  0  0  0  0  0  0  0  0  0  0  0
    3.6531   -2.3974    2.3530 H   0  0  0  0  0  0  0  0  0  0  0  0
  1  2  1  0
  1 25  1  0
  1 26  1  0
  1 27  1  0
  2  3  1  0
  2 28  1  0
  2 29  1  0
  4  3  1  1
  3 30  1  0
  3 31  1  0
  4 13  1  0
  4  5  1  0
  4  9  1  0
  5  6  1  0
  5 32  1  0
  5 33  1  0
  6  7  2  0
  6  8  1  0
  9 10  1  0
 10 11  1  0
 10 34  1  0
 10 35  1  0
 11 12  1  0
 11 36  1  0
 11 37  1  0
 12 23  1  0
 12 13  2  0
 13 14  1  0
 14 24  1  0
 14 15  1  0
 15 23  2  0
 15 16  1  0
 16 17  2  0
 16 38  1  0
 17 18  1  0
 17 39  1  0
 18 19  1  0
 18 22  2  0
 19 20  1  0
 19 21  2  0
 20 40  1  0
 20 41  1  0
 22 23  1  0
 22 42  1  0
M  CHG  1   8  -1
M  END
>  <i_m_ct_stereo_status>  (82) 
1

>  <s_m_source_file>  (82) 
/var/tmp/pbs.5076255.sched01/tmpbdos_d33/0hajo06zg.sdf

>  <i_m_source_file_index>  (82) 
40

>  <i_lp_mmshare_version>  (82) 
48012

>  <i_f3d_flags>  (82) 
0

>  <s_epik_input>  (82) 
W0NIM11bQ0gyXVtDSDJdW0NAQF0oW0NIMl1DKD1PKVtPSF0pKE9bQ0gyXVtDSDJdMSljKGMxMilbbkhdYzNjMltjSF1jKFtjSF1bY0hdMylDKD1PKVtOSDJd

>  <s_epik_cmdline>  (82) 
J2VwaWtfcHl0aG9uJywgJy1waHQnLCAnMi4wJywgJy1waCcsICc3LjAnLCAnLXRuJywgJzgnLCAnLW1hJywgJzIwMCcsICctaW1hZScsICc8aW5maWxlLm1hZT4nLCAnLW9tYWUnLCAnPG91dGZpbGUubWFlPic=

>  <r_epik_Ionization_Penalty>  (82) 
0.00115977

>  <r_epik_Ionization_Penalty_Charging>  (82) 
0.00115971

>  <r_epik_Ionization_Penalty_Neutral>  (82) 
6.65897e-08

>  <r_epik_State_Penalty>  (82) 
0.000763565

>  <r_epik_Charging_Adjusted_Penalty>  (82) 
0.00192327

>  <i_epik_Tot_Q>  (82) 
-1

>  <i_epik_Tot_abs_Q>  (82) 
1

>  <s_lp_Force_Field>  (82) 
OPLS3e

>  <r_lp_Energy>  (82) 
14.1898

>  <b_lp_Chiralities_Consistent>  (82) 
1

>  <s_lp_Variant>  (82) 
29:0-1

>  <s_i_glide_gridfile>  (82) 
pfpi4k_grid

>  <i_i_glide_lignum>  (82) 
40

>  <i_i_glide_rotatable_bonds>  (82) 
5

>  <r_i_docking_score>  (82) 
-4.02083

>  <r_i_glide_ligand_efficiency>  (82) 
-0.174819

>  <r_i_glide_ligand_efficiency_sa>  (82) 
-0.497161

>  <r_i_glide_ligand_efficiency_ln>  (82) 
-0.972272

>  <r_i_glide_gscore>  (82) 
-4.02083

>  <r_i_glide_lipo>  (82) 
-0.116508

>  <r_i_glide_hbond>  (82) 
-0.43694

>  <r_i_glide_metal>  (82) 
-0

>  <r_i_glide_rewards>  (82) 
-1.39742

>  <r_i_glide_evdw>  (82) 
-19.3073

>  <r_i_glide_ecoul>  (82) 
-9.19139

>  <r_i_glide_erotb>  (82) 
0.374114

>  <r_i_glide_esite>  (82) 
-0.1

>  <r_i_glide_emodel>  (82) 
-36.1511

>  <r_i_glide_energy>  (82) 
-28.4987

>  <r_i_glide_einternal>  (82) 
6.83481

>  <r_i_glide_intrahb_reward>  (82) 
-0

>  <i_i_glide_confnum>  (82) 
5

>  <i_i_glide_posenum>  (82) 
23

>  <r_i_glide_eff_state_penalty>  (82) 
0

>  <ligand_id>  (82) 
29

>  <original_smiles>  (82) 
CCCC1(CC(=O)O)OCCc2c1[nH]c1ccc(C(N)=O)cc21

>  <smiles>  (82) 
[H]c1c(C(=O)N([H])[H])c([H])c2c3c(n([H])c2c1[H])C(C([H])([H])C(=O)[O-])(C([H])([H])C([H])([H])C([H])([H])[H])OC([H])([H])C3([H])[H]

$$$$
29:0:2
     RDKit          3D

 42 44  0  0  1  0  0  0  0  0999 V2000
    4.7062   -0.9340   -1.7018 C   0  0  0  0  0  0  0  0  0  0  0  0
    4.9023   -2.3719   -2.1995 C   0  0  0  0  0  0  0  0  0  0  0  0
    4.1314   -3.4270   -1.3642 C   0  0  0  0  0  0  0  0  0  0  0  0
    4.6348   -3.6954    0.0810 C   0  0  1  0  0  0  0  0  0  0  0  0
    6.1045   -4.1995   -0.0148 C   0  0  0  0  0  0  0  0  0  0  0  0
    6.8599   -4.4237    1.2886 C   0  0  0  0  0  0  0  0  0  0  0  0
    8.1107   -4.3810    1.1987 O   0  0  0  0  0  0  0  0  0  0  0  0
    6.2219   -4.6477    2.3379 O   0  0  0  0  0  0  0  0  0  0  0  0
    4.5930   -2.4893    0.8809 O   0  0  0  0  0  0  0  0  0  0  0  0
    3.2985   -2.0067    1.3082 C   0  0  0  0  0  0  0  0  0  0  0  0
    2.6483   -3.0054    2.2883 C   0  0  0  0  0  0  0  0  0  0  0  0
    2.8354   -4.3833    1.7635 C   0  0  0  0  0  0  0  0  0  0  0  0
    3.7245   -4.6865    0.7811 C   0  0  0  0  0  0  0  0  0  0  0  0
    3.6443   -6.0507    0.5310 N   0  0  0  0  0  0  0  0  0  0  0  0
    2.7140   -6.6533    1.3774 C   0  0  0  0  0  0  0  0  0  0  0  0
    2.2334   -7.9616    1.5766 C   0  0  0  0  0  0  0  0  0  0  0  0
    1.2257   -8.2059    2.5304 C   0  0  0  0  0  0  0  0  0  0  0  0
    0.7089   -7.1501    3.3250 C   0  0  0  0  0  0  0  0  0  0  0  0
   -0.3584   -7.3862    4.3550 C   0  0  0  0  0  0  0  0  0  0  0  0
   -0.5726   -8.6545    4.7256 N   0  0  0  0  0  0  0  0  0  0  0  0
   -0.9752   -6.4483    4.8433 O   0  0  0  0  0  0  0  0  0  0  0  0
    1.2031   -5.8505    3.1251 C   0  0  0  0  0  0  0  0  0  0  0  0
    2.1976   -5.5839    2.1594 C   0  0  0  0  0  0  0  0  0  0  0  0
    4.2156   -6.5169   -0.1607 H   0  0  0  0  0  0  0  0  0  0  0  0
    5.2353   -0.2230   -2.3364 H   0  0  0  0  0  0  0  0  0  0  0  0
    5.0890   -0.7943   -0.6895 H   0  0  0  0  0  0  0  0  0  0  0  0
    3.6444   -0.6767   -1.6998 H   0  0  0  0  0  0  0  0  0  0  0  0
    4.5554   -2.4302   -3.2330 H   0  0  0  0  0  0  0  0  0  0  0  0
    5.9689   -2.5848   -2.2757 H   0  0  0  0  0  0  0  0  0  0  0  0
    3.0682   -3.1764   -1.3640 H   0  0  0  0  0  0  0  0  0  0  0  0
    4.2109   -4.3661   -1.9099 H   0  0  0  0  0  0  0  0  0  0  0  0
    6.1068   -5.1439   -0.5488 H   0  0  0  0  0  0  0  0  0  0  0  0
    6.7378   -3.5208   -0.5813 H   0  0  0  0  0  0  0  0  0  0  0  0
    3.4004   -1.0466    1.8186 H   0  0  0  0  0  0  0  0  0  0  0  0
    2.6308   -1.8250    0.4585 H   0  0  0  0  0  0  0  0  0  0  0  0
    3.1180   -2.9208    3.2746 H   0  0  0  0  0  0  0  0  0  0  0  0
    1.5852   -2.7823    2.4097 H   0  0  0  0  0  0  0  0  0  0  0  0
    2.6130   -8.7779    0.9789 H   0  0  0  0  0  0  0  0  0  0  0  0
    0.8650   -9.2186    2.6309 H   0  0  0  0  0  0  0  0  0  0  0  0
   -0.0476   -9.4021    4.3033 H   0  0  0  0  0  0  0  0  0  0  0  0
   -1.2898   -8.8769    5.3975 H   0  0  0  0  0  0  0  0  0  0  0  0
    0.8358   -5.0135    3.7095 H   0  0  0  0  0  0  0  0  0  0  0  0
  1  2  1  0
  1 25  1  0
  1 26  1  0
  1 27  1  0
  2  3  1  0
  2 28  1  0
  2 29  1  0
  4  3  1  6
  3 30  1  0
  3 31  1  0
  4 13  1  0
  4  5  1  0
  4  9  1  0
  5  6  1  0
  5 32  1  0
  5 33  1  0
  6  7  2  0
  6  8  1  0
  9 10  1  0
 10 11  1  0
 10 34  1  0
 10 35  1  0
 11 12  1  0
 11 36  1  0
 11 37  1  0
 12 23  1  0
 12 13  2  0
 13 14  1  0
 14 24  1  0
 14 15  1  0
 15 23  2  0
 15 16  1  0
 16 17  2  0
 16 38  1  0
 17 18  1  0
 17 39  1  0
 18 19  1  0
 18 22  2  0
 19 20  1  0
 19 21  2  0
 20 40  1  0
 20 41  1  0
 22 23  1  0
 22 42  1  0
M  CHG  1   8  -1
M  END
>  <i_m_ct_stereo_status>  (83) 
1

>  <s_m_source_file>  (83) 
/var/tmp/pbs.5076255.sched01/tmpbdos_d33/0hajo06zg.sdf

>  <i_m_source_file_index>  (83) 
40

>  <i_lp_mmshare_version>  (83) 
48012

>  <i_f3d_flags>  (83) 
0

>  <s_epik_input>  (83) 
W0NIM11bQ0gyXVtDSDJdW0NAQF0oW0NIMl1DKD1PKVtPSF0pKE9bQ0gyXVtDSDJdMSljKGMxMilbbkhdYzNjMltjSF1jKFtjSF1bY0hdMylDKD1PKVtOSDJd

>  <s_epik_cmdline>  (83) 
J2VwaWtfcHl0aG9uJywgJy1waHQnLCAnMi4wJywgJy1waCcsICc3LjAnLCAnLXRuJywgJzgnLCAnLW1hJywgJzIwMCcsICctaW1hZScsICc8aW5maWxlLm1hZT4nLCAnLW9tYWUnLCAnPG91dGZpbGUubWFlPic=

>  <r_epik_Ionization_Penalty>  (83) 
0.00115977

>  <r_epik_Ionization_Penalty_Charging>  (83) 
0.00115971

>  <r_epik_Ionization_Penalty_Neutral>  (83) 
6.65897e-08

>  <r_epik_State_Penalty>  (83) 
0.000763565

>  <r_epik_Charging_Adjusted_Penalty>  (83) 
0.00192327

>  <i_epik_Tot_Q>  (83) 
-1

>  <i_epik_Tot_abs_Q>  (83) 
1

>  <s_lp_Force_Field>  (83) 
OPLS3e

>  <r_lp_Energy>  (83) 
14.1898

>  <b_lp_Chiralities_Consistent>  (83) 
1

>  <s_lp_Variant>  (83) 
29:0-1

>  <s_i_glide_gridfile>  (83) 
pfpi4k_grid

>  <i_i_glide_lignum>  (83) 
40

>  <i_i_glide_rotatable_bonds>  (83) 
5

>  <r_i_docking_score>  (83) 
-2.87205

>  <r_i_glide_ligand_efficiency>  (83) 
-0.124872

>  <r_i_glide_ligand_efficiency_sa>  (83) 
-0.355119

>  <r_i_glide_ligand_efficiency_ln>  (83) 
-0.694488

>  <r_i_glide_gscore>  (83) 
-2.87205

>  <r_i_glide_lipo>  (83) 
-0.17096

>  <r_i_glide_hbond>  (83) 
-0.00786133

>  <r_i_glide_metal>  (83) 
-0

>  <r_i_glide_rewards>  (83) 
-1.40888

>  <r_i_glide_evdw>  (83) 
-21.6901

>  <r_i_glide_ecoul>  (83) 
-3.01439

>  <r_i_glide_erotb>  (83) 
0.374114

>  <r_i_glide_esite>  (83) 
-0.121799

>  <r_i_glide_emodel>  (83) 
-31.9721

>  <r_i_glide_energy>  (83) 
-24.7045

>  <r_i_glide_einternal>  (83) 
1.42385

>  <r_i_glide_intrahb_reward>  (83) 
-0

>  <i_i_glide_confnum>  (83) 
3

>  <i_i_glide_posenum>  (83) 
26

>  <r_i_glide_eff_state_penalty>  (83) 
0

>  <ligand_id>  (83) 
29

>  <original_smiles>  (83) 
CCCC1(CC(=O)O)OCCc2c1[nH]c1ccc(C(N)=O)cc21

>  <smiles>  (83) 
[H]c1c(C(=O)N([H])[H])c([H])c2c3c(n([H])c2c1[H])C(C([H])([H])C(=O)[O-])(C([H])([H])C([H])([H])C([H])([H])[H])OC([H])([H])C3([H])[H]

$$$$
30:0:0
     RDKit          3D

 36 38  0  0  1  0  0  0  0  0999 V2000
    3.3953   -1.9884   -3.5903 C   0  0  0  0  0  0  0  0  0  0  0  0
    3.0984   -3.0921   -2.5713 C   0  0  0  0  0  0  0  0  0  0  0  0
    3.0137   -2.5631   -1.2190 N   0  0  0  0  0  0  0  0  0  0  0  0
    3.9096   -2.7719   -0.2386 C   0  0  0  0  0  0  0  0  0  0  0  0
    4.9351   -3.4323   -0.3904 O   0  0  0  0  0  0  0  0  0  0  0  0
    3.5926   -2.1435    1.1277 C   0  0  2  0  0  0  0  0  0  0  0  0
    2.2082   -2.3041    1.4275 O   0  0  0  0  0  0  0  0  0  0  0  0
    1.6961   -1.1476    2.0317 C   0  0  1  0  0  0  0  0  0  0  0  0
    0.9833   -1.5007    3.3018 N   0  0  0  0  0  0  0  0  0  0  0  0
    0.9718   -2.6929    3.9331 C   0  0  0  0  0  0  0  0  0  0  0  0
    0.2412   -2.7377    5.0441 N   0  0  0  0  0  0  0  0  0  0  0  0
   -0.2778   -1.4498    5.1299 C   0  0  0  0  0  0  0  0  0  0  0  0
   -1.1070   -0.9537    6.0742 N   0  0  0  0  0  0  0  0  0  0  0  0
   -1.4627    0.3682    5.9627 C   0  0  0  0  0  0  0  0  0  0  0  0
   -2.1825    0.9506    6.7665 O   0  0  0  0  0  0  0  0  0  0  0  0
   -0.9373    1.1686    4.7505 C   0  0  0  0  0  0  0  0  0  0  0  0
   -0.1607    0.6551    3.8558 N   0  0  0  0  0  0  0  0  0  0  0  0
    0.1649   -0.6753    4.0804 C   0  0  0  0  0  0  0  0  0  0  0  0
    2.8811   -0.1992    2.2721 C   0  0  1  0  0  0  0  0  0  0  0  0
    3.4777   -0.3435    3.5558 O   0  0  0  0  0  0  0  0  0  0  0  0
    3.8141   -0.6340    1.1574 C   0  0  1  0  0  0  0  0  0  0  0  0
    5.1626   -0.2620    1.3881 O   0  0  0  0  0  0  0  0  0  0  0  0
    3.4399   -2.4136   -4.5934 H   0  0  0  0  0  0  0  0  0  0  0  0
    4.3501   -1.4977   -3.3883 H   0  0  0  0  0  0  0  0  0  0  0  0
    2.6163   -1.2243   -3.5908 H   0  0  0  0  0  0  0  0  0  0  0  0
    2.1502   -3.5749   -2.8052 H   0  0  0  0  0  0  0  0  0  0  0  0
    3.8688   -3.8578   -2.6481 H   0  0  0  0  0  0  0  0  0  0  0  0
    2.1820   -2.0064   -0.9987 H   0  0  0  0  0  0  0  0  0  0  0  0
    4.1844   -2.6187    1.9146 H   0  0  0  0  0  0  0  0  0  0  0  0
    0.9294   -0.7239    1.3750 H   0  0  0  0  0  0  0  0  0  0  0  0
    1.5133   -3.5421    3.5541 H   0  0  0  0  0  0  0  0  0  0  0  0
   -1.2487    2.2116    4.6518 H   0  0  0  0  0  0  0  0  0  0  0  0
    2.5389    0.8259    2.1501 H   0  0  0  0  0  0  0  0  0  0  0  0
    4.2384    0.2163    3.5866 H   0  0  0  0  0  0  0  0  0  0  0  0
    3.4738   -0.2056    0.2148 H   0  0  0  0  0  0  0  0  0  0  0  0
    5.6874   -0.5481    0.6543 H   0  0  0  0  0  0  0  0  0  0  0  0
  1  2  1  0
  1 23  1  0
  1 24  1  0
  1 25  1  0
  2  3  1  0
  2 26  1  0
  2 27  1  0
  3  4  1  0
  3 28  1  0
  4  5  2  0
  4  6  1  0
  6 21  1  0
  6  7  1  0
  6 29  1  1
  7  8  1  0
  8  9  1  0
  8 19  1  0
  8 30  1  6
  9 18  1  0
  9 10  1  0
 10 11  2  0
 10 31  1  0
 11 12  1  0
 12 18  2  0
 12 13  1  0
 13 14  1  0
 14 15  2  0
 14 16  1  0
 16 17  2  0
 16 32  1  0
 17 18  1  0
 19 20  1  0
 19 21  1  0
 19 33  1  6
 20 34  1  0
 21 22  1  0
 21 35  1  6
 22 36  1  0
M  CHG  1  13  -1
M  END
>  <i_m_ct_stereo_status>  (84) 
1

>  <s_m_source_file>  (84) 
/var/tmp/pbs.5076255.sched01/tmpbdos_d33/0hajo06zg.sdf

>  <i_m_source_file_index>  (84) 
41

>  <i_lp_mmshare_version>  (84) 
48012

>  <i_f3d_flags>  (84) 
0

>  <s_epik_input>  (84) 
W0NIM11bQ0gyXVtOSF1DKD1PKVtDQEBIXTFPW0NASF0oW0NAQEhdKFtPSF0pW0NASF0xW09IXSluKFtjSF1uMiljKGMyMyluW2NIXWMoPU8pW25IXTM=

>  <s_epik_cmdline>  (84) 
J2VwaWtfcHl0aG9uJywgJy1waHQnLCAnMi4wJywgJy1waCcsICc3LjAnLCAnLXRuJywgJzgnLCAnLW1hJywgJzIwMCcsICctaW1hZScsICc8aW5maWxlLm1hZT4nLCAnLW9tYWUnLCAnPG91dGZpbGUubWFlPic=

>  <r_epik_Ionization_Penalty>  (84) 
0.146582

>  <r_epik_Ionization_Penalty_Charging>  (84) 
0.112852

>  <r_epik_Ionization_Penalty_Neutral>  (84) 
0.0337299

>  <r_epik_State_Penalty>  (84) 
0.124542

>  <r_epik_Charging_Adjusted_Penalty>  (84) 
0.237394

>  <i_epik_Tot_Q>  (84) 
-1

>  <i_epik_Tot_abs_Q>  (84) 
1

>  <s_epik_Chemistry_Notes>  (84) 
This compound contains an acetal/aminal-like group ( X-CH(R)-Y where X, Y are N, S, or O) that may be acid/base labile, releasing an aldehyde.

>  <s_lp_Force_Field>  (84) 
OPLS3e

>  <r_lp_Energy>  (84) 
53.9275

>  <b_lp_Chiralities_Consistent>  (84) 
1

>  <s_lp_Variant>  (84) 
30:0-1

>  <s_i_glide_gridfile>  (84) 
pfpi4k_grid

>  <i_i_glide_lignum>  (84) 
41

>  <i_i_glide_rotatable_bonds>  (84) 
6

>  <r_i_docking_score>  (84) 
-3.95008

>  <r_i_glide_ligand_efficiency>  (84) 
-0.179549

>  <r_i_glide_ligand_efficiency_sa>  (84) 
-0.503104

>  <r_i_glide_ligand_efficiency_ln>  (84) 
-0.965544

>  <r_i_glide_gscore>  (84) 
-3.95008

>  <r_i_glide_lipo>  (84) 
-0.23377

>  <r_i_glide_hbond>  (84) 
-0.351442

>  <r_i_glide_metal>  (84) 
-0

>  <r_i_glide_rewards>  (84) 
-1.35572

>  <r_i_glide_evdw>  (84) 
-23.3186

>  <r_i_glide_ecoul>  (84) 
-8.38731

>  <r_i_glide_erotb>  (84) 
0.583994

>  <r_i_glide_esite>  (84) 
-0.16912

>  <r_i_glide_emodel>  (84) 
-42.4303

>  <r_i_glide_energy>  (84) 
-31.7059

>  <r_i_glide_einternal>  (84) 
2.66424

>  <r_i_glide_intrahb_reward>  (84) 
-0

>  <i_i_glide_confnum>  (84) 
1

>  <i_i_glide_posenum>  (84) 
1

>  <r_i_glide_eff_state_penalty>  (84) 
0

>  <ligand_id>  (84) 
30

>  <original_smiles>  (84) 
CCNC(=O)C1OC(n2cnc3[nH]c(=O)cnc32)C(O)C1O

>  <smiles>  (84) 
[H]OC1([H])C([H])(C(=O)N([H])C([H])([H])C([H])([H])[H])OC([H])(n2c([H])nc3[n-]c(=O)c([H])nc32)C1([H])O[H]

$$$$
30:0:1
     RDKit          3D

 36 38  0  0  1  0  0  0  0  0999 V2000
    3.3950   -1.9949   -3.7014 C   0  0  0  0  0  0  0  0  0  0  0  0
    3.0985   -3.0951   -2.6781 C   0  0  0  0  0  0  0  0  0  0  0  0
    3.0198   -2.5602   -1.3256 N   0  0  0  0  0  0  0  0  0  0  0  0
    3.8489   -2.8587   -0.3123 C   0  0  0  0  0  0  0  0  0  0  0  0
    4.7873   -3.6496   -0.4173 O   0  0  0  0  0  0  0  0  0  0  0  0
    3.5643   -2.1786    1.0382 C   0  0  2  0  0  0  0  0  0  0  0  0
    2.1954   -2.3746    1.4007 O   0  0  0  0  0  0  0  0  0  0  0  0
    1.6595   -1.2089    1.9685 C   0  0  1  0  0  0  0  0  0  0  0  0
    0.9899   -1.5305    3.2757 N   0  0  0  0  0  0  0  0  0  0  0  0
    1.0397   -2.6899    3.9536 C   0  0  0  0  0  0  0  0  0  0  0  0
    0.3441   -2.7188    5.0916 N   0  0  0  0  0  0  0  0  0  0  0  0
   -0.2119   -1.4446    5.1370 C   0  0  0  0  0  0  0  0  0  0  0  0
   -1.0348   -0.9387    6.0820 N   0  0  0  0  0  0  0  0  0  0  0  0
   -1.4538    0.3590    5.9227 C   0  0  0  0  0  0  0  0  0  0  0  0
   -2.1848    0.9465    6.7171 O   0  0  0  0  0  0  0  0  0  0  0  0
   -0.9993    1.1208    4.6579 C   0  0  0  0  0  0  0  0  0  0  0  0
   -0.2258    0.5984    3.7660 N   0  0  0  0  0  0  0  0  0  0  0  0
    0.1629   -0.7009    4.0426 C   0  0  0  0  0  0  0  0  0  0  0  0
    2.8143   -0.2082    2.1312 C   0  0  1  0  0  0  0  0  0  0  0  0
    3.4479   -0.2830    3.4001 O   0  0  0  0  0  0  0  0  0  0  0  0
    3.7266   -0.6599    1.0057 C   0  0  1  0  0  0  0  0  0  0  0  0
    5.0653   -0.2252    1.1327 O   0  0  0  0  0  0  0  0  0  0  0  0
    3.4397   -2.4252   -4.7023 H   0  0  0  0  0  0  0  0  0  0  0  0
    4.3494   -1.5036   -3.5019 H   0  0  0  0  0  0  0  0  0  0  0  0
    2.6165   -1.2320   -3.7064 H   0  0  0  0  0  0  0  0  0  0  0  0
    2.1503   -3.5785   -2.9073 H   0  0  0  0  0  0  0  0  0  0  0  0
    3.8706   -3.8577   -2.7551 H   0  0  0  0  0  0  0  0  0  0  0  0
    2.2502   -1.9150   -1.1260 H   0  0  0  0  0  0  0  0  0  0  0  0
    4.1948   -2.6030    1.8243 H   0  0  0  0  0  0  0  0  0  0  0  0
    0.8577   -0.8405    1.3204 H   0  0  0  0  0  0  0  0  0  0  0  0
    1.6051   -3.5352    3.5978 H   0  0  0  0  0  0  0  0  0  0  0  0
   -1.3613    2.1423    4.5206 H   0  0  0  0  0  0  0  0  0  0  0  0
    2.4273    0.7964    1.9759 H   0  0  0  0  0  0  0  0  0  0  0  0
    4.1737    0.3184    3.4050 H   0  0  0  0  0  0  0  0  0  0  0  0
    3.3353   -0.2679    0.0711 H   0  0  0  0  0  0  0  0  0  0  0  0
    5.1340    0.6105    0.6962 H   0  0  0  0  0  0  0  0  0  0  0  0
  1  2  1  0
  1 23  1  0
  1 24  1  0
  1 25  1  0
  2  3  1  0
  2 26  1  0
  2 27  1  0
  3  4  1  0
  3 28  1  0
  4  5  2  0
  4  6  1  0
  6 21  1  0
  6  7  1  0
  6 29  1  1
  7  8  1  0
  8  9  1  0
  8 19  1  0
  8 30  1  6
  9 18  1  0
  9 10  1  0
 10 11  2  0
 10 31  1  0
 11 12  1  0
 12 18  2  0
 12 13  1  0
 13 14  1  0
 14 15  2  0
 14 16  1  0
 16 17  2  0
 16 32  1  0
 17 18  1  0
 19 20  1  0
 19 21  1  0
 19 33  1  6
 20 34  1  0
 21 22  1  0
 21 35  1  6
 22 36  1  0
M  CHG  1  13  -1
M  END
>  <i_m_ct_stereo_status>  (85) 
1

>  <s_m_source_file>  (85) 
/var/tmp/pbs.5076255.sched01/tmpbdos_d33/0hajo06zg.sdf

>  <i_m_source_file_index>  (85) 
41

>  <i_lp_mmshare_version>  (85) 
48012

>  <i_f3d_flags>  (85) 
0

>  <s_epik_input>  (85) 
W0NIM11bQ0gyXVtOSF1DKD1PKVtDQEBIXTFPW0NASF0oW0NAQEhdKFtPSF0pW0NASF0xW09IXSluKFtjSF1uMiljKGMyMyluW2NIXWMoPU8pW25IXTM=

>  <s_epik_cmdline>  (85) 
J2VwaWtfcHl0aG9uJywgJy1waHQnLCAnMi4wJywgJy1waCcsICc3LjAnLCAnLXRuJywgJzgnLCAnLW1hJywgJzIwMCcsICctaW1hZScsICc8aW5maWxlLm1hZT4nLCAnLW9tYWUnLCAnPG91dGZpbGUubWFlPic=

>  <r_epik_Ionization_Penalty>  (85) 
0.146582

>  <r_epik_Ionization_Penalty_Charging>  (85) 
0.112852

>  <r_epik_Ionization_Penalty_Neutral>  (85) 
0.0337299

>  <r_epik_State_Penalty>  (85) 
0.124542

>  <r_epik_Charging_Adjusted_Penalty>  (85) 
0.237394

>  <i_epik_Tot_Q>  (85) 
-1

>  <i_epik_Tot_abs_Q>  (85) 
1

>  <s_epik_Chemistry_Notes>  (85) 
This compound contains an acetal/aminal-like group ( X-CH(R)-Y where X, Y are N, S, or O) that may be acid/base labile, releasing an aldehyde.

>  <s_lp_Force_Field>  (85) 
OPLS3e

>  <r_lp_Energy>  (85) 
53.9275

>  <b_lp_Chiralities_Consistent>  (85) 
1

>  <s_lp_Variant>  (85) 
30:0-1

>  <s_i_glide_gridfile>  (85) 
pfpi4k_grid

>  <i_i_glide_lignum>  (85) 
41

>  <i_i_glide_rotatable_bonds>  (85) 
6

>  <r_i_docking_score>  (85) 
-3.92369

>  <r_i_glide_ligand_efficiency>  (85) 
-0.178349

>  <r_i_glide_ligand_efficiency_sa>  (85) 
-0.499742

>  <r_i_glide_ligand_efficiency_ln>  (85) 
-0.959092

>  <r_i_glide_gscore>  (85) 
-3.92369

>  <r_i_glide_lipo>  (85) 
-0.200533

>  <r_i_glide_hbond>  (85) 
-0.333613

>  <r_i_glide_metal>  (85) 
-0

>  <r_i_glide_rewards>  (85) 
-1.35415

>  <r_i_glide_evdw>  (85) 
-23.7397

>  <r_i_glide_ecoul>  (85) 
-8.40466

>  <r_i_glide_erotb>  (85) 
0.583994

>  <r_i_glide_esite>  (85) 
-0.171704

>  <r_i_glide_emodel>  (85) 
-42.1447

>  <r_i_glide_energy>  (85) 
-32.1444

>  <r_i_glide_einternal>  (85) 
3.71483

>  <r_i_glide_intrahb_reward>  (85) 
-0

>  <i_i_glide_confnum>  (85) 
1

>  <i_i_glide_posenum>  (85) 
14

>  <r_i_glide_eff_state_penalty>  (85) 
0

>  <ligand_id>  (85) 
30

>  <original_smiles>  (85) 
CCNC(=O)C1OC(n2cnc3[nH]c(=O)cnc32)C(O)C1O

>  <smiles>  (85) 
[H]OC1([H])C([H])(C(=O)N([H])C([H])([H])C([H])([H])[H])OC([H])(n2c([H])nc3[n-]c(=O)c([H])nc32)C1([H])O[H]

$$$$
30:0:2
     RDKit          3D

 36 38  0  0  1  0  0  0  0  0999 V2000
    2.4689    1.3191   -5.4470 C   0  0  0  0  0  0  0  0  0  0  0  0
    3.5231    0.2700   -5.0892 C   0  0  0  0  0  0  0  0  0  0  0  0
    3.3473   -0.2135   -3.7298 N   0  0  0  0  0  0  0  0  0  0  0  0
    3.8702   -1.3506   -3.2580 C   0  0  0  0  0  0  0  0  0  0  0  0
    4.6069   -2.0684   -3.9238 O   0  0  0  0  0  0  0  0  0  0  0  0
    3.5017   -1.7613   -1.8356 C   0  0  2  0  0  0  0  0  0  0  0  0
    4.6364   -1.6301   -0.9760 O   0  0  0  0  0  0  0  0  0  0  0  0
    4.6743   -2.7052   -0.0780 C   0  0  1  0  0  0  0  0  0  0  0  0
    4.8050   -2.2403    1.3427 N   0  0  0  0  0  0  0  0  0  0  0  0
    5.4224   -2.9042    2.3391 C   0  0  0  0  0  0  0  0  0  0  0  0
    5.3206   -2.3495    3.5430 N   0  0  0  0  0  0  0  0  0  0  0  0
    4.5731   -1.2126    3.2896 C   0  0  0  0  0  0  0  0  0  0  0  0
    4.1418   -0.2954    4.1773 N   0  0  0  0  0  0  0  0  0  0  0  0
    3.3370    0.7099    3.7023 C   0  0  0  0  0  0  0  0  0  0  0  0
    2.8752    1.6276    4.3806 O   0  0  0  0  0  0  0  0  0  0  0  0
    2.9872    0.7108    2.2056 C   0  0  0  0  0  0  0  0  0  0  0  0
    3.4323   -0.1698    1.3799 N   0  0  0  0  0  0  0  0  0  0  0  0
    4.2345   -1.1313    1.9600 C   0  0  0  0  0  0  0  0  0  0  0  0
    3.3971   -3.5305   -0.2769 C   0  0  1  0  0  0  0  0  0  0  0  0
    2.3237   -3.0916    0.5370 O   0  0  0  0  0  0  0  0  0  0  0  0
    3.1031   -3.2335   -1.7254 C   0  0  1  0  0  0  0  0  0  0  0  0
    1.7578   -3.4538   -2.0783 O   0  0  0  0  0  0  0  0  0  0  0  0
    2.6103    1.6751   -6.4621 H   0  0  0  0  0  0  0  0  0  0  0  0
    2.5371    2.1981   -4.8097 H   0  0  0  0  0  0  0  0  0  0  0  0
    1.4568    0.9147   -5.3647 H   0  0  0  0  0  0  0  0  0  0  0  0
    3.4531   -0.5590   -5.7959 H   0  0  0  0  0  0  0  0  0  0  0  0
    4.5166    0.7075   -5.1649 H   0  0  0  0  0  0  0  0  0  0  0  0
    2.7683    0.3397   -3.1111 H   0  0  0  0  0  0  0  0  0  0  0  0
    2.6981   -1.1276   -1.4711 H   0  0  0  0  0  0  0  0  0  0  0  0
    5.5836   -3.2641   -0.2705 H   0  0  0  0  0  0  0  0  0  0  0  0
    5.9436   -3.8350    2.1769 H   0  0  0  0  0  0  0  0  0  0  0  0
    2.3397    1.4995    1.8186 H   0  0  0  0  0  0  0  0  0  0  0  0
    3.6037   -4.5830   -0.0749 H   0  0  0  0  0  0  0  0  0  0  0  0
    2.1080   -2.2020    0.2723 H   0  0  0  0  0  0  0  0  0  0  0  0
    3.7431   -3.8574   -2.3467 H   0  0  0  0  0  0  0  0  0  0  0  0
    1.6788   -4.3478   -2.3866 H   0  0  0  0  0  0  0  0  0  0  0  0
  1  2  1  0
  1 23  1  0
  1 24  1  0
  1 25  1  0
  2  3  1  0
  2 26  1  0
  2 27  1  0
  3  4  1  0
  3 28  1  0
  4  5  2  0
  4  6  1  0
  6 21  1  0
  6  7  1  0
  6 29  1  1
  7  8  1  0
  8  9  1  0
  8 19  1  0
  8 30  1  6
  9 18  1  0
  9 10  1  0
 10 11  2  0
 10 31  1  0
 11 12  1  0
 12 18  2  0
 12 13  1  0
 13 14  1  0
 14 15  2  0
 14 16  1  0
 16 17  2  0
 16 32  1  0
 17 18  1  0
 19 20  1  0
 19 21  1  0
 19 33  1  6
 20 34  1  0
 21 22  1  0
 21 35  1  6
 22 36  1  0
M  CHG  1  13  -1
M  END
>  <i_m_ct_stereo_status>  (86) 
1

>  <s_m_source_file>  (86) 
/var/tmp/pbs.5076255.sched01/tmpbdos_d33/0hajo06zg.sdf

>  <i_m_source_file_index>  (86) 
41

>  <i_lp_mmshare_version>  (86) 
48012

>  <i_f3d_flags>  (86) 
0

>  <s_epik_input>  (86) 
W0NIM11bQ0gyXVtOSF1DKD1PKVtDQEBIXTFPW0NASF0oW0NAQEhdKFtPSF0pW0NASF0xW09IXSluKFtjSF1uMiljKGMyMyluW2NIXWMoPU8pW25IXTM=

>  <s_epik_cmdline>  (86) 
J2VwaWtfcHl0aG9uJywgJy1waHQnLCAnMi4wJywgJy1waCcsICc3LjAnLCAnLXRuJywgJzgnLCAnLW1hJywgJzIwMCcsICctaW1hZScsICc8aW5maWxlLm1hZT4nLCAnLW9tYWUnLCAnPG91dGZpbGUubWFlPic=

>  <r_epik_Ionization_Penalty>  (86) 
0.146582

>  <r_epik_Ionization_Penalty_Charging>  (86) 
0.112852

>  <r_epik_Ionization_Penalty_Neutral>  (86) 
0.0337299

>  <r_epik_State_Penalty>  (86) 
0.124542

>  <r_epik_Charging_Adjusted_Penalty>  (86) 
0.237394

>  <i_epik_Tot_Q>  (86) 
-1

>  <i_epik_Tot_abs_Q>  (86) 
1

>  <s_epik_Chemistry_Notes>  (86) 
This compound contains an acetal/aminal-like group ( X-CH(R)-Y where X, Y are N, S, or O) that may be acid/base labile, releasing an aldehyde.

>  <s_lp_Force_Field>  (86) 
OPLS3e

>  <r_lp_Energy>  (86) 
53.9275

>  <b_lp_Chiralities_Consistent>  (86) 
1

>  <s_lp_Variant>  (86) 
30:0-1

>  <s_i_glide_gridfile>  (86) 
pfpi4k_grid

>  <i_i_glide_lignum>  (86) 
41

>  <i_i_glide_rotatable_bonds>  (86) 
6

>  <r_i_docking_score>  (86) 
-3.86645

>  <r_i_glide_ligand_efficiency>  (86) 
-0.175748

>  <r_i_glide_ligand_efficiency_sa>  (86) 
-0.492452

>  <r_i_glide_ligand_efficiency_ln>  (86) 
-0.945102

>  <r_i_glide_gscore>  (86) 
-3.86645

>  <r_i_glide_lipo>  (86) 
-0.287327

>  <r_i_glide_hbond>  (86) 
-0.274947

>  <r_i_glide_metal>  (86) 
-0

>  <r_i_glide_rewards>  (86) 
-1.62896

>  <r_i_glide_evdw>  (86) 
-23.7409

>  <r_i_glide_ecoul>  (86) 
-7.1431

>  <r_i_glide_erotb>  (86) 
0.583994

>  <r_i_glide_esite>  (86) 
-0.000707012

>  <r_i_glide_emodel>  (86) 
-41.0892

>  <r_i_glide_energy>  (86) 
-30.884

>  <r_i_glide_einternal>  (86) 
2.3305

>  <r_i_glide_intrahb_reward>  (86) 
-0

>  <i_i_glide_confnum>  (86) 
4

>  <i_i_glide_posenum>  (86) 
10

>  <r_i_glide_eff_state_penalty>  (86) 
0

>  <ligand_id>  (86) 
30

>  <original_smiles>  (86) 
CCNC(=O)C1OC(n2cnc3[nH]c(=O)cnc32)C(O)C1O

>  <smiles>  (86) 
[H]OC1([H])C([H])(C(=O)N([H])C([H])([H])C([H])([H])[H])OC([H])(n2c([H])nc3[n-]c(=O)c([H])nc32)C1([H])O[H]

$$$$
30:1:0
     RDKit          3D

 37 39  0  0  1  0  0  0  0  0999 V2000
    2.9235   -0.6074   -4.2250 C   0  0  0  0  0  0  0  0  0  0  0  0
    2.6116   -2.0825   -3.9280 C   0  0  0  0  0  0  0  0  0  0  0  0
    3.0977   -2.4883   -2.6208 N   0  0  0  0  0  0  0  0  0  0  0  0
    4.2951   -3.0488   -2.3913 C   0  0  0  0  0  0  0  0  0  0  0  0
    5.1483   -3.1918   -3.2649 O   0  0  0  0  0  0  0  0  0  0  0  0
    4.5504   -3.5289   -0.9575 C   0  0  2  0  0  0  0  0  0  0  0  0
    3.3151   -3.6476   -0.2367 O   0  0  0  0  0  0  0  0  0  0  0  0
    3.4649   -3.1598    1.0639 C   0  0  1  0  0  0  0  0  0  0  0  0
    2.9338   -4.1363    2.0691 N   0  0  0  0  0  0  0  0  0  0  0  0
    3.0445   -4.0533    3.4135 C   0  0  0  0  0  0  0  0  0  0  0  0
    2.4857   -5.0087    4.1537 N   0  0  0  0  0  0  0  0  0  0  0  0
    1.9256   -5.8057    3.1747 C   0  0  0  0  0  0  0  0  0  0  0  0
    1.2136   -6.9209    3.3660 N   0  0  0  0  0  0  0  0  0  0  0  0
    0.7566   -7.5075    2.2296 C   0  0  0  0  0  0  0  0  0  0  0  0
    0.0111   -8.6442    2.3321 O   0  0  0  0  0  0  0  0  0  0  0  0
    1.0090   -6.9772    0.9468 C   0  0  0  0  0  0  0  0  0  0  0  0
    1.7239   -5.8557    0.7171 N   0  0  0  0  0  0  0  0  0  0  0  0
    2.1877   -5.2847    1.8721 C   0  0  0  0  0  0  0  0  0  0  0  0
    4.9627   -2.8938    1.2775 C   0  0  1  0  0  0  0  0  0  0  0  0
    5.6705   -4.0277    1.7694 O   0  0  0  0  0  0  0  0  0  0  0  0
    5.3930   -2.5497   -0.1315 C   0  0  1  0  0  0  0  0  0  0  0  0
    6.7939   -2.6934   -0.2890 O   0  0  0  0  0  0  0  0  0  0  0  0
    2.5214   -0.3150   -5.1960 H   0  0  0  0  0  0  0  0  0  0  0  0
    3.9968   -0.4178   -4.2354 H   0  0  0  0  0  0  0  0  0  0  0  0
    2.4807    0.0520   -3.4784 H   0  0  0  0  0  0  0  0  0  0  0  0
    1.5374   -2.2623   -3.9569 H   0  0  0  0  0  0  0  0  0  0  0  0
    3.0348   -2.7213   -4.7036 H   0  0  0  0  0  0  0  0  0  0  0  0
    2.4626   -2.3883   -1.8380 H   0  0  0  0  0  0  0  0  0  0  0  0
    5.0162   -4.5156   -0.9761 H   0  0  0  0  0  0  0  0  0  0  0  0
    2.8378   -2.2712    1.1679 H   0  0  0  0  0  0  0  0  0  0  0  0
    3.5858   -3.2435    3.8742 H   0  0  0  0  0  0  0  0  0  0  0  0
    0.6069   -7.4561    0.0781 H   0  0  0  0  0  0  0  0  0  0  0  0
    5.0850   -2.0617    1.9628 H   0  0  0  0  0  0  0  0  0  0  0  0
    6.5863   -3.8086    1.8562 H   0  0  0  0  0  0  0  0  0  0  0  0
    5.1078   -1.5237   -0.3628 H   0  0  0  0  0  0  0  0  0  0  0  0
    7.0063   -3.6038   -0.1436 H   0  0  0  0  0  0  0  0  0  0  0  0
   -0.0935   -9.0793    1.4928 H   0  0  0  0  0  0  0  0  0  0  0  0
  1  2  1  0
  1 23  1  0
  1 24  1  0
  1 25  1  0
  2  3  1  0
  2 26  1  0
  2 27  1  0
  3  4  1  0
  3 28  1  0
  4  5  2  0
  4  6  1  0
  6 21  1  0
  6  7  1  0
  6 29  1  6
  7  8  1  0
  8  9  1  0
  8 19  1  0
  8 30  1  6
  9 18  1  0
  9 10  1  0
 10 11  2  0
 10 31  1  0
 11 12  1  0
 12 18  2  0
 12 13  1  0
 13 14  2  0
 14 15  1  0
 14 16  1  0
 15 37  1  0
 16 17  2  0
 16 32  1  0
 17 18  1  0
 19 20  1  0
 19 21  1  0
 19 33  1  1
 20 34  1  0
 21 22  1  0
 21 35  1  6
 22 36  1  0
M  END
>  <i_m_ct_stereo_status>  (87) 
1

>  <s_m_source_file>  (87) 
/var/tmp/pbs.5076255.sched01/tmpbdos_d33/0hajo06zg.sdf

>  <i_m_source_file_index>  (87) 
42

>  <i_lp_mmshare_version>  (87) 
48012

>  <i_f3d_flags>  (87) 
0

>  <s_epik_input>  (87) 
W0NIM11bQ0gyXVtOSF1DKD1PKVtDQEBIXTFPW0NASF0oW0NAQEhdKFtPSF0pW0NASF0xW09IXSluKFtjSF1uMiljKGMyMyluW2NIXWMoPU8pW25IXTM=

>  <s_epik_cmdline>  (87) 
J2VwaWtfcHl0aG9uJywgJy1waHQnLCAnMi4wJywgJy1waCcsICc3LjAnLCAnLXRuJywgJzgnLCAnLW1hJywgJzIwMCcsICctaW1hZScsICc8aW5maWxlLm1hZT4nLCAnLW9tYWUnLCAnPG91dGZpbGUubWFlPic=

>  <r_epik_Ionization_Penalty>  (87) 
1.03812

>  <r_epik_Ionization_Penalty_Charging>  (87) 
0

>  <r_epik_Ionization_Penalty_Neutral>  (87) 
1.03812

>  <r_epik_State_Penalty>  (87) 
1.11177

>  <r_epik_Charging_Adjusted_Penalty>  (87) 
1.11177

>  <i_epik_Tot_Q>  (87) 
0

>  <i_epik_Tot_abs_Q>  (87) 
0

>  <s_epik_Chemistry_Notes>  (87) 
This compound contains an acetal/aminal-like group ( X-CH(R)-Y where X, Y are N, S, or O) that may be acid/base labile, releasing an aldehyde.

>  <s_lp_Force_Field>  (87) 
OPLS3e

>  <r_lp_Energy>  (87) 
26.8195

>  <b_lp_Chiralities_Consistent>  (87) 
1

>  <s_lp_Variant>  (87) 
30:0-2

>  <s_i_glide_gridfile>  (87) 
pfpi4k_grid

>  <i_i_glide_lignum>  (87) 
42

>  <i_i_glide_rotatable_bonds>  (87) 
7

>  <r_i_docking_score>  (87) 
-3.98874

>  <r_i_glide_ligand_efficiency>  (87) 
-0.181306

>  <r_i_glide_ligand_efficiency_sa>  (87) 
-0.508028

>  <r_i_glide_ligand_efficiency_ln>  (87) 
-0.974994

>  <r_i_glide_gscore>  (87) 
-3.98874

>  <r_i_glide_lipo>  (87) 
-0.374737

>  <r_i_glide_hbond>  (87) 
-0.415108

>  <r_i_glide_metal>  (87) 
-0

>  <r_i_glide_rewards>  (87) 
-1.30049

>  <r_i_glide_evdw>  (87) 
-26.7252

>  <r_i_glide_ecoul>  (87) 
-7.025

>  <r_i_glide_erotb>  (87) 
0.580657

>  <r_i_glide_esite>  (87) 
-0.0890459

>  <r_i_glide_emodel>  (87) 
-42.9899

>  <r_i_glide_energy>  (87) 
-33.7502

>  <r_i_glide_einternal>  (87) 
1.95476

>  <r_i_glide_intrahb_reward>  (87) 
-0

>  <i_i_glide_confnum>  (87) 
2

>  <i_i_glide_posenum>  (87) 
18

>  <r_i_glide_eff_state_penalty>  (87) 
0

>  <ligand_id>  (87) 
30

>  <original_smiles>  (87) 
CCNC(=O)C1OC(n2cnc3[nH]c(=O)cnc32)C(O)C1O

>  <smiles>  (87) 
[H]Oc1nc2nc([H])n(C3([H])OC([H])(C(=O)N([H])C([H])([H])C([H])([H])[H])C([H])(O[H])C3([H])O[H])c2nc1[H]

$$$$
30:1:1
     RDKit          3D

 37 39  0  0  1  0  0  0  0  0999 V2000
    2.8974    1.2189   -5.2096 C   0  0  0  0  0  0  0  0  0  0  0  0
    3.5763   -0.0825   -4.8093 C   0  0  0  0  0  0  0  0  0  0  0  0
    3.4877   -0.3132   -3.3782 N   0  0  0  0  0  0  0  0  0  0  0  0
    4.0602   -1.3648   -2.7752 C   0  0  0  0  0  0  0  0  0  0  0  0
    4.8238   -2.1329   -3.3636 O   0  0  0  0  0  0  0  0  0  0  0  0
    3.6946   -1.6033   -1.3083 C   0  0  2  0  0  0  0  0  0  0  0  0
    4.5442   -0.8371   -0.4502 O   0  0  0  0  0  0  0  0  0  0  0  0
    4.8552   -1.5862    0.6949 C   0  0  1  0  0  0  0  0  0  0  0  0
    4.6306   -0.7828    1.9396 N   0  0  0  0  0  0  0  0  0  0  0  0
    5.3416   -0.8301    3.0820 C   0  0  0  0  0  0  0  0  0  0  0  0
    4.9479   -0.0587    4.1016 N   0  0  0  0  0  0  0  0  0  0  0  0
    3.8488    0.5703    3.5419 C   0  0  0  0  0  0  0  0  0  0  0  0
    3.0695    1.5005    4.1120 N   0  0  0  0  0  0  0  0  0  0  0  0
    2.0806    1.9836    3.3164 C   0  0  0  0  0  0  0  0  0  0  0  0
    1.2881    2.9764    3.7981 O   0  0  0  0  0  0  0  0  0  0  0  0
    1.8490    1.5032    2.0068 C   0  0  0  0  0  0  0  0  0  0  0  0
    2.6028    0.5486    1.4134 N   0  0  0  0  0  0  0  0  0  0  0  0
    3.6215    0.1213    2.2051 C   0  0  0  0  0  0  0  0  0  0  0  0
    4.0083   -2.8641    0.6653 C   0  0  1  0  0  0  0  0  0  0  0  0
    2.7554   -2.7071    1.3113 O   0  0  0  0  0  0  0  0  0  0  0  0
    3.8412   -3.0496   -0.8255 C   0  0  1  0  0  0  0  0  0  0  0  0
    2.7250   -3.8572   -1.1344 O   0  0  0  0  0  0  0  0  0  0  0  0
    2.9796    1.3373   -6.2886 H   0  0  0  0  0  0  0  0  0  0  0  0
    3.3693    2.0766   -4.7222 H   0  0  0  0  0  0  0  0  0  0  0  0
    1.8362    1.2142   -4.9564 H   0  0  0  0  0  0  0  0  0  0  0  0
    3.1178   -0.9206   -5.3342 H   0  0  0  0  0  0  0  0  0  0  0  0
    4.6145   -0.0491   -5.1114 H   0  0  0  0  0  0  0  0  0  0  0  0
    2.8786    0.2944   -2.8405 H   0  0  0  0  0  0  0  0  0  0  0  0
    2.6649   -1.2895   -1.1585 H   0  0  0  0  0  0  0  0  0  0  0  0
    5.9222   -1.7847    0.6703 H   0  0  0  0  0  0  0  0  0  0  0  0
    6.1799   -1.5006    3.1763 H   0  0  0  0  0  0  0  0  0  0  0  0
    1.0576    1.9160    1.3963 H   0  0  0  0  0  0  0  0  0  0  0  0
    4.5555   -3.6814    1.1254 H   0  0  0  0  0  0  0  0  0  0  0  0
    2.2889   -2.0072    0.8663 H   0  0  0  0  0  0  0  0  0  0  0  0
    4.7492   -3.5038   -1.2132 H   0  0  0  0  0  0  0  0  0  0  0  0
    2.9620   -4.4644   -1.8330 H   0  0  0  0  0  0  0  0  0  0  0  0
    0.7217    3.3272    3.1223 H   0  0  0  0  0  0  0  0  0  0  0  0
  1  2  1  0
  1 23  1  0
  1 24  1  0
  1 25  1  0
  2  3  1  0
  2 26  1  0
  2 27  1  0
  3  4  1  0
  3 28  1  0
  4  5  2  0
  4  6  1  0
  6 21  1  0
  6  7  1  0
  6 29  1  6
  7  8  1  0
  8  9  1  0
  8 19  1  0
  8 30  1  6
  9 18  1  0
  9 10  1  0
 10 11  2  0
 10 31  1  0
 11 12  1  0
 12 18  2  0
 12 13  1  0
 13 14  2  0
 14 15  1  0
 14 16  1  0
 15 37  1  0
 16 17  2  0
 16 32  1  0
 17 18  1  0
 19 20  1  0
 19 21  1  0
 19 33  1  1
 20 34  1  0
 21 22  1  0
 21 35  1  6
 22 36  1  0
M  END
>  <i_m_ct_stereo_status>  (88) 
1

>  <s_m_source_file>  (88) 
/var/tmp/pbs.5076255.sched01/tmpbdos_d33/0hajo06zg.sdf

>  <i_m_source_file_index>  (88) 
42

>  <i_lp_mmshare_version>  (88) 
48012

>  <i_f3d_flags>  (88) 
0

>  <s_epik_input>  (88) 
W0NIM11bQ0gyXVtOSF1DKD1PKVtDQEBIXTFPW0NASF0oW0NAQEhdKFtPSF0pW0NASF0xW09IXSluKFtjSF1uMiljKGMyMyluW2NIXWMoPU8pW25IXTM=

>  <s_epik_cmdline>  (88) 
J2VwaWtfcHl0aG9uJywgJy1waHQnLCAnMi4wJywgJy1waCcsICc3LjAnLCAnLXRuJywgJzgnLCAnLW1hJywgJzIwMCcsICctaW1hZScsICc8aW5maWxlLm1hZT4nLCAnLW9tYWUnLCAnPG91dGZpbGUubWFlPic=

>  <r_epik_Ionization_Penalty>  (88) 
1.03812

>  <r_epik_Ionization_Penalty_Charging>  (88) 
0

>  <r_epik_Ionization_Penalty_Neutral>  (88) 
1.03812

>  <r_epik_State_Penalty>  (88) 
1.11177

>  <r_epik_Charging_Adjusted_Penalty>  (88) 
1.11177

>  <i_epik_Tot_Q>  (88) 
0

>  <i_epik_Tot_abs_Q>  (88) 
0

>  <s_epik_Chemistry_Notes>  (88) 
This compound contains an acetal/aminal-like group ( X-CH(R)-Y where X, Y are N, S, or O) that may be acid/base labile, releasing an aldehyde.

>  <s_lp_Force_Field>  (88) 
OPLS3e

>  <r_lp_Energy>  (88) 
26.8195

>  <b_lp_Chiralities_Consistent>  (88) 
1

>  <s_lp_Variant>  (88) 
30:0-2

>  <s_i_glide_gridfile>  (88) 
pfpi4k_grid

>  <i_i_glide_lignum>  (88) 
42

>  <i_i_glide_rotatable_bonds>  (88) 
7

>  <r_i_docking_score>  (88) 
-3.90475

>  <r_i_glide_ligand_efficiency>  (88) 
-0.177489

>  <r_i_glide_ligand_efficiency_sa>  (88) 
-0.497331

>  <r_i_glide_ligand_efficiency_ln>  (88) 
-0.954464

>  <r_i_glide_gscore>  (88) 
-3.90475

>  <r_i_glide_lipo>  (88) 
-0.212189

>  <r_i_glide_hbond>  (88) 
-0.140723

>  <r_i_glide_metal>  (88) 
-0

>  <r_i_glide_rewards>  (88) 
-1.65559

>  <r_i_glide_evdw>  (88) 
-25.9554

>  <r_i_glide_ecoul>  (88) 
-7.64768

>  <r_i_glide_erotb>  (88) 
0.580657

>  <r_i_glide_esite>  (88) 
-0.0319909

>  <r_i_glide_emodel>  (88) 
-42.1515

>  <r_i_glide_energy>  (88) 
-33.6031

>  <r_i_glide_einternal>  (88) 
2.7116

>  <r_i_glide_intrahb_reward>  (88) 
-0

>  <i_i_glide_confnum>  (88) 
2

>  <i_i_glide_posenum>  (88) 
28

>  <r_i_glide_eff_state_penalty>  (88) 
0

>  <ligand_id>  (88) 
30

>  <original_smiles>  (88) 
CCNC(=O)C1OC(n2cnc3[nH]c(=O)cnc32)C(O)C1O

>  <smiles>  (88) 
[H]Oc1nc2nc([H])n(C3([H])OC([H])(C(=O)N([H])C([H])([H])C([H])([H])[H])C([H])(O[H])C3([H])O[H])c2nc1[H]

$$$$
30:1:2
     RDKit          3D

 37 39  0  0  1  0  0  0  0  0999 V2000
    3.3933   -0.2124   -4.9569 C   0  0  0  0  0  0  0  0  0  0  0  0
    3.9246   -1.4539   -4.2308 C   0  0  0  0  0  0  0  0  0  0  0  0
    3.5460   -1.4542   -2.8232 N   0  0  0  0  0  0  0  0  0  0  0  0
    4.3854   -1.6551   -1.7948 C   0  0  0  0  0  0  0  0  0  0  0  0
    5.6002   -1.8208   -1.9201 O   0  0  0  0  0  0  0  0  0  0  0  0
    3.7632   -1.6686   -0.4013 C   0  0  2  0  0  0  0  0  0  0  0  0
    4.4693   -0.7510    0.4398 O   0  0  0  0  0  0  0  0  0  0  0  0
    4.6233   -1.2977    1.7155 C   0  0  1  0  0  0  0  0  0  0  0  0
    4.2002   -0.3113    2.7607 N   0  0  0  0  0  0  0  0  0  0  0  0
    4.7328   -0.1403    3.9878 C   0  0  0  0  0  0  0  0  0  0  0  0
    4.1821    0.7786    4.7859 N   0  0  0  0  0  0  0  0  0  0  0  0
    3.1766    1.2710    3.9711 C   0  0  0  0  0  0  0  0  0  0  0  0
    2.3037    2.2455    4.2623 N   0  0  0  0  0  0  0  0  0  0  0  0
    1.4306    2.5427    3.2702 C   0  0  0  0  0  0  0  0  0  0  0  0
    0.5560    3.5768    3.4428 O   0  0  0  0  0  0  0  0  0  0  0  0
    1.4053    1.8397    2.0412 C   0  0  0  0  0  0  0  0  0  0  0  0
    2.2630    0.8451    1.7211 N   0  0  0  0  0  0  0  0  0  0  0  0
    3.1572    0.5932    2.7161 C   0  0  0  0  0  0  0  0  0  0  0  0
    3.8086   -2.5968    1.7624 C   0  0  1  0  0  0  0  0  0  0  0  0
    2.4712   -2.3836    2.1775 O   0  0  0  0  0  0  0  0  0  0  0  0
    3.8775   -3.0221    0.3057 C   0  0  1  0  0  0  0  0  0  0  0  0
    2.8585   -3.9461   -0.0524 O   0  0  0  0  0  0  0  0  0  0  0  0
    3.6830   -0.2302   -6.0073 H   0  0  0  0  0  0  0  0  0  0  0  0
    3.7870    0.7027   -4.5128 H   0  0  0  0  0  0  0  0  0  0  0  0
    2.3043   -0.1684   -4.9163 H   0  0  0  0  0  0  0  0  0  0  0  0
    3.5278   -2.3610   -4.6962 H   0  0  0  0  0  0  0  0  0  0  0  0
    5.0056   -1.4841   -4.3278 H   0  0  0  0  0  0  0  0  0  0  0  0
    2.5624   -1.3331   -2.6020 H   0  0  0  0  0  0  0  0  0  0  0  0
    2.7221   -1.3614   -0.4281 H   0  0  0  0  0  0  0  0  0  0  0  0
    5.6896   -1.4540    1.8819 H   0  0  0  0  0  0  0  0  0  0  0  0
    5.5623   -0.7441    4.3240 H   0  0  0  0  0  0  0  0  0  0  0  0
    0.6934    2.1099    1.2771 H   0  0  0  0  0  0  0  0  0  0  0  0
    4.2875   -3.3101    2.4322 H   0  0  0  0  0  0  0  0  0  0  0  0
    2.0841   -1.7460    1.5891 H   0  0  0  0  0  0  0  0  0  0  0  0
    4.8502   -3.4721    0.1134 H   0  0  0  0  0  0  0  0  0  0  0  0
    2.9711   -4.1919   -0.9603 H   0  0  0  0  0  0  0  0  0  0  0  0
    0.2183    3.8855    2.6051 H   0  0  0  0  0  0  0  0  0  0  0  0
  1  2  1  0
  1 23  1  0
  1 24  1  0
  1 25  1  0
  2  3  1  0
  2 26  1  0
  2 27  1  0
  3  4  1  0
  3 28  1  0
  4  5  2  0
  4  6  1  0
  6 21  1  0
  6  7  1  0
  6 29  1  6
  7  8  1  0
  8  9  1  0
  8 19  1  0
  8 30  1  1
  9 18  1  0
  9 10  1  0
 10 11  2  0
 10 31  1  0
 11 12  1  0
 12 18  2  0
 12 13  1  0
 13 14  2  0
 14 15  1  0
 14 16  1  0
 15 37  1  0
 16 17  2  0
 16 32  1  0
 17 18  1  0
 19 20  1  0
 19 21  1  0
 19 33  1  1
 20 34  1  0
 21 22  1  0
 21 35  1  1
 22 36  1  0
M  END
>  <i_m_ct_stereo_status>  (89) 
1

>  <s_m_source_file>  (89) 
/var/tmp/pbs.5076255.sched01/tmpbdos_d33/0hajo06zg.sdf

>  <i_m_source_file_index>  (89) 
42

>  <i_lp_mmshare_version>  (89) 
48012

>  <i_f3d_flags>  (89) 
0

>  <s_epik_input>  (89) 
W0NIM11bQ0gyXVtOSF1DKD1PKVtDQEBIXTFPW0NASF0oW0NAQEhdKFtPSF0pW0NASF0xW09IXSluKFtjSF1uMiljKGMyMyluW2NIXWMoPU8pW25IXTM=

>  <s_epik_cmdline>  (89) 
J2VwaWtfcHl0aG9uJywgJy1waHQnLCAnMi4wJywgJy1waCcsICc3LjAnLCAnLXRuJywgJzgnLCAnLW1hJywgJzIwMCcsICctaW1hZScsICc8aW5maWxlLm1hZT4nLCAnLW9tYWUnLCAnPG91dGZpbGUubWFlPic=

>  <r_epik_Ionization_Penalty>  (89) 
1.03812

>  <r_epik_Ionization_Penalty_Charging>  (89) 
0

>  <r_epik_Ionization_Penalty_Neutral>  (89) 
1.03812

>  <r_epik_State_Penalty>  (89) 
1.11177

>  <r_epik_Charging_Adjusted_Penalty>  (89) 
1.11177

>  <i_epik_Tot_Q>  (89) 
0

>  <i_epik_Tot_abs_Q>  (89) 
0

>  <s_epik_Chemistry_Notes>  (89) 
This compound contains an acetal/aminal-like group ( X-CH(R)-Y where X, Y are N, S, or O) that may be acid/base labile, releasing an aldehyde.

>  <s_lp_Force_Field>  (89) 
OPLS3e

>  <r_lp_Energy>  (89) 
26.8195

>  <b_lp_Chiralities_Consistent>  (89) 
1

>  <s_lp_Variant>  (89) 
30:0-2

>  <s_i_glide_gridfile>  (89) 
pfpi4k_grid

>  <i_i_glide_lignum>  (89) 
42

>  <i_i_glide_rotatable_bonds>  (89) 
7

>  <r_i_docking_score>  (89) 
-3.77167

>  <r_i_glide_ligand_efficiency>  (89) 
-0.171439

>  <r_i_glide_ligand_efficiency_sa>  (89) 
-0.48038

>  <r_i_glide_ligand_efficiency_ln>  (89) 
-0.921933

>  <r_i_glide_gscore>  (89) 
-3.77167

>  <r_i_glide_lipo>  (89) 
-0.183247

>  <r_i_glide_hbond>  (89) 
-0.16

>  <r_i_glide_metal>  (89) 
-0

>  <r_i_glide_rewards>  (89) 
-1.59797

>  <r_i_glide_evdw>  (89) 
-26.8449

>  <r_i_glide_ecoul>  (89) 
-6.6515

>  <r_i_glide_erotb>  (89) 
0.580657

>  <r_i_glide_esite>  (89) 
-0.0711358

>  <r_i_glide_emodel>  (89) 
-42.4099

>  <r_i_glide_energy>  (89) 
-33.4964

>  <r_i_glide_einternal>  (89) 
1.61325

>  <r_i_glide_intrahb_reward>  (89) 
-0

>  <i_i_glide_confnum>  (89) 
2

>  <i_i_glide_posenum>  (89) 
27

>  <r_i_glide_eff_state_penalty>  (89) 
0

>  <ligand_id>  (89) 
30

>  <original_smiles>  (89) 
CCNC(=O)C1OC(n2cnc3[nH]c(=O)cnc32)C(O)C1O

>  <smiles>  (89) 
[H]Oc1nc2nc([H])n(C3([H])OC([H])(C(=O)N([H])C([H])([H])C([H])([H])[H])C([H])(O[H])C3([H])O[H])c2nc1[H]

$$$$
30:2:0
     RDKit          3D

 37 39  0  0  1  0  0  0  0  0999 V2000
    4.6065   -6.7749    0.3490 C   0  0  0  0  0  0  0  0  0  0  0  0
    3.3261   -5.9756    0.6102 C   0  0  0  0  0  0  0  0  0  0  0  0
    2.4719   -6.6438    1.5815 N   0  0  0  0  0  0  0  0  0  0  0  0
    1.1279   -6.6681    1.5326 C   0  0  0  0  0  0  0  0  0  0  0  0
    0.4708   -6.2634    0.5749 O   0  0  0  0  0  0  0  0  0  0  0  0
    0.4199   -7.1795    2.7898 C   0  0  2  0  0  0  0  0  0  0  0  0
    1.2559   -6.9752    3.9325 O   0  0  0  0  0  0  0  0  0  0  0  0
    1.1514   -8.0656    4.7990 C   0  0  1  0  0  0  0  0  0  0  0  0
    0.8191   -7.6563    6.2032 N   0  0  0  0  0  0  0  0  0  0  0  0
    0.6793   -8.5016    7.2515 C   0  0  0  0  0  0  0  0  0  0  0  0
    0.2915   -7.9316    8.3962 N   0  0  0  0  0  0  0  0  0  0  0  0
    0.2161   -6.5936    8.0363 C   0  0  0  0  0  0  0  0  0  0  0  0
   -0.1817   -5.4682    8.7951 N   0  0  0  0  0  0  0  0  0  0  0  0
   -0.2608   -4.2308    8.2377 C   0  0  0  0  0  0  0  0  0  0  0  0
   -0.5926   -3.2121    8.8413 O   0  0  0  0  0  0  0  0  0  0  0  0
    0.1039   -4.1785    6.7422 C   0  0  0  0  0  0  0  0  0  0  0  0
    0.4630   -5.1923    6.0380 N   0  0  0  0  0  0  0  0  0  0  0  0
    0.5142   -6.3952    6.7134 C   0  0  0  0  0  0  0  0  0  0  0  0
    0.0519   -8.9708    4.2422 C   0  0  1  0  0  0  0  0  0  0  0  0
   -1.2451   -8.6596    4.7516 O   0  0  0  0  0  0  0  0  0  0  0  0
    0.1469   -8.6816    2.7635 C   0  0  1  0  0  0  0  0  0  0  0  0
   -1.0240   -9.0744    2.0777 O   0  0  0  0  0  0  0  0  0  0  0  0
   -0.3999   -5.6051    9.7739 H   0  0  0  0  0  0  0  0  0  0  0  0
    5.2227   -6.2550   -0.3867 H   0  0  0  0  0  0  0  0  0  0  0  0
    4.3892   -7.7712   -0.0410 H   0  0  0  0  0  0  0  0  0  0  0  0
    5.1986   -6.8884    1.2577 H   0  0  0  0  0  0  0  0  0  0  0  0
    3.5768   -4.9807    0.9831 H   0  0  0  0  0  0  0  0  0  0  0  0
    2.7924   -5.8253   -0.3210 H   0  0  0  0  0  0  0  0  0  0  0  0
    2.9081   -7.0135    2.4135 H   0  0  0  0  0  0  0  0  0  0  0  0
   -0.5172   -6.6368    2.9386 H   0  0  0  0  0  0  0  0  0  0  0  0
    2.1358   -8.5201    4.8685 H   0  0  0  0  0  0  0  0  0  0  0  0
    0.8160   -9.5731    7.1510 H   0  0  0  0  0  0  0  0  0  0  0  0
    0.0576   -3.2006    6.2377 H   0  0  0  0  0  0  0  0  0  0  0  0
    0.3169  -10.0044    4.4653 H   0  0  0  0  0  0  0  0  0  0  0  0
   -1.6671   -9.5191    4.8779 H   0  0  0  0  0  0  0  0  0  0  0  0
    1.0061   -9.1985    2.3328 H   0  0  0  0  0  0  0  0  0  0  0  0
   -0.7757   -9.2942    1.1794 H   0  0  0  0  0  0  0  0  0  0  0  0
  1  2  1  0
  1 24  1  0
  1 25  1  0
  1 26  1  0
  2  3  1  0
  2 27  1  0
  2 28  1  0
  3  4  1  0
  3 29  1  0
  4  5  2  0
  4  6  1  0
  6 21  1  0
  6  7  1  0
  6 30  1  1
  7  8  1  0
  8  9  1  0
  8 19  1  0
  8 31  1  1
  9 18  1  0
  9 10  1  0
 10 11  2  0
 10 32  1  0
 11 12  1  0
 12 18  2  0
 12 13  1  0
 13 23  1  0
 13 14  1  0
 14 15  2  0
 14 16  1  0
 16 17  2  0
 16 33  1  0
 17 18  1  0
 19 20  1  0
 19 21  1  0
 19 34  1  6
 20 35  1  0
 21 22  1  0
 21 36  1  6
 22 37  1  0
M  END
>  <i_m_ct_stereo_status>  (90) 
1

>  <s_m_source_file>  (90) 
/var/tmp/pbs.5076255.sched01/tmpe2rv0q7i/42k21vmx8r.sdf

>  <i_m_source_file_index>  (90) 
1

>  <i_lp_mmshare_version>  (90) 
48012

>  <i_f3d_flags>  (90) 
0

>  <s_epik_input>  (90) 
W0NIM11bQ0gyXVtOSF1DKD1PKVtDQEBIXTFPW0NASF0oW0NAQEhdKFtPSF0pW0NASF0xW09IXSluKFtjSF1uMiljKGMyMyluW2NIXWMoPU8pW25IXTM=

>  <s_epik_cmdline>  (90) 
J2VwaWtfcHl0aG9uJywgJy1waHQnLCAnMi4wJywgJy1waCcsICc3LjAnLCAnLXRuJywgJzgnLCAnLW1hJywgJzIwMCcsICctaW1hZScsICc8aW5maWxlLm1hZT4nLCAnLW9tYWUnLCAnPG91dGZpbGUubWFlPic=

>  <r_epik_Ionization_Penalty>  (90) 
1.75533

>  <r_epik_Ionization_Penalty_Charging>  (90) 
1.75532

>  <r_epik_Ionization_Penalty_Neutral>  (90) 
1.15263e-05

>  <r_epik_State_Penalty>  (90) 
1.96225

>  <r_epik_Charging_Adjusted_Penalty>  (90) 
3.71757

>  <i_epik_Tot_Q>  (90) 
0

>  <i_epik_Tot_abs_Q>  (90) 
0

>  <s_epik_Chemistry_Notes>  (90) 
This compound contains an acetal/aminal-like group ( X-CH(R)-Y where X, Y are N, S, or O) that may be acid/base labile, releasing an aldehyde.

>  <s_lp_Force_Field>  (90) 
OPLS3e

>  <r_lp_Energy>  (90) 
41.8771

>  <b_lp_Chiralities_Consistent>  (90) 
1

>  <s_lp_Variant>  (90) 
30:0-3

>  <s_i_glide_gridfile>  (90) 
pfpi4k_grid

>  <i_i_glide_lignum>  (90) 
1

>  <i_i_glide_rotatable_bonds>  (90) 
6

>  <r_i_docking_score>  (90) 
-4.91595

>  <r_i_glide_ligand_efficiency>  (90) 
-0.223452

>  <r_i_glide_ligand_efficiency_sa>  (90) 
-0.626123

>  <r_i_glide_ligand_efficiency_ln>  (90) 
-1.20164

>  <r_i_glide_gscore>  (90) 
-4.91595

>  <r_i_glide_lipo>  (90) 
-0.128945

>  <r_i_glide_hbond>  (90) 
-0.334494

>  <r_i_glide_metal>  (90) 
-0

>  <r_i_glide_rewards>  (90) 
-1.30038

>  <r_i_glide_evdw>  (90) 
-20.3898

>  <r_i_glide_ecoul>  (90) 
-16.9583

>  <r_i_glide_erotb>  (90) 
0.580657

>  <r_i_glide_esite>  (90) 
-0.169557

>  <r_i_glide_emodel>  (90) 
-47.7707

>  <r_i_glide_energy>  (90) 
-37.3481

>  <r_i_glide_einternal>  (90) 
5.19533

>  <r_i_glide_intrahb_reward>  (90) 
-0

>  <i_i_glide_confnum>  (90) 
3

>  <i_i_glide_posenum>  (90) 
2

>  <r_i_glide_eff_state_penalty>  (90) 
0

>  <ligand_id>  (90) 
30

>  <original_smiles>  (90) 
CCNC(=O)C1OC(n2cnc3[nH]c(=O)cnc32)C(O)C1O

>  <smiles>  (90) 
[H]OC1([H])C([H])(C(=O)N([H])C([H])([H])C([H])([H])[H])OC([H])(n2c([H])nc3c2nc([H])c(=O)n3[H])C1([H])O[H]

$$$$
30:2:1
     RDKit          3D

 37 39  0  0  1  0  0  0  0  0999 V2000
    1.6868   -4.8283    5.9658 C   0  0  0  0  0  0  0  0  0  0  0  0
    1.2208   -5.0666    4.5212 C   0  0  0  0  0  0  0  0  0  0  0  0
    1.9063   -4.2031    3.5681 N   0  0  0  0  0  0  0  0  0  0  0  0
    1.6443   -2.9014    3.3884 C   0  0  0  0  0  0  0  0  0  0  0  0
    0.7849   -2.3009    4.0370 O   0  0  0  0  0  0  0  0  0  0  0  0
    2.4666   -2.1817    2.3067 C   0  0  2  0  0  0  0  0  0  0  0  0
    3.7074   -2.8678    2.0799 O   0  0  0  0  0  0  0  0  0  0  0  0
    4.7474   -1.9435    1.9191 C   0  0  1  0  0  0  0  0  0  0  0  0
    5.5432   -2.2452    0.6844 N   0  0  0  0  0  0  0  0  0  0  0  0
    6.8636   -2.0112    0.5058 C   0  0  0  0  0  0  0  0  0  0  0  0
    7.3369   -2.2571   -0.7191 N   0  0  0  0  0  0  0  0  0  0  0  0
    6.2001   -2.7085   -1.3665 C   0  0  0  0  0  0  0  0  0  0  0  0
    6.0140   -3.0764   -2.7148 N   0  0  0  0  0  0  0  0  0  0  0  0
    4.7918   -3.4529   -3.1795 C   0  0  0  0  0  0  0  0  0  0  0  0
    4.5918   -3.8521   -4.3220 O   0  0  0  0  0  0  0  0  0  0  0  0
    3.6634   -3.3641   -2.1382 C   0  0  0  0  0  0  0  0  0  0  0  0
    3.8128   -3.0256   -0.9095 N   0  0  0  0  0  0  0  0  0  0  0  0
    5.0984   -2.7034   -0.5521 C   0  0  0  0  0  0  0  0  0  0  0  0
    4.1219   -0.5458    1.8596 C   0  0  1  0  0  0  0  0  0  0  0  0
    3.8059   -0.1262    0.5460 O   0  0  0  0  0  0  0  0  0  0  0  0
    2.8727   -0.7562    2.6903 C   0  0  1  0  0  0  0  0  0  0  0  0
    1.8739    0.2054    2.4070 O   0  0  0  0  0  0  0  0  0  0  0  0
    6.8256   -3.1040   -3.3126 H   0  0  0  0  0  0  0  0  0  0  0  0
    1.1630   -5.4958    6.6522 H   0  0  0  0  0  0  0  0  0  0  0  0
    1.4919   -3.8050    6.2923 H   0  0  0  0  0  0  0  0  0  0  0  0
    2.7562   -5.0138    6.0736 H   0  0  0  0  0  0  0  0  0  0  0  0
    1.4123   -6.1013    4.2413 H   0  0  0  0  0  0  0  0  0  0  0  0
    0.1435   -4.9127    4.4477 H   0  0  0  0  0  0  0  0  0  0  0  0
    2.6314   -4.6065    2.9890 H   0  0  0  0  0  0  0  0  0  0  0  0
    1.9084   -2.1753    1.3685 H   0  0  0  0  0  0  0  0  0  0  0  0
    5.4471   -2.0666    2.7438 H   0  0  0  0  0  0  0  0  0  0  0  0
    7.4804   -1.5803    1.2779 H   0  0  0  0  0  0  0  0  0  0  0  0
    2.6588   -3.6288   -2.4662 H   0  0  0  0  0  0  0  0  0  0  0  0
    4.8007    0.1801    2.2975 H   0  0  0  0  0  0  0  0  0  0  0  0
    4.5930   -0.0043    0.0392 H   0  0  0  0  0  0  0  0  0  0  0  0
    3.1383   -0.7137    3.7466 H   0  0  0  0  0  0  0  0  0  0  0  0
    1.6815    0.1507    1.4790 H   0  0  0  0  0  0  0  0  0  0  0  0
  1  2  1  0
  1 24  1  0
  1 25  1  0
  1 26  1  0
  2  3  1  0
  2 27  1  0
  2 28  1  0
  3  4  1  0
  3 29  1  0
  4  5  2  0
  4  6  1  0
  6 21  1  0
  6  7  1  0
  6 30  1  6
  7  8  1  0
  8  9  1  0
  8 19  1  0
  8 31  1  1
  9 18  1  0
  9 10  1  0
 10 11  2  0
 10 32  1  0
 11 12  1  0
 12 18  2  0
 12 13  1  0
 13 23  1  0
 13 14  1  0
 14 15  2  0
 14 16  1  0
 16 17  2  0
 16 33  1  0
 17 18  1  0
 19 20  1  0
 19 21  1  0
 19 34  1  1
 20 35  1  0
 21 22  1  0
 21 36  1  1
 22 37  1  0
M  END
>  <i_m_ct_stereo_status>  (91) 
1

>  <s_m_source_file>  (91) 
/var/tmp/pbs.5076255.sched01/tmpe2rv0q7i/42k21vmx8r.sdf

>  <i_m_source_file_index>  (91) 
1

>  <i_lp_mmshare_version>  (91) 
48012

>  <i_f3d_flags>  (91) 
0

>  <s_epik_input>  (91) 
W0NIM11bQ0gyXVtOSF1DKD1PKVtDQEBIXTFPW0NASF0oW0NAQEhdKFtPSF0pW0NASF0xW09IXSluKFtjSF1uMiljKGMyMyluW2NIXWMoPU8pW25IXTM=

>  <s_epik_cmdline>  (91) 
J2VwaWtfcHl0aG9uJywgJy1waHQnLCAnMi4wJywgJy1waCcsICc3LjAnLCAnLXRuJywgJzgnLCAnLW1hJywgJzIwMCcsICctaW1hZScsICc8aW5maWxlLm1hZT4nLCAnLW9tYWUnLCAnPG91dGZpbGUubWFlPic=

>  <r_epik_Ionization_Penalty>  (91) 
1.75533

>  <r_epik_Ionization_Penalty_Charging>  (91) 
1.75532

>  <r_epik_Ionization_Penalty_Neutral>  (91) 
1.15263e-05

>  <r_epik_State_Penalty>  (91) 
1.96225

>  <r_epik_Charging_Adjusted_Penalty>  (91) 
3.71757

>  <i_epik_Tot_Q>  (91) 
0

>  <i_epik_Tot_abs_Q>  (91) 
0

>  <s_epik_Chemistry_Notes>  (91) 
This compound contains an acetal/aminal-like group ( X-CH(R)-Y where X, Y are N, S, or O) that may be acid/base labile, releasing an aldehyde.

>  <s_lp_Force_Field>  (91) 
OPLS3e

>  <r_lp_Energy>  (91) 
41.8771

>  <b_lp_Chiralities_Consistent>  (91) 
1

>  <s_lp_Variant>  (91) 
30:0-3

>  <s_i_glide_gridfile>  (91) 
pfpi4k_grid

>  <i_i_glide_lignum>  (91) 
1

>  <i_i_glide_rotatable_bonds>  (91) 
6

>  <r_i_docking_score>  (91) 
-4.55306

>  <r_i_glide_ligand_efficiency>  (91) 
-0.206957

>  <r_i_glide_ligand_efficiency_sa>  (91) 
-0.579902

>  <r_i_glide_ligand_efficiency_ln>  (91) 
-1.11293

>  <r_i_glide_gscore>  (91) 
-4.55306

>  <r_i_glide_lipo>  (91) 
-0.231022

>  <r_i_glide_hbond>  (91) 
-0.480351

>  <r_i_glide_metal>  (91) 
-0

>  <r_i_glide_rewards>  (91) 
-2.2824

>  <r_i_glide_evdw>  (91) 
-24.3121

>  <r_i_glide_ecoul>  (91) 
-6.06453

>  <r_i_glide_erotb>  (91) 
0.580657

>  <r_i_glide_esite>  (91) 
-0.0146572

>  <r_i_glide_emodel>  (91) 
-42.5828

>  <r_i_glide_energy>  (91) 
-30.3766

>  <r_i_glide_einternal>  (91) 
0.75893

>  <r_i_glide_intrahb_reward>  (91) 
-0

>  <i_i_glide_confnum>  (91) 
3

>  <i_i_glide_posenum>  (91) 
31

>  <r_i_glide_eff_state_penalty>  (91) 
0

>  <ligand_id>  (91) 
30

>  <original_smiles>  (91) 
CCNC(=O)C1OC(n2cnc3[nH]c(=O)cnc32)C(O)C1O

>  <smiles>  (91) 
[H]OC1([H])C([H])(C(=O)N([H])C([H])([H])C([H])([H])[H])OC([H])(n2c([H])nc3c2nc([H])c(=O)n3[H])C1([H])O[H]

$$$$
30:2:2
     RDKit          3D

 37 39  0  0  1  0  0  0  0  0999 V2000
    0.7539   -6.3808    3.8971 C   0  0  0  0  0  0  0  0  0  0  0  0
    1.2142   -5.0676    4.5325 C   0  0  0  0  0  0  0  0  0  0  0  0
    1.8985   -4.2228    3.5589 N   0  0  0  0  0  0  0  0  0  0  0  0
    1.6388   -2.9220    3.3696 C   0  0  0  0  0  0  0  0  0  0  0  0
    0.7726   -2.3193    4.0053 O   0  0  0  0  0  0  0  0  0  0  0  0
    2.4719   -2.1966    2.3034 C   0  0  2  0  0  0  0  0  0  0  0  0
    3.7084   -2.8875    2.0755 O   0  0  0  0  0  0  0  0  0  0  0  0
    4.7518   -1.9652    1.9219 C   0  0  1  0  0  0  0  0  0  0  0  0
    5.5446   -2.2579    0.6883 N   0  0  0  0  0  0  0  0  0  0  0  0
    6.8588   -2.0193    0.5055 C   0  0  0  0  0  0  0  0  0  0  0  0
    7.3371   -2.2584   -0.7213 N   0  0  0  0  0  0  0  0  0  0  0  0
    6.2009   -2.7099   -1.3635 C   0  0  0  0  0  0  0  0  0  0  0  0
    6.0132   -3.0713   -2.7141 N   0  0  0  0  0  0  0  0  0  0  0  0
    4.7920   -3.4520   -3.1792 C   0  0  0  0  0  0  0  0  0  0  0  0
    4.5900   -3.8485   -4.3231 O   0  0  0  0  0  0  0  0  0  0  0  0
    3.6654   -3.3745   -2.1349 C   0  0  0  0  0  0  0  0  0  0  0  0
    3.8133   -3.0406   -0.9055 N   0  0  0  0  0  0  0  0  0  0  0  0
    5.0994   -2.7136   -0.5489 C   0  0  0  0  0  0  0  0  0  0  0  0
    4.1328   -0.5639    1.8804 C   0  0  1  0  0  0  0  0  0  0  0  0
    3.8166   -0.1266    0.5720 O   0  0  0  0  0  0  0  0  0  0  0  0
    2.8822   -0.7771    2.7085 C   0  0  1  0  0  0  0  0  0  0  0  0
    1.8890    0.1944    2.4360 O   0  0  0  0  0  0  0  0  0  0  0  0
    6.8251   -3.0969   -3.3158 H   0  0  0  0  0  0  0  0  0  0  0  0
    0.2369   -6.9964    4.6351 H   0  0  0  0  0  0  0  0  0  0  0  0
    1.5965   -6.9577    3.5130 H   0  0  0  0  0  0  0  0  0  0  0  0
    0.0637   -6.2028    3.0713 H   0  0  0  0  0  0  0  0  0  0  0  0
    0.3423   -4.5690    4.9598 H   0  0  0  0  0  0  0  0  0  0  0  0
    1.8901   -5.2634    5.3635 H   0  0  0  0  0  0  0  0  0  0  0  0
    2.6566   -4.6216    3.0202 H   0  0  0  0  0  0  0  0  0  0  0  0
    1.9137   -2.1742    1.3654 H   0  0  0  0  0  0  0  0  0  0  0  0
    5.4483   -2.1015    2.7475 H   0  0  0  0  0  0  0  0  0  0  0  0
    7.4793   -1.5863    1.2760 H   0  0  0  0  0  0  0  0  0  0  0  0
    2.6603   -3.6460   -2.4642 H   0  0  0  0  0  0  0  0  0  0  0  0
    4.8155    0.1530    2.3258 H   0  0  0  0  0  0  0  0  0  0  0  0
    4.6031   -0.0161    0.0599 H   0  0  0  0  0  0  0  0  0  0  0  0
    3.1469   -0.7473    3.7654 H   0  0  0  0  0  0  0  0  0  0  0  0
    1.6990    0.1535    1.5067 H   0  0  0  0  0  0  0  0  0  0  0  0
  1  2  1  0
  1 24  1  0
  1 25  1  0
  1 26  1  0
  2  3  1  0
  2 27  1  0
  2 28  1  0
  3  4  1  0
  3 29  1  0
  4  5  2  0
  4  6  1  0
  6 21  1  0
  6  7  1  0
  6 30  1  6
  7  8  1  0
  8  9  1  0
  8 19  1  0
  8 31  1  1
  9 18  1  0
  9 10  1  0
 10 11  2  0
 10 32  1  0
 11 12  1  0
 12 18  2  0
 12 13  1  0
 13 23  1  0
 13 14  1  0
 14 15  2  0
 14 16  1  0
 16 17  2  0
 16 33  1  0
 17 18  1  0
 19 20  1  0
 19 21  1  0
 19 34  1  1
 20 35  1  0
 21 22  1  0
 21 36  1  1
 22 37  1  0
M  END
>  <i_m_ct_stereo_status>  (92) 
1

>  <s_m_source_file>  (92) 
/var/tmp/pbs.5076255.sched01/tmpe2rv0q7i/42k21vmx8r.sdf

>  <i_m_source_file_index>  (92) 
1

>  <i_lp_mmshare_version>  (92) 
48012

>  <i_f3d_flags>  (92) 
0

>  <s_epik_input>  (92) 
W0NIM11bQ0gyXVtOSF1DKD1PKVtDQEBIXTFPW0NASF0oW0NAQEhdKFtPSF0pW0NASF0xW09IXSluKFtjSF1uMiljKGMyMyluW2NIXWMoPU8pW25IXTM=

>  <s_epik_cmdline>  (92) 
J2VwaWtfcHl0aG9uJywgJy1waHQnLCAnMi4wJywgJy1waCcsICc3LjAnLCAnLXRuJywgJzgnLCAnLW1hJywgJzIwMCcsICctaW1hZScsICc8aW5maWxlLm1hZT4nLCAnLW9tYWUnLCAnPG91dGZpbGUubWFlPic=

>  <r_epik_Ionization_Penalty>  (92) 
1.75533

>  <r_epik_Ionization_Penalty_Charging>  (92) 
1.75532

>  <r_epik_Ionization_Penalty_Neutral>  (92) 
1.15263e-05

>  <r_epik_State_Penalty>  (92) 
1.96225

>  <r_epik_Charging_Adjusted_Penalty>  (92) 
3.71757

>  <i_epik_Tot_Q>  (92) 
0

>  <i_epik_Tot_abs_Q>  (92) 
0

>  <s_epik_Chemistry_Notes>  (92) 
This compound contains an acetal/aminal-like group ( X-CH(R)-Y where X, Y are N, S, or O) that may be acid/base labile, releasing an aldehyde.

>  <s_lp_Force_Field>  (92) 
OPLS3e

>  <r_lp_Energy>  (92) 
41.8771

>  <b_lp_Chiralities_Consistent>  (92) 
1

>  <s_lp_Variant>  (92) 
30:0-3

>  <s_i_glide_gridfile>  (92) 
pfpi4k_grid

>  <i_i_glide_lignum>  (92) 
1

>  <i_i_glide_rotatable_bonds>  (92) 
6

>  <r_i_docking_score>  (92) 
-4.53744

>  <r_i_glide_ligand_efficiency>  (92) 
-0.206247

>  <r_i_glide_ligand_efficiency_sa>  (92) 
-0.577913

>  <r_i_glide_ligand_efficiency_ln>  (92) 
-1.10912

>  <r_i_glide_gscore>  (92) 
-4.53744

>  <r_i_glide_lipo>  (92) 
-0.229878

>  <r_i_glide_hbond>  (92) 
-0.482453

>  <r_i_glide_metal>  (92) 
-0

>  <r_i_glide_rewards>  (92) 
-2.28393

>  <r_i_glide_evdw>  (92) 
-24.7887

>  <r_i_glide_ecoul>  (92) 
-5.78634

>  <r_i_glide_erotb>  (92) 
0.580657

>  <r_i_glide_esite>  (92) 
-0.0144569

>  <r_i_glide_emodel>  (92) 
-42.4785

>  <r_i_glide_energy>  (92) 
-30.575

>  <r_i_glide_einternal>  (92) 
1.33547

>  <r_i_glide_intrahb_reward>  (92) 
-0

>  <i_i_glide_confnum>  (92) 
3

>  <i_i_glide_posenum>  (92) 
25

>  <r_i_glide_eff_state_penalty>  (92) 
0

>  <ligand_id>  (92) 
30

>  <original_smiles>  (92) 
CCNC(=O)C1OC(n2cnc3[nH]c(=O)cnc32)C(O)C1O

>  <smiles>  (92) 
[H]OC1([H])C([H])(C(=O)N([H])C([H])([H])C([H])([H])[H])OC([H])(n2c([H])nc3c2nc([H])c(=O)n3[H])C1([H])O[H]

$$$$
31:0:0
     RDKit          3D

 31 34  0  0  1  0  0  0  0  0999 V2000
    3.6618   -4.1415    5.4552 C   0  0  0  0  0  0  0  0  0  0  0  0
    4.2938   -3.3477    4.3286 C   0  0  0  0  0  0  0  0  0  0  0  0
    5.0208   -2.4061    4.6672 O   0  0  0  0  0  0  0  0  0  0  0  0
    3.9527   -3.8258    3.0563 N   0  0  0  0  0  0  0  0  0  0  0  0
    4.3410   -3.2475    1.9698 C   0  0  0  0  0  0  0  0  0  0  0  0
    5.3557   -1.6952    1.8708 S   0  0  0  0  0  0  0  0  0  0  0  0
    6.0010   -1.8593    0.2303 C   0  0  0  0  0  0  0  0  0  0  0  0
    5.0924   -1.9675   -0.7960 C   0  0  0  0  0  0  0  0  0  0  0  0
    5.2537   -2.9271   -1.8997 C   0  0  0  0  0  0  0  0  0  0  0  0
    5.3664   -2.6003   -3.0700 O   0  0  0  0  0  0  0  0  0  0  0  0
    5.2347   -4.2670   -1.4918 N   0  0  0  0  0  0  0  0  0  0  0  0
    5.0561   -4.5241   -0.2443 C   0  0  0  0  0  0  0  0  0  0  0  0
    6.2653   -4.9379    0.5002 C   0  0  0  0  0  0  0  0  0  0  0  0
    6.3604   -6.2547    1.0027 C   0  0  0  0  0  0  0  0  0  0  0  0
    7.5379   -6.6904    1.6298 C   0  0  0  0  0  0  0  0  0  0  0  0
    8.6225   -5.8079    1.7637 C   0  0  0  0  0  0  0  0  0  0  0  0
    8.5373   -4.4909    1.2682 C   0  0  0  0  0  0  0  0  0  0  0  0
    7.3664   -4.0239    0.6305 C   0  0  0  0  0  0  0  0  0  0  0  0
    7.3242   -2.5547    0.1961 C   0  0  0  0  0  0  0  0  0  0  0  0
    8.3503   -1.9352   -0.0772 O   0  0  0  0  0  0  0  0  0  0  0  0
    3.9190   -3.7839    0.5660 C   0  0  1  0  0  0  0  0  0  0  0  0
    2.7804   -4.7185    0.6383 C   0  0  0  0  0  0  0  0  0  0  0  0
    1.8924   -5.4620    0.6878 N   0  0  0  0  0  0  0  0  0  0  0  0
    3.4179   -2.2980   -0.3687 S   0  0  0  0  0  0  0  0  0  0  0  0
    2.5794   -3.9845    5.5064 H   0  0  0  0  0  0  0  0  0  0  0  0
    4.0919   -3.7846    6.3947 H   0  0  0  0  0  0  0  0  0  0  0  0
    3.8963   -5.2063    5.3672 H   0  0  0  0  0  0  0  0  0  0  0  0
    5.5380   -6.9488    0.8655 H   0  0  0  0  0  0  0  0  0  0  0  0
    7.6265   -7.7112    1.9830 H   0  0  0  0  0  0  0  0  0  0  0  0
    9.5291   -6.1508    2.2504 H   0  0  0  0  0  0  0  0  0  0  0  0
    9.3827   -3.8279    1.4171 H   0  0  0  0  0  0  0  0  0  0  0  0
  1  2  1  0
  1 25  1  0
  1 26  1  0
  1 27  1  0
  2  3  2  0
  2  4  1  0
  4  5  2  3
  5 21  1  0
  5  6  1  0
  6  7  1  0
  7 19  1  0
  7  8  2  0
  8 24  1  0
  8  9  1  0
  9 10  2  0
  9 11  1  0
 11 12  2  0
 12 13  1  0
 12 21  1  0
 13 18  2  0
 13 14  1  0
 14 15  2  0
 14 28  1  0
 15 16  1  0
 15 29  1  0
 16 17  2  0
 16 30  1  0
 17 18  1  0
 17 31  1  0
 18 19  1  0
 19 20  2  0
 21 22  1  1
 21 24  1  0
 22 23  3  0
M  END
>  <i_m_ct_stereo_status>  (93) 
1

>  <s_m_source_file>  (93) 
/var/tmp/pbs.5076255.sched01/tmpe2rv0q7i/42k21vmx8r.sdf

>  <i_m_source_file_index>  (93) 
2

>  <i_lp_mmshare_version>  (93) 
48012

>  <i_f3d_flags>  (93) 
0

>  <s_epik_input>  (93) 
W0NIM11DKD1PKS9OPUMxXFNDKD1DKFMyKUMoPU8pTj0zKUMoPU8pYyhjNEMzW0NAQF0xMkMjTilbY0hdW2NIXVtjSF1bY0hdNA==

>  <s_epik_cmdline>  (93) 
J2VwaWtfcHl0aG9uJywgJy1waHQnLCAnMi4wJywgJy1waCcsICc3LjAnLCAnLXRuJywgJzgnLCAnLW1hJywgJzIwMCcsICctaW1hZScsICc8aW5maWxlLm1hZT4nLCAnLW9tYWUnLCAnPG91dGZpbGUubWFlPic=

>  <r_lp_tautomer_probability>  (93) 
1

>  <r_epik_Ionization_Penalty>  (93) 
0

>  <r_epik_Ionization_Penalty_Charging>  (93) 
0

>  <r_epik_Ionization_Penalty_Neutral>  (93) 
0

>  <r_epik_State_Penalty>  (93) 
-0

>  <r_epik_Charging_Adjusted_Penalty>  (93) 
0

>  <i_epik_Tot_Q>  (93) 
0

>  <i_epik_Tot_abs_Q>  (93) 
0

>  <s_epik_Chemistry_Notes>  (93) 
This compound has an imine and may undergo hydrolysis.

>  <s_lp_Force_Field>  (93) 
OPLS3e

>  <r_lp_Energy>  (93) 
132.877

>  <b_lp_Chiralities_Consistent>  (93) 
1

>  <s_lp_Variant>  (93) 
31:0-1

>  <s_i_glide_gridfile>  (93) 
pfpi4k_grid

>  <i_i_glide_lignum>  (93) 
2

>  <i_i_glide_rotatable_bonds>  (93) 
2

>  <r_i_docking_score>  (93) 
-3.71999

>  <r_i_glide_ligand_efficiency>  (93) 
-0.155

>  <r_i_glide_ligand_efficiency_sa>  (93) 
-0.447096

>  <r_i_glide_ligand_efficiency_ln>  (93) 
-0.890364

>  <r_i_glide_gscore>  (93) 
-3.71999

>  <r_i_glide_lipo>  (93) 
-0.4807

>  <r_i_glide_hbond>  (93) 
-0.159351

>  <r_i_glide_metal>  (93) 
-0

>  <r_i_glide_rewards>  (93) 
-1.33445

>  <r_i_glide_evdw>  (93) 
-27.5265

>  <r_i_glide_ecoul>  (93) 
-3.29754

>  <r_i_glide_erotb>  (93) 
0.152921

>  <r_i_glide_esite>  (93) 
-0.0274546

>  <r_i_glide_emodel>  (93) 
-37.3766

>  <r_i_glide_energy>  (93) 
-30.8241

>  <r_i_glide_einternal>  (93) 
0.0786798

>  <r_i_glide_intrahb_reward>  (93) 
-0

>  <i_i_glide_confnum>  (93) 
2

>  <i_i_glide_posenum>  (93) 
16

>  <r_i_glide_eff_state_penalty>  (93) 
0

>  <ligand_id>  (93) 
31

>  <original_smiles>  (93) 
CC(=O)N=C1Sc2c3c(=O)nc(c4ccccc4c2=O)C1(C#N)S3

>  <smiles>  (93) 
[H]c1c([H])c([H])c2c(=O)c3c4c(=O)nc(c2c1[H])C(C#N)(S4)C(=NC(=O)C([H])([H])[H])S3

$$$$
31:0:1
     RDKit          3D

 31 34  0  0  1  0  0  0  0  0999 V2000
   -0.4354   -2.9316    6.1944 C   0  0  0  0  0  0  0  0  0  0  0  0
   -0.7008   -1.5726    5.5533 C   0  0  0  0  0  0  0  0  0  0  0  0
   -1.7954   -1.4068    5.0201 O   0  0  0  0  0  0  0  0  0  0  0  0
    0.3575   -0.6776    5.6957 N   0  0  0  0  0  0  0  0  0  0  0  0
    0.4461    0.3924    4.9799 C   0  0  0  0  0  0  0  0  0  0  0  0
   -0.6694    0.8416    3.5681 S   0  0  0  0  0  0  0  0  0  0  0  0
   -0.3452    2.5845    3.4729 C   0  0  0  0  0  0  0  0  0  0  0  0
    0.9640    2.9729    3.2831 C   0  0  0  0  0  0  0  0  0  0  0  0
    1.5685    4.0979    4.0138 C   0  0  0  0  0  0  0  0  0  0  0  0
    1.9881    5.1016    3.4402 O   0  0  0  0  0  0  0  0  0  0  0  0
    1.6490    3.9061    5.4142 N   0  0  0  0  0  0  0  0  0  0  0  0
    1.2198    2.7813    5.8803 C   0  0  0  0  0  0  0  0  0  0  0  0
   -0.0925    2.8429    6.5608 C   0  0  0  0  0  0  0  0  0  0  0  0
   -0.1711    2.6209    7.9528 C   0  0  0  0  0  0  0  0  0  0  0  0
   -1.3978    2.7590    8.6266 C   0  0  0  0  0  0  0  0  0  0  0  0
   -2.5522    3.1207    7.9112 C   0  0  0  0  0  0  0  0  0  0  0  0
   -2.4822    3.3339    6.5174 C   0  0  0  0  0  0  0  0  0  0  0  0
   -1.2655    3.1982    5.8091 C   0  0  0  0  0  0  0  0  0  0  0  0
   -1.3023    3.4008    4.2906 C   0  0  0  0  0  0  0  0  0  0  0  0
   -2.1302    4.1440    3.7672 O   0  0  0  0  0  0  0  0  0  0  0  0
    1.6163    1.4102    5.1762 C   0  0  1  0  0  0  0  0  0  0  0  0
    2.7223    0.8235    5.9578 C   0  0  0  0  0  0  0  0  0  0  0  0
    3.5926    0.3772    6.5744 N   0  0  0  0  0  0  0  0  0  0  0  0
    2.2253    1.7574    3.4929 S   0  0  0  0  0  0  0  0  0  0  0  0
    0.3755   -3.4714    5.6893 H   0  0  0  0  0  0  0  0  0  0  0  0
   -1.3396   -3.5308    6.1017 H   0  0  0  0  0  0  0  0  0  0  0  0
   -0.2115   -2.8187    7.2570 H   0  0  0  0  0  0  0  0  0  0  0  0
    0.7205    2.3747    8.5109 H   0  0  0  0  0  0  0  0  0  0  0  0
   -1.4449    2.6211    9.7003 H   0  0  0  0  0  0  0  0  0  0  0  0
   -3.4883    3.2503    8.4369 H   0  0  0  0  0  0  0  0  0  0  0  0
   -3.3832    3.5992    5.9903 H   0  0  0  0  0  0  0  0  0  0  0  0
  1  2  1  0
  1 25  1  0
  1 26  1  0
  1 27  1  0
  2  3  2  0
  2  4  1  0
  4  5  2  3
  5 21  1  0
  5  6  1  0
  6  7  1  0
  7 19  1  0
  7  8  2  0
  8 24  1  0
  8  9  1  0
  9 10  2  0
  9 11  1  0
 11 12  2  0
 12 13  1  0
 12 21  1  0
 13 18  2  0
 13 14  1  0
 14 15  2  0
 14 28  1  0
 15 16  1  0
 15 29  1  0
 16 17  2  0
 16 30  1  0
 17 18  1  0
 17 31  1  0
 18 19  1  0
 19 20  2  0
 21 22  1  1
 21 24  1  0
 22 23  3  0
M  END
>  <i_m_ct_stereo_status>  (94) 
1

>  <s_m_source_file>  (94) 
/var/tmp/pbs.5076255.sched01/tmpe2rv0q7i/42k21vmx8r.sdf

>  <i_m_source_file_index>  (94) 
2

>  <i_lp_mmshare_version>  (94) 
48012

>  <i_f3d_flags>  (94) 
0

>  <s_epik_input>  (94) 
W0NIM11DKD1PKS9OPUMxXFNDKD1DKFMyKUMoPU8pTj0zKUMoPU8pYyhjNEMzW0NAQF0xMkMjTilbY0hdW2NIXVtjSF1bY0hdNA==

>  <s_epik_cmdline>  (94) 
J2VwaWtfcHl0aG9uJywgJy1waHQnLCAnMi4wJywgJy1waCcsICc3LjAnLCAnLXRuJywgJzgnLCAnLW1hJywgJzIwMCcsICctaW1hZScsICc8aW5maWxlLm1hZT4nLCAnLW9tYWUnLCAnPG91dGZpbGUubWFlPic=

>  <r_lp_tautomer_probability>  (94) 
1

>  <r_epik_Ionization_Penalty>  (94) 
0

>  <r_epik_Ionization_Penalty_Charging>  (94) 
0

>  <r_epik_Ionization_Penalty_Neutral>  (94) 
0

>  <r_epik_State_Penalty>  (94) 
-0

>  <r_epik_Charging_Adjusted_Penalty>  (94) 
0

>  <i_epik_Tot_Q>  (94) 
0

>  <i_epik_Tot_abs_Q>  (94) 
0

>  <s_epik_Chemistry_Notes>  (94) 
This compound has an imine and may undergo hydrolysis.

>  <s_lp_Force_Field>  (94) 
OPLS3e

>  <r_lp_Energy>  (94) 
132.877

>  <b_lp_Chiralities_Consistent>  (94) 
1

>  <s_lp_Variant>  (94) 
31:0-1

>  <s_i_glide_gridfile>  (94) 
pfpi4k_grid

>  <i_i_glide_lignum>  (94) 
2

>  <i_i_glide_rotatable_bonds>  (94) 
2

>  <r_i_docking_score>  (94) 
-2.97467

>  <r_i_glide_ligand_efficiency>  (94) 
-0.123945

>  <r_i_glide_ligand_efficiency_sa>  (94) 
-0.357519

>  <r_i_glide_ligand_efficiency_ln>  (94) 
-0.711976

>  <r_i_glide_gscore>  (94) 
-2.97467

>  <r_i_glide_lipo>  (94) 
-0.208219

>  <r_i_glide_hbond>  (94) 
-0.0879775

>  <r_i_glide_metal>  (94) 
-0

>  <r_i_glide_rewards>  (94) 
-0.999702

>  <r_i_glide_evdw>  (94) 
-25.7173

>  <r_i_glide_ecoul>  (94) 
-2.818

>  <r_i_glide_erotb>  (94) 
0.152921

>  <r_i_glide_esite>  (94) 
-0.123134

>  <r_i_glide_emodel>  (94) 
-33.8239

>  <r_i_glide_energy>  (94) 
-28.5353

>  <r_i_glide_einternal>  (94) 
0.256995

>  <r_i_glide_intrahb_reward>  (94) 
-0

>  <i_i_glide_confnum>  (94) 
3

>  <i_i_glide_posenum>  (94) 
24

>  <r_i_glide_eff_state_penalty>  (94) 
0

>  <ligand_id>  (94) 
31

>  <original_smiles>  (94) 
CC(=O)N=C1Sc2c3c(=O)nc(c4ccccc4c2=O)C1(C#N)S3

>  <smiles>  (94) 
[H]c1c([H])c([H])c2c(=O)c3c4c(=O)nc(c2c1[H])C(C#N)(S4)C(=NC(=O)C([H])([H])[H])S3

$$$$
31:0:2
     RDKit          3D

 31 34  0  0  1  0  0  0  0  0999 V2000
    1.8187   -3.6320    4.2205 C   0  0  0  0  0  0  0  0  0  0  0  0
    0.7964   -2.5627    4.5905 C   0  0  0  0  0  0  0  0  0  0  0  0
   -0.1164   -2.9081    5.3408 O   0  0  0  0  0  0  0  0  0  0  0  0
    1.0657   -1.3216    4.0107 N   0  0  0  0  0  0  0  0  0  0  0  0
    0.2343   -0.3345    4.0734 C   0  0  0  0  0  0  0  0  0  0  0  0
   -1.4575   -0.4139    4.8244 S   0  0  0  0  0  0  0  0  0  0  0  0
   -1.7687    1.3073    5.0651 C   0  0  0  0  0  0  0  0  0  0  0  0
   -1.6931    2.1367    3.9649 C   0  0  0  0  0  0  0  0  0  0  0  0
   -1.0343    3.4472    4.0180 C   0  0  0  0  0  0  0  0  0  0  0  0
   -1.6487    4.4965    3.8217 O   0  0  0  0  0  0  0  0  0  0  0  0
    0.3453    3.3915    4.3116 N   0  0  0  0  0  0  0  0  0  0  0  0
    0.8793    2.2238    4.4435 C   0  0  0  0  0  0  0  0  0  0  0  0
    1.1866    1.8389    5.8406 C   0  0  0  0  0  0  0  0  0  0  0  0
    2.5294    1.6925    6.2463 C   0  0  0  0  0  0  0  0  0  0  0  0
    2.8378    1.4110    7.5896 C   0  0  0  0  0  0  0  0  0  0  0  0
    1.8020    1.2767    8.5335 C   0  0  0  0  0  0  0  0  0  0  0  0
    0.4564    1.4146    8.1365 C   0  0  0  0  0  0  0  0  0  0  0  0
    0.1135    1.6946    6.7907 C   0  0  0  0  0  0  0  0  0  0  0  0
   -1.3758    1.7582    6.4343 C   0  0  0  0  0  0  0  0  0  0  0  0
   -2.2311    2.0254    7.2730 O   0  0  0  0  0  0  0  0  0  0  0  0
    0.5459    1.0521    3.4189 C   0  0  1  0  0  0  0  0  0  0  0  0
    1.6710    0.9629    2.4652 C   0  0  0  0  0  0  0  0  0  0  0  0
    2.5549    0.9027    1.7234 N   0  0  0  0  0  0  0  0  0  0  0  0
   -0.9654    1.4822    2.4944 S   0  0  0  0  0  0  0  0  0  0  0  0
    1.7608   -3.8955    3.1596 H   0  0  0  0  0  0  0  0  0  0  0  0
    1.5941   -4.5291    4.7982 H   0  0  0  0  0  0  0  0  0  0  0  0
    2.8320   -3.3137    4.4792 H   0  0  0  0  0  0  0  0  0  0  0  0
    3.3299    1.8265    5.5314 H   0  0  0  0  0  0  0  0  0  0  0  0
    3.8714    1.3275    7.9014 H   0  0  0  0  0  0  0  0  0  0  0  0
    2.0452    1.0719    9.5671 H   0  0  0  0  0  0  0  0  0  0  0  0
   -0.3126    1.2932    8.8846 H   0  0  0  0  0  0  0  0  0  0  0  0
  1  2  1  0
  1 25  1  0
  1 26  1  0
  1 27  1  0
  2  3  2  0
  2  4  1  0
  4  5  2  3
  5 21  1  0
  5  6  1  0
  6  7  1  0
  7 19  1  0
  7  8  2  0
  8 24  1  0
  8  9  1  0
  9 10  2  0
  9 11  1  0
 11 12  2  0
 12 13  1  0
 12 21  1  0
 13 18  2  0
 13 14  1  0
 14 15  2  0
 14 28  1  0
 15 16  1  0
 15 29  1  0
 16 17  2  0
 16 30  1  0
 17 18  1  0
 17 31  1  0
 18 19  1  0
 19 20  2  0
 21 22  1  6
 21 24  1  0
 22 23  3  0
M  END
>  <i_m_ct_stereo_status>  (95) 
1

>  <s_m_source_file>  (95) 
/var/tmp/pbs.5076255.sched01/tmpe2rv0q7i/42k21vmx8r.sdf

>  <i_m_source_file_index>  (95) 
2

>  <i_lp_mmshare_version>  (95) 
48012

>  <i_f3d_flags>  (95) 
0

>  <s_epik_input>  (95) 
W0NIM11DKD1PKS9OPUMxXFNDKD1DKFMyKUMoPU8pTj0zKUMoPU8pYyhjNEMzW0NAQF0xMkMjTilbY0hdW2NIXVtjSF1bY0hdNA==

>  <s_epik_cmdline>  (95) 
J2VwaWtfcHl0aG9uJywgJy1waHQnLCAnMi4wJywgJy1waCcsICc3LjAnLCAnLXRuJywgJzgnLCAnLW1hJywgJzIwMCcsICctaW1hZScsICc8aW5maWxlLm1hZT4nLCAnLW9tYWUnLCAnPG91dGZpbGUubWFlPic=

>  <r_lp_tautomer_probability>  (95) 
1

>  <r_epik_Ionization_Penalty>  (95) 
0

>  <r_epik_Ionization_Penalty_Charging>  (95) 
0

>  <r_epik_Ionization_Penalty_Neutral>  (95) 
0

>  <r_epik_State_Penalty>  (95) 
-0

>  <r_epik_Charging_Adjusted_Penalty>  (95) 
0

>  <i_epik_Tot_Q>  (95) 
0

>  <i_epik_Tot_abs_Q>  (95) 
0

>  <s_epik_Chemistry_Notes>  (95) 
This compound has an imine and may undergo hydrolysis.

>  <s_lp_Force_Field>  (95) 
OPLS3e

>  <r_lp_Energy>  (95) 
132.877

>  <b_lp_Chiralities_Consistent>  (95) 
1

>  <s_lp_Variant>  (95) 
31:0-1

>  <s_i_glide_gridfile>  (95) 
pfpi4k_grid

>  <i_i_glide_lignum>  (95) 
2

>  <i_i_glide_rotatable_bonds>  (95) 
2

>  <r_i_docking_score>  (95) 
-2.78874

>  <r_i_glide_ligand_efficiency>  (95) 
-0.116198

>  <r_i_glide_ligand_efficiency_sa>  (95) 
-0.335172

>  <r_i_glide_ligand_efficiency_ln>  (95) 
-0.667474

>  <r_i_glide_gscore>  (95) 
-2.78874

>  <r_i_glide_lipo>  (95) 
-0.0066252

>  <r_i_glide_hbond>  (95) 
-0.157556

>  <r_i_glide_metal>  (95) 
-0

>  <r_i_glide_rewards>  (95) 
-1.02659

>  <r_i_glide_evdw>  (95) 
-26.492

>  <r_i_glide_ecoul>  (95) 
-2.06356

>  <r_i_glide_erotb>  (95) 
0.152921

>  <r_i_glide_esite>  (95) 
-0.116757

>  <r_i_glide_emodel>  (95) 
-33.3534

>  <r_i_glide_energy>  (95) 
-28.5556

>  <r_i_glide_einternal>  (95) 
0.0648588

>  <r_i_glide_intrahb_reward>  (95) 
-0

>  <i_i_glide_confnum>  (95) 
1

>  <i_i_glide_posenum>  (95) 
4

>  <r_i_glide_eff_state_penalty>  (95) 
0

>  <ligand_id>  (95) 
31

>  <original_smiles>  (95) 
CC(=O)N=C1Sc2c3c(=O)nc(c4ccccc4c2=O)C1(C#N)S3

>  <smiles>  (95) 
[H]c1c([H])c([H])c2c(=O)c3c4c(=O)nc(c2c1[H])C(C#N)(S4)C(=NC(=O)C([H])([H])[H])S3

$$$$
32:0:0
     RDKit          3D

 26 28  0  0  1  0  0  0  0  0999 V2000
   -2.2766    2.5842    4.4897 N   0  0  0  0  0  0  0  0  0  0  0  0
   -1.7085    3.4133    3.6024 C   0  0  0  0  0  0  0  0  0  0  0  0
   -2.1483    4.5458    3.4403 O   0  0  0  0  0  0  0  0  0  0  0  0
   -0.6737    2.9227    2.8863 N   0  0  0  0  0  0  0  0  0  0  0  0
    0.0549    1.7268    3.0720 C   0  0  0  0  0  0  0  0  0  0  0  0
   -0.3024    0.7494    3.8456 N   0  0  0  0  0  0  0  0  0  0  0  0
    0.7675   -0.2073    3.8190 C   0  0  1  0  0  0  0  0  0  0  0  0
    0.3685   -1.6180    4.2859 C   0  0  0  0  0  0  0  0  0  0  0  0
    1.4290   -2.6714    3.8534 C   0  0  0  0  0  0  0  0  0  0  0  0
    2.7864   -2.0183    3.5434 C   0  0  1  0  0  0  0  0  0  0  0  0
    3.8879   -2.9179    2.5004 S   0  0  0  0  0  0  0  0  0  0  0  0
    3.5950   -1.4282    1.6280 C   0  0  0  0  0  0  0  0  0  0  0  0
    4.1254   -0.6622    0.2612 S   0  0  0  0  0  0  0  0  0  0  0  0
    2.5730   -1.0224    2.4796 N   0  0  0  0  0  0  0  0  0  0  0  0
    1.3859   -0.1843    2.4151 C   0  0  2  0  0  0  0  0  0  0  0  0
    1.5583    1.5773    2.0838 S   0  0  0  0  0  0  0  0  0  0  0  0
   -3.0835    2.8114    5.0470 H   0  0  0  0  0  0  0  0  0  0  0  0
   -1.8532    1.6617    4.5058 H   0  0  0  0  0  0  0  0  0  0  0  0
   -0.3023    3.5710    2.1821 H   0  0  0  0  0  0  0  0  0  0  0  0
    1.5416    0.1242    4.5198 H   0  0  0  0  0  0  0  0  0  0  0  0
    0.2825   -1.6094    5.3744 H   0  0  0  0  0  0  0  0  0  0  0  0
   -0.6176   -1.8975    3.9121 H   0  0  0  0  0  0  0  0  0  0  0  0
    1.5313   -3.4436    4.6148 H   0  0  0  0  0  0  0  0  0  0  0  0
    1.0402   -3.1782    2.9616 H   0  0  0  0  0  0  0  0  0  0  0  0
    3.3134   -1.5906    4.3899 H   0  0  0  0  0  0  0  0  0  0  0  0
    0.6880   -0.6120    1.6905 H   0  0  0  0  0  0  0  0  0  0  0  0
  1  2  1  0
  1 17  1  0
  1 18  1  0
  2  3  2  0
  2  4  1  0
  4  5  1  0
  4 19  1  0
  5 16  1  0
  5  6  2  0
  6  7  1  0
  7 15  1  0
  7  8  1  0
  7 20  1  1
  8  9  1  0
  8 21  1  0
  8 22  1  0
  9 10  1  0
  9 23  1  0
  9 24  1  0
 10 14  1  0
 10 11  1  0
 10 25  1  1
 11 12  1  0
 12 13  2  0
 12 14  1  0
 14 15  1  0
 15 16  1  0
 15 26  1  6
M  END
>  <i_m_ct_stereo_status>  (96) 
1

>  <s_m_source_file>  (96) 
/var/tmp/pbs.5076255.sched01/tmpe2rv0q7i/42k21vmx8r.sdf

>  <i_m_source_file_index>  (96) 
4

>  <i_lp_mmshare_version>  (96) 
48012

>  <i_f3d_flags>  (96) 
0

>  <s_epik_input>  (96) 
W05IMl1DKD1PKVtOSF1DKD1OMSlTW0NASF0oW0NAQEhdMTIpTjNbQ0BASF0oW0NIMl1bQ0gyXTIpU0MzPVM=

>  <s_epik_cmdline>  (96) 
J2VwaWtfcHl0aG9uJywgJy1waHQnLCAnMi4wJywgJy1waCcsICc3LjAnLCAnLXRuJywgJzgnLCAnLW1hJywgJzIwMCcsICctaW1hZScsICc8aW5maWxlLm1hZT4nLCAnLW9tYWUnLCAnPG91dGZpbGUubWFlPic=

>  <r_epik_Ionization_Penalty>  (96) 
0.0152219

>  <r_epik_Ionization_Penalty_Charging>  (96) 
0

>  <r_epik_Ionization_Penalty_Neutral>  (96) 
0.0152219

>  <r_epik_State_Penalty>  (96) 
0.0206933

>  <r_epik_Charging_Adjusted_Penalty>  (96) 
0.0206933

>  <i_epik_Tot_Q>  (96) 
0

>  <i_epik_Tot_abs_Q>  (96) 
0

>  <s_epik_Chemistry_Notes>  (96) 
This compound has an imine and may undergo hydrolysis. This compound contains an acetal/aminal-like group ( X-CH(R)-Y where X, Y are N, S, or O) that may be acid/base labile, releasing an aldehyde.

>  <s_lp_Force_Field>  (96) 
OPLS3e

>  <r_lp_Energy>  (96) 
8.64867

>  <b_lp_Chiralities_Consistent>  (96) 
1

>  <s_lp_Variant>  (96) 
32:0-1

>  <s_i_glide_gridfile>  (96) 
pfpi4k_grid

>  <i_i_glide_lignum>  (96) 
4

>  <i_i_glide_rotatable_bonds>  (96) 
2

>  <r_i_docking_score>  (96) 
-4.97497

>  <r_i_glide_ligand_efficiency>  (96) 
-0.310936

>  <r_i_glide_ligand_efficiency_sa>  (96) 
-0.783509

>  <r_i_glide_ligand_efficiency_ln>  (96) 
-1.31872

>  <r_i_glide_gscore>  (96) 
-4.97497

>  <r_i_glide_lipo>  (96) 
-0.0287325

>  <r_i_glide_hbond>  (96) 
-0.32

>  <r_i_glide_metal>  (96) 
-0

>  <r_i_glide_rewards>  (96) 
-2.11176

>  <r_i_glide_evdw>  (96) 
-21.1047

>  <r_i_glide_ecoul>  (96) 
-7.99152

>  <r_i_glide_erotb>  (96) 
0

>  <r_i_glide_esite>  (96) 
-0.260521

>  <r_i_glide_emodel>  (96) 
-36.9558

>  <r_i_glide_energy>  (96) 
-29.0963

>  <r_i_glide_einternal>  (96) 
13.6568

>  <r_i_glide_intrahb_reward>  (96) 
-0.5

>  <i_i_glide_confnum>  (96) 
1

>  <i_i_glide_posenum>  (96) 
33

>  <r_i_glide_eff_state_penalty>  (96) 
0

>  <ligand_id>  (96) 
32

>  <original_smiles>  (96) 
NC(=O)NC1=NC2CCC3SC(=S)N3C2S1

>  <smiles>  (96) 
[H]N([H])C(=O)N([H])C1=NC2([H])C([H])(S1)N1C(=S)SC1([H])C([H])([H])C2([H])[H]

$$$$
32:0:1
     RDKit          3D

 26 28  0  0  1  0  0  0  0  0999 V2000
   -1.3707    3.2039    2.8811 N   0  0  0  0  0  0  0  0  0  0  0  0
   -0.8642    2.0299    3.2389 C   0  0  0  0  0  0  0  0  0  0  0  0
   -1.3898    1.3485    4.1167 O   0  0  0  0  0  0  0  0  0  0  0  0
    0.2436    1.7233    2.5408 N   0  0  0  0  0  0  0  0  0  0  0  0
    1.0166    0.5674    2.6619 C   0  0  0  0  0  0  0  0  0  0  0  0
    0.7211   -0.4901    3.3422 N   0  0  0  0  0  0  0  0  0  0  0  0
    1.8663   -1.3777    3.2493 C   0  0  1  0  0  0  0  0  0  0  0  0
    1.5938   -2.8587    3.5721 C   0  0  0  0  0  0  0  0  0  0  0  0
    2.7552   -3.7735    3.0752 C   0  0  0  0  0  0  0  0  0  0  0  0
    4.0613   -2.9824    2.8564 C   0  0  1  0  0  0  0  0  0  0  0  0
    5.2755   -3.6648    1.7523 S   0  0  0  0  0  0  0  0  0  0  0  0
    4.8533   -2.1242    1.0299 C   0  0  0  0  0  0  0  0  0  0  0  0
    5.3381   -1.1744   -0.2456 S   0  0  0  0  0  0  0  0  0  0  0  0
    3.7749   -1.9099    1.8881 N   0  0  0  0  0  0  0  0  0  0  0  0
    2.5133   -1.1818    1.8696 C   0  0  2  0  0  0  0  0  0  0  0  0
    2.5306    0.5996    1.6823 S   0  0  0  0  0  0  0  0  0  0  0  0
   -2.2218    3.5074    3.3218 H   0  0  0  0  0  0  0  0  0  0  0  0
   -0.9180    3.7497    2.1454 H   0  0  0  0  0  0  0  0  0  0  0  0
    0.5414    2.4067    1.8591 H   0  0  0  0  0  0  0  0  0  0  0  0
    2.5952   -1.0447    3.9944 H   0  0  0  0  0  0  0  0  0  0  0  0
    1.4941   -2.9589    4.6533 H   0  0  0  0  0  0  0  0  0  0  0  0
    0.6461   -3.1860    3.1465 H   0  0  0  0  0  0  0  0  0  0  0  0
    2.9180   -4.5969    3.7648 H   0  0  0  0  0  0  0  0  0  0  0  0
    2.4440   -4.2327    2.1326 H   0  0  0  0  0  0  0  0  0  0  0  0
    4.5343   -2.5974    3.7610 H   0  0  0  0  0  0  0  0  0  0  0  0
    1.8754   -1.6075    1.0960 H   0  0  0  0  0  0  0  0  0  0  0  0
  1  2  1  0
  1 17  1  0
  1 18  1  0
  2  3  2  0
  2  4  1  0
  4  5  1  0
  4 19  1  0
  5 16  1  0
  5  6  2  0
  6  7  1  0
  7 15  1  0
  7  8  1  0
  7 20  1  1
  8  9  1  0
  8 21  1  0
  8 22  1  0
  9 10  1  0
  9 23  1  0
  9 24  1  0
 10 14  1  0
 10 11  1  0
 10 25  1  1
 11 12  1  0
 12 13  2  0
 12 14  1  0
 14 15  1  0
 15 16  1  0
 15 26  1  6
M  END
>  <i_m_ct_stereo_status>  (97) 
1

>  <s_m_source_file>  (97) 
/var/tmp/pbs.5076255.sched01/tmpe2rv0q7i/42k21vmx8r.sdf

>  <i_m_source_file_index>  (97) 
4

>  <i_lp_mmshare_version>  (97) 
48012

>  <i_f3d_flags>  (97) 
0

>  <s_epik_input>  (97) 
W05IMl1DKD1PKVtOSF1DKD1OMSlTW0NASF0oW0NAQEhdMTIpTjNbQ0BASF0oW0NIMl1bQ0gyXTIpU0MzPVM=

>  <s_epik_cmdline>  (97) 
J2VwaWtfcHl0aG9uJywgJy1waHQnLCAnMi4wJywgJy1waCcsICc3LjAnLCAnLXRuJywgJzgnLCAnLW1hJywgJzIwMCcsICctaW1hZScsICc8aW5maWxlLm1hZT4nLCAnLW9tYWUnLCAnPG91dGZpbGUubWFlPic=

>  <r_epik_Ionization_Penalty>  (97) 
0.0152219

>  <r_epik_Ionization_Penalty_Charging>  (97) 
0

>  <r_epik_Ionization_Penalty_Neutral>  (97) 
0.0152219

>  <r_epik_State_Penalty>  (97) 
0.0206933

>  <r_epik_Charging_Adjusted_Penalty>  (97) 
0.0206933

>  <i_epik_Tot_Q>  (97) 
0

>  <i_epik_Tot_abs_Q>  (97) 
0

>  <s_epik_Chemistry_Notes>  (97) 
This compound has an imine and may undergo hydrolysis. This compound contains an acetal/aminal-like group ( X-CH(R)-Y where X, Y are N, S, or O) that may be acid/base labile, releasing an aldehyde.

>  <s_lp_Force_Field>  (97) 
OPLS3e

>  <r_lp_Energy>  (97) 
8.64867

>  <b_lp_Chiralities_Consistent>  (97) 
1

>  <s_lp_Variant>  (97) 
32:0-1

>  <s_i_glide_gridfile>  (97) 
pfpi4k_grid

>  <i_i_glide_lignum>  (97) 
4

>  <i_i_glide_rotatable_bonds>  (97) 
2

>  <r_i_docking_score>  (97) 
-3.80262

>  <r_i_glide_ligand_efficiency>  (97) 
-0.237664

>  <r_i_glide_ligand_efficiency_sa>  (97) 
-0.598876

>  <r_i_glide_ligand_efficiency_ln>  (97) 
-1.00796

>  <r_i_glide_gscore>  (97) 
-3.80262

>  <r_i_glide_lipo>  (97) 
-0.0716605

>  <r_i_glide_hbond>  (97) 
-0.227907

>  <r_i_glide_metal>  (97) 
-0

>  <r_i_glide_rewards>  (97) 
-1.5771

>  <r_i_glide_evdw>  (97) 
-21.4484

>  <r_i_glide_ecoul>  (97) 
-3.98974

>  <r_i_glide_erotb>  (97) 
0

>  <r_i_glide_esite>  (97) 
-0.255077

>  <r_i_glide_emodel>  (97) 
-33.0568

>  <r_i_glide_energy>  (97) 
-25.4382

>  <r_i_glide_einternal>  (97) 
0.0267515

>  <r_i_glide_intrahb_reward>  (97) 
-0

>  <i_i_glide_confnum>  (97) 
1

>  <i_i_glide_posenum>  (97) 
1

>  <r_i_glide_eff_state_penalty>  (97) 
0

>  <ligand_id>  (97) 
32

>  <original_smiles>  (97) 
NC(=O)NC1=NC2CCC3SC(=S)N3C2S1

>  <smiles>  (97) 
[H]N([H])C(=O)N([H])C1=NC2([H])C([H])(S1)N1C(=S)SC1([H])C([H])([H])C2([H])[H]

$$$$
32:0:2
     RDKit          3D

 26 28  0  0  1  0  0  0  0  0999 V2000
   -0.8203    2.1541    2.4835 N   0  0  0  0  0  0  0  0  0  0  0  0
   -0.2689    0.9927    2.8174 C   0  0  0  0  0  0  0  0  0  0  0  0
   -0.8112    0.2433    3.6315 O   0  0  0  0  0  0  0  0  0  0  0  0
    0.8918    0.7794    2.1746 N   0  0  0  0  0  0  0  0  0  0  0  0
    1.7006   -0.3525    2.2488 C   0  0  0  0  0  0  0  0  0  0  0  0
    1.4270   -1.4488    2.8802 N   0  0  0  0  0  0  0  0  0  0  0  0
    2.5958   -2.2967    2.7568 C   0  0  1  0  0  0  0  0  0  0  0  0
    2.3628   -3.7983    3.0152 C   0  0  0  0  0  0  0  0  0  0  0  0
    3.5581   -4.6574    2.4973 C   0  0  0  0  0  0  0  0  0  0  0  0
    4.8421   -3.8202    2.3265 C   0  0  1  0  0  0  0  0  0  0  0  0
    6.0851   -4.4198    1.2068 S   0  0  0  0  0  0  0  0  0  0  0  0
    5.6242   -2.8684    0.5452 C   0  0  0  0  0  0  0  0  0  0  0  0
    6.0936   -1.8621   -0.6891 S   0  0  0  0  0  0  0  0  0  0  0  0
    4.5309   -2.7166    1.3994 N   0  0  0  0  0  0  0  0  0  0  0  0
    3.2499   -2.0236    1.3917 C   0  0  2  0  0  0  0  0  0  0  0  0
    3.2199   -0.2330    1.2793 S   0  0  0  0  0  0  0  0  0  0  0  0
   -1.7042    2.3902    2.8998 H   0  0  0  0  0  0  0  0  0  0  0  0
   -0.3965    2.7886    1.8054 H   0  0  0  0  0  0  0  0  0  0  0  0
    1.1896    1.5056    1.5446 H   0  0  0  0  0  0  0  0  0  0  0  0
    3.3049   -1.9745    3.5252 H   0  0  0  0  0  0  0  0  0  0  0  0
    2.2544   -3.9460    4.0912 H   0  0  0  0  0  0  0  0  0  0  0  0
    1.4297   -4.1365    2.5635 H   0  0  0  0  0  0  0  0  0  0  0  0
    3.7358   -5.5039    3.1552 H   0  0  0  0  0  0  0  0  0  0  0  0
    3.2696   -5.0863    1.5336 H   0  0  0  0  0  0  0  0  0  0  0  0
    5.2890   -3.4592    3.2544 H   0  0  0  0  0  0  0  0  0  0  0  0
    2.6286   -2.4280    0.5912 H   0  0  0  0  0  0  0  0  0  0  0  0
  1  2  1  0
  1 17  1  0
  1 18  1  0
  2  3  2  0
  2  4  1  0
  4  5  1  0
  4 19  1  0
  5 16  1  0
  5  6  2  0
  6  7  1  0
  7 15  1  0
  7  8  1  0
  7 20  1  1
  8  9  1  0
  8 21  1  0
  8 22  1  0
  9 10  1  0
  9 23  1  0
  9 24  1  0
 10 14  1  0
 10 11  1  0
 10 25  1  1
 11 12  1  0
 12 13  2  0
 12 14  1  0
 14 15  1  0
 15 16  1  0
 15 26  1  6
M  END
>  <i_m_ct_stereo_status>  (98) 
1

>  <s_m_source_file>  (98) 
/var/tmp/pbs.5076255.sched01/tmpe2rv0q7i/42k21vmx8r.sdf

>  <i_m_source_file_index>  (98) 
4

>  <i_lp_mmshare_version>  (98) 
48012

>  <i_f3d_flags>  (98) 
0

>  <s_epik_input>  (98) 
W05IMl1DKD1PKVtOSF1DKD1OMSlTW0NASF0oW0NAQEhdMTIpTjNbQ0BASF0oW0NIMl1bQ0gyXTIpU0MzPVM=

>  <s_epik_cmdline>  (98) 
J2VwaWtfcHl0aG9uJywgJy1waHQnLCAnMi4wJywgJy1waCcsICc3LjAnLCAnLXRuJywgJzgnLCAnLW1hJywgJzIwMCcsICctaW1hZScsICc8aW5maWxlLm1hZT4nLCAnLW9tYWUnLCAnPG91dGZpbGUubWFlPic=

>  <r_epik_Ionization_Penalty>  (98) 
0.0152219

>  <r_epik_Ionization_Penalty_Charging>  (98) 
0

>  <r_epik_Ionization_Penalty_Neutral>  (98) 
0.0152219

>  <r_epik_State_Penalty>  (98) 
0.0206933

>  <r_epik_Charging_Adjusted_Penalty>  (98) 
0.0206933

>  <i_epik_Tot_Q>  (98) 
0

>  <i_epik_Tot_abs_Q>  (98) 
0

>  <s_epik_Chemistry_Notes>  (98) 
This compound has an imine and may undergo hydrolysis. This compound contains an acetal/aminal-like group ( X-CH(R)-Y where X, Y are N, S, or O) that may be acid/base labile, releasing an aldehyde.

>  <s_lp_Force_Field>  (98) 
OPLS3e

>  <r_lp_Energy>  (98) 
8.64867

>  <b_lp_Chiralities_Consistent>  (98) 
1

>  <s_lp_Variant>  (98) 
32:0-1

>  <s_i_glide_gridfile>  (98) 
pfpi4k_grid

>  <i_i_glide_lignum>  (98) 
4

>  <i_i_glide_rotatable_bonds>  (98) 
2

>  <r_i_docking_score>  (98) 
-3.52757

>  <r_i_glide_ligand_efficiency>  (98) 
-0.220473

>  <r_i_glide_ligand_efficiency_sa>  (98) 
-0.555558

>  <r_i_glide_ligand_efficiency_ln>  (98) 
-0.935054

>  <r_i_glide_gscore>  (98) 
-3.52757

>  <r_i_glide_lipo>  (98) 
-0.111202

>  <r_i_glide_hbond>  (98) 
-0.16

>  <r_i_glide_metal>  (98) 
-0

>  <r_i_glide_rewards>  (98) 
-1.63386

>  <r_i_glide_evdw>  (98) 
-21.8483

>  <r_i_glide_ecoul>  (98) 
-1.65188

>  <r_i_glide_erotb>  (98) 
0

>  <r_i_glide_esite>  (98) 
-0.282311

>  <r_i_glide_emodel>  (98) 
-30.542

>  <r_i_glide_energy>  (98) 
-23.5002

>  <r_i_glide_einternal>  (98) 
0.0266584

>  <r_i_glide_intrahb_reward>  (98) 
-0

>  <i_i_glide_confnum>  (98) 
1

>  <i_i_glide_posenum>  (98) 
20

>  <r_i_glide_eff_state_penalty>  (98) 
0

>  <ligand_id>  (98) 
32

>  <original_smiles>  (98) 
NC(=O)NC1=NC2CCC3SC(=S)N3C2S1

>  <smiles>  (98) 
[H]N([H])C(=O)N([H])C1=NC2([H])C([H])(S1)N1C(=S)SC1([H])C([H])([H])C2([H])[H]

$$$$
32:1:0
     RDKit          3D

 27 29  0  0  1  0  0  0  0  0999 V2000
    1.9158    2.0710    2.4852 N   0  0  0  0  0  0  0  0  0  0  0  0
    2.0121    0.7871    2.1393 C   0  0  0  0  0  0  0  0  0  0  0  0
    1.1281   -0.0399    2.2841 O   0  0  0  0  0  0  0  0  0  0  0  0
    3.3082    0.4286    1.6618 N   0  0  0  0  0  0  0  0  0  0  0  0
    3.6257   -0.8450    1.3818 C   0  0  0  0  0  0  0  0  0  0  0  0
    2.8510   -1.9487    1.2511 N   0  0  0  0  0  0  0  0  0  0  0  0
    3.6278   -3.1877    1.2517 C   0  0  1  0  0  0  0  0  0  0  0  0
    2.9796   -4.4937    0.7731 C   0  0  0  0  0  0  0  0  0  0  0  0
    4.0455   -5.6278    0.6230 C   0  0  0  0  0  0  0  0  0  0  0  0
    5.3353   -5.3177    1.4267 C   0  0  1  0  0  0  0  0  0  0  0  0
    6.8306   -6.1106    0.9228 S   0  0  0  0  0  0  0  0  0  0  0  0
    7.1547   -4.4072    0.7237 C   0  0  0  0  0  0  0  0  0  0  0  0
    8.4312   -3.4209    0.3004 S   0  0  0  0  0  0  0  0  0  0  0  0
    5.8387   -4.0131    0.9696 N   0  0  0  0  0  0  0  0  0  0  0  0
    4.9732   -2.8991    0.5928 C   0  0  2  0  0  0  0  0  0  0  0  0
    5.3694   -1.2397    1.1740 S   0  0  0  0  0  0  0  0  0  0  0  0
    1.0267    2.4178    2.8239 H   0  0  0  0  0  0  0  0  0  0  0  0
    2.6961    2.6947    2.4000 H   0  0  0  0  0  0  0  0  0  0  0  0
    4.0705    1.0798    1.5981 H   0  0  0  0  0  0  0  0  0  0  0  0
    3.8447   -3.3326    2.3121 H   0  0  0  0  0  0  0  0  0  0  0  0
    2.2788   -4.8083    1.5460 H   0  0  0  0  0  0  0  0  0  0  0  0
    2.4142   -4.3564   -0.1449 H   0  0  0  0  0  0  0  0  0  0  0  0
    3.6381   -6.5906    0.9037 H   0  0  0  0  0  0  0  0  0  0  0  0
    4.2858   -5.7096   -0.4393 H   0  0  0  0  0  0  0  0  0  0  0  0
    5.2401   -5.3626    2.5193 H   0  0  0  0  0  0  0  0  0  0  0  0
    4.8781   -2.8981   -0.4950 H   0  0  0  0  0  0  0  0  0  0  0  0
    1.8402   -1.9003    1.1390 H   0  0  0  0  0  0  0  0  0  0  0  0
  1  2  1  0
  1 17  1  0
  1 18  1  0
  2  3  2  0
  2  4  1  0
  4  5  1  0
  4 19  1  0
  5 16  1  0
  5  6  2  0
  6  7  1  0
  6 27  1  0
  7 15  1  0
  7  8  1  0
  7 20  1  1
  8  9  1  0
  8 21  1  0
  8 22  1  0
  9 10  1  0
  9 23  1  0
  9 24  1  0
 10 14  1  0
 10 11  1  0
 10 25  1  1
 11 12  1  0
 12 13  2  0
 12 14  1  0
 14 15  1  0
 15 16  1  0
 15 26  1  6
M  CHG  1   6   1
M  END
>  <i_m_ct_stereo_status>  (99) 
1

>  <s_m_source_file>  (99) 
/var/tmp/pbs.5076255.sched01/tmpe2rv0q7i/42k21vmx8r.sdf

>  <i_m_source_file_index>  (99) 
5

>  <i_lp_mmshare_version>  (99) 
48012

>  <i_f3d_flags>  (99) 
0

>  <s_epik_input>  (99) 
W05IMl1DKD1PKVtOSF1DKD1OMSlTW0NASF0oW0NAQEhdMTIpTjNbQ0BASF0oW0NIMl1bQ0gyXTIpU0MzPVM=

>  <s_epik_cmdline>  (99) 
J2VwaWtfcHl0aG9uJywgJy1waHQnLCAnMi4wJywgJy1waCcsICc3LjAnLCAnLXRuJywgJzgnLCAnLW1hJywgJzIwMCcsICctaW1hZScsICc8aW5maWxlLm1hZT4nLCAnLW9tYWUnLCAnPG91dGZpbGUubWFlPic=

>  <r_epik_Ionization_Penalty>  (99) 
2.52131

>  <r_epik_Ionization_Penalty_Charging>  (99) 
2.521

>  <r_epik_Ionization_Penalty_Neutral>  (99) 
0.000315191

>  <r_epik_State_Penalty>  (99) 
2.33265

>  <r_epik_Charging_Adjusted_Penalty>  (99) 
4.85365

>  <i_epik_Tot_Q>  (99) 
1

>  <i_epik_Tot_abs_Q>  (99) 
1

>  <s_epik_Chemistry_Notes>  (99) 
This compound has an imine and may undergo hydrolysis. This compound contains an acetal/aminal-like group ( X-CH(R)-Y where X, Y are N, S, or O) that may be acid/base labile, releasing an aldehyde.

>  <s_lp_Force_Field>  (99) 
OPLS3e

>  <r_lp_Energy>  (99) 
16.8512

>  <b_lp_Chiralities_Consistent>  (99) 
1

>  <s_lp_Variant>  (99) 
32:0-2

>  <s_i_glide_gridfile>  (99) 
pfpi4k_grid

>  <i_i_glide_lignum>  (99) 
5

>  <i_i_glide_rotatable_bonds>  (99) 
2

>  <r_i_docking_score>  (99) 
-4.41651

>  <r_i_glide_ligand_efficiency>  (99) 
-0.276032

>  <r_i_glide_ligand_efficiency_sa>  (99) 
-0.695557

>  <r_i_glide_ligand_efficiency_ln>  (99) 
-1.17069

>  <r_i_glide_gscore>  (99) 
-4.41651

>  <r_i_glide_lipo>  (99) 
-0.312805

>  <r_i_glide_hbond>  (99) 
-0.239487

>  <r_i_glide_metal>  (99) 
-0

>  <r_i_glide_rewards>  (99) 
-2.10584

>  <r_i_glide_evdw>  (99) 
-21.9365

>  <r_i_glide_ecoul>  (99) 
-3.78429

>  <r_i_glide_erotb>  (99) 
0

>  <r_i_glide_esite>  (99) 
-0.0939135

>  <r_i_glide_emodel>  (99) 
-35.3152

>  <r_i_glide_energy>  (99) 
-25.7208

>  <r_i_glide_einternal>  (99) 
2.11729

>  <r_i_glide_intrahb_reward>  (99) 
-0

>  <i_i_glide_confnum>  (99) 
2

>  <i_i_glide_posenum>  (99) 
17

>  <r_i_glide_eff_state_penalty>  (99) 
0

>  <ligand_id>  (99) 
32

>  <original_smiles>  (99) 
NC(=O)NC1=NC2CCC3SC(=S)N3C2S1

>  <smiles>  (99) 
[H]N([H])C(=O)N([H])C1=[N+]([H])C2([H])C([H])(S1)N1C(=S)SC1([H])C([H])([H])C2([H])[H]

$$$$
32:1:1
     RDKit          3D

 27 29  0  0  1  0  0  0  0  0999 V2000
   -1.3838    3.0055    2.8770 N   0  0  0  0  0  0  0  0  0  0  0  0
   -0.6939    1.8839    3.0152 C   0  0  0  0  0  0  0  0  0  0  0  0
   -1.0813    0.9334    3.6873 O   0  0  0  0  0  0  0  0  0  0  0  0
    0.5521    1.9012    2.3151 N   0  0  0  0  0  0  0  0  0  0  0  0
    1.4225    0.8747    2.2027 C   0  0  0  0  0  0  0  0  0  0  0  0
    2.6484    0.9388    1.6456 N   0  0  0  0  0  0  0  0  0  0  0  0
    3.2062   -0.3820    1.3418 C   0  0  1  0  0  0  0  0  0  0  0  0
    4.7023   -0.5147    0.9805 C   0  0  0  0  0  0  0  0  0  0  0  0
    5.1537   -2.0119    1.0393 C   0  0  0  0  0  0  0  0  0  0  0  0
    3.9614   -2.9880    0.9419 C   0  0  1  0  0  0  0  0  0  0  0  0
    4.1659   -4.6245    1.6103 S   0  0  0  0  0  0  0  0  0  0  0  0
    2.8566   -3.9372    2.5491 C   0  0  0  0  0  0  0  0  0  0  0  0
    1.7736   -4.4075    3.7161 S   0  0  0  0  0  0  0  0  0  0  0  0
    3.0403   -2.6530    2.0414 N   0  0  0  0  0  0  0  0  0  0  0  0
    2.7836   -1.2950    2.4818 C   0  0  2  0  0  0  0  0  0  0  0  0
    1.0846   -0.8106    2.7731 S   0  0  0  0  0  0  0  0  0  0  0  0
   -2.2788    3.0736    3.3349 H   0  0  0  0  0  0  0  0  0  0  0  0
   -1.0323    3.7444    2.2709 H   0  0  0  0  0  0  0  0  0  0  0  0
    0.8071    2.7216    1.7729 H   0  0  0  0  0  0  0  0  0  0  0  0
    2.6467   -0.6887    0.4536 H   0  0  0  0  0  0  0  0  0  0  0  0
    4.8345   -0.1644   -0.0453 H   0  0  0  0  0  0  0  0  0  0  0  0
    5.3322    0.1175    1.6089 H   0  0  0  0  0  0  0  0  0  0  0  0
    5.8938   -2.2262    0.2734 H   0  0  0  0  0  0  0  0  0  0  0  0
    5.6658   -2.1558    1.9937 H   0  0  0  0  0  0  0  0  0  0  0  0
    3.4566   -3.0185   -0.0269 H   0  0  0  0  0  0  0  0  0  0  0  0
    3.3855   -1.0811    3.3651 H   0  0  0  0  0  0  0  0  0  0  0  0
    3.1107    1.7897    1.3584 H   0  0  0  0  0  0  0  0  0  0  0  0
  1  2  1  0
  1 17  1  0
  1 18  1  0
  2  3  2  0
  2  4  1  0
  4  5  1  0
  4 19  1  0
  5 16  1  0
  5  6  2  0
  6  7  1  0
  6 27  1  0
  7 15  1  0
  7  8  1  0
  7 20  1  6
  8  9  1  0
  8 21  1  0
  8 22  1  0
  9 10  1  0
  9 23  1  0
  9 24  1  0
 10 14  1  0
 10 11  1  0
 10 25  1  6
 11 12  1  0
 12 13  2  0
 12 14  1  0
 14 15  1  0
 15 16  1  0
 15 26  1  1
M  CHG  1   6   1
M  END
>  <i_m_ct_stereo_status>  (100) 
1

>  <s_m_source_file>  (100) 
/var/tmp/pbs.5076255.sched01/tmpe2rv0q7i/42k21vmx8r.sdf

>  <i_m_source_file_index>  (100) 
5

>  <i_lp_mmshare_version>  (100) 
48012

>  <i_f3d_flags>  (100) 
0

>  <s_epik_input>  (100) 
W05IMl1DKD1PKVtOSF1DKD1OMSlTW0NASF0oW0NAQEhdMTIpTjNbQ0BASF0oW0NIMl1bQ0gyXTIpU0MzPVM=

>  <s_epik_cmdline>  (100) 
J2VwaWtfcHl0aG9uJywgJy1waHQnLCAnMi4wJywgJy1waCcsICc3LjAnLCAnLXRuJywgJzgnLCAnLW1hJywgJzIwMCcsICctaW1hZScsICc8aW5maWxlLm1hZT4nLCAnLW9tYWUnLCAnPG91dGZpbGUubWFlPic=

>  <r_epik_Ionization_Penalty>  (100) 
2.52131

>  <r_epik_Ionization_Penalty_Charging>  (100) 
2.521

>  <r_epik_Ionization_Penalty_Neutral>  (100) 
0.000315191

>  <r_epik_State_Penalty>  (100) 
2.33265

>  <r_epik_Charging_Adjusted_Penalty>  (100) 
4.85365

>  <i_epik_Tot_Q>  (100) 
1

>  <i_epik_Tot_abs_Q>  (100) 
1

>  <s_epik_Chemistry_Notes>  (100) 
This compound has an imine and may undergo hydrolysis. This compound contains an acetal/aminal-like group ( X-CH(R)-Y where X, Y are N, S, or O) that may be acid/base labile, releasing an aldehyde.

>  <s_lp_Force_Field>  (100) 
OPLS3e

>  <r_lp_Energy>  (100) 
16.8512

>  <b_lp_Chiralities_Consistent>  (100) 
1

>  <s_lp_Variant>  (100) 
32:0-2

>  <s_i_glide_gridfile>  (100) 
pfpi4k_grid

>  <i_i_glide_lignum>  (100) 
5

>  <i_i_glide_rotatable_bonds>  (100) 
2

>  <r_i_docking_score>  (100) 
-4.14838

>  <r_i_glide_ligand_efficiency>  (100) 
-0.259274

>  <r_i_glide_ligand_efficiency_sa>  (100) 
-0.653329

>  <r_i_glide_ligand_efficiency_ln>  (100) 
-1.09961

>  <r_i_glide_gscore>  (100) 
-4.14838

>  <r_i_glide_lipo>  (100) 
-0.208055

>  <r_i_glide_hbond>  (100) 
-0.290814

>  <r_i_glide_metal>  (100) 
-0

>  <r_i_glide_rewards>  (100) 
-1.53138

>  <r_i_glide_evdw>  (100) 
-18.6036

>  <r_i_glide_ecoul>  (100) 
-6.18638

>  <r_i_glide_erotb>  (100) 
0

>  <r_i_glide_esite>  (100) 
-0.259995

>  <r_i_glide_emodel>  (100) 
-33.656

>  <r_i_glide_energy>  (100) 
-24.79

>  <r_i_glide_einternal>  (100) 
2.64845

>  <r_i_glide_intrahb_reward>  (100) 
-0

>  <i_i_glide_confnum>  (100) 
1

>  <i_i_glide_posenum>  (100) 
11

>  <r_i_glide_eff_state_penalty>  (100) 
0

>  <ligand_id>  (100) 
32

>  <original_smiles>  (100) 
NC(=O)NC1=NC2CCC3SC(=S)N3C2S1

>  <smiles>  (100) 
[H]N([H])C(=O)N([H])C1=[N+]([H])C2([H])C([H])(S1)N1C(=S)SC1([H])C([H])([H])C2([H])[H]

$$$$
32:1:2
     RDKit          3D

 27 29  0  0  1  0  0  0  0  0999 V2000
   -0.2033    2.1753    2.4869 N   0  0  0  0  0  0  0  0  0  0  0  0
    0.3008    0.9607    2.5773 C   0  0  0  0  0  0  0  0  0  0  0  0
   -0.0944    0.1003    3.3744 O   0  0  0  0  0  0  0  0  0  0  0  0
    1.3996    0.6887    1.7211 N   0  0  0  0  0  0  0  0  0  0  0  0
    2.0528   -0.4949    1.7125 C   0  0  0  0  0  0  0  0  0  0  0  0
    1.8195   -1.6357    2.3925 N   0  0  0  0  0  0  0  0  0  0  0  0
    2.9509   -2.5708    2.3089 C   0  0  1  0  0  0  0  0  0  0  0  0
    2.7570   -4.0247    2.7556 C   0  0  0  0  0  0  0  0  0  0  0  0
    3.9753   -4.8975    2.3267 C   0  0  0  0  0  0  0  0  0  0  0  0
    5.2312   -4.0581    2.0337 C   0  0  1  0  0  0  0  0  0  0  0  0
    6.4379   -4.7813    0.9638 S   0  0  0  0  0  0  0  0  0  0  0  0
    5.9194   -3.3350    0.1128 C   0  0  0  0  0  0  0  0  0  0  0  0
    6.2947   -2.4795   -1.2457 S   0  0  0  0  0  0  0  0  0  0  0  0
    4.8676   -3.0853    0.9936 N   0  0  0  0  0  0  0  0  0  0  0  0
    3.5754   -2.4305    0.9261 C   0  0  2  0  0  0  0  0  0  0  0  0
    3.5511   -0.6517    0.7037 S   0  0  0  0  0  0  0  0  0  0  0  0
   -0.9806    2.4150    3.0614 H   0  0  0  0  0  0  0  0  0  0  0  0
    0.1323    2.8576    1.8043 H   0  0  0  0  0  0  0  0  0  0  0  0
    1.7758    1.3768    1.0742 H   0  0  0  0  0  0  0  0  0  0  0  0
    3.6692   -2.1316    2.9997 H   0  0  0  0  0  0  0  0  0  0  0  0
    2.7079   -4.0177    3.8447 H   0  0  0  0  0  0  0  0  0  0  0  0
    1.8058   -4.4315    2.3961 H   0  0  0  0  0  0  0  0  0  0  0  0
    4.1830   -5.6582    3.0798 H   0  0  0  0  0  0  0  0  0  0  0  0
    3.6731   -5.4471    1.4323 H   0  0  0  0  0  0  0  0  0  0  0  0
    5.7106   -3.5841    2.8819 H   0  0  0  0  0  0  0  0  0  0  0  0
    2.9587   -2.9258    0.1754 H   0  0  0  0  0  0  0  0  0  0  0  0
    1.0061   -1.7779    2.9881 H   0  0  0  0  0  0  0  0  0  0  0  0
  1  2  1  0
  1 17  1  0
  1 18  1  0
  2  3  2  0
  2  4  1  0
  4  5  1  0
  4 19  1  0
  5 16  1  0
  5  6  2  0
  6  7  1  0
  6 27  1  0
  7 15  1  0
  7  8  1  0
  7 20  1  1
  8  9  1  0
  8 21  1  0
  8 22  1  0
  9 10  1  0
  9 23  1  0
  9 24  1  0
 10 14  1  0
 10 11  1  0
 10 25  1  1
 11 12  1  0
 12 13  2  0
 12 14  1  0
 14 15  1  0
 15 16  1  0
 15 26  1  6
M  CHG  1   6   1
M  END
>  <i_m_ct_stereo_status>  (101) 
1

>  <s_m_source_file>  (101) 
/var/tmp/pbs.5076255.sched01/tmpe2rv0q7i/42k21vmx8r.sdf

>  <i_m_source_file_index>  (101) 
5

>  <i_lp_mmshare_version>  (101) 
48012

>  <i_f3d_flags>  (101) 
0

>  <s_epik_input>  (101) 
W05IMl1DKD1PKVtOSF1DKD1OMSlTW0NASF0oW0NAQEhdMTIpTjNbQ0BASF0oW0NIMl1bQ0gyXTIpU0MzPVM=

>  <s_epik_cmdline>  (101) 
J2VwaWtfcHl0aG9uJywgJy1waHQnLCAnMi4wJywgJy1waCcsICc3LjAnLCAnLXRuJywgJzgnLCAnLW1hJywgJzIwMCcsICctaW1hZScsICc8aW5maWxlLm1hZT4nLCAnLW9tYWUnLCAnPG91dGZpbGUubWFlPic=

>  <r_epik_Ionization_Penalty>  (101) 
2.52131

>  <r_epik_Ionization_Penalty_Charging>  (101) 
2.521

>  <r_epik_Ionization_Penalty_Neutral>  (101) 
0.000315191

>  <r_epik_State_Penalty>  (101) 
2.33265

>  <r_epik_Charging_Adjusted_Penalty>  (101) 
4.85365

>  <i_epik_Tot_Q>  (101) 
1

>  <i_epik_Tot_abs_Q>  (101) 
1

>  <s_epik_Chemistry_Notes>  (101) 
This compound has an imine and may undergo hydrolysis. This compound contains an acetal/aminal-like group ( X-CH(R)-Y where X, Y are N, S, or O) that may be acid/base labile, releasing an aldehyde.

>  <s_lp_Force_Field>  (101) 
OPLS3e

>  <r_lp_Energy>  (101) 
16.8512

>  <b_lp_Chiralities_Consistent>  (101) 
1

>  <s_lp_Variant>  (101) 
32:0-2

>  <s_i_glide_gridfile>  (101) 
pfpi4k_grid

>  <i_i_glide_lignum>  (101) 
5

>  <i_i_glide_rotatable_bonds>  (101) 
2

>  <r_i_docking_score>  (101) 
-4.0244

>  <r_i_glide_ligand_efficiency>  (101) 
-0.251525

>  <r_i_glide_ligand_efficiency_sa>  (101) 
-0.633804

>  <r_i_glide_ligand_efficiency_ln>  (101) 
-1.06675

>  <r_i_glide_gscore>  (101) 
-4.0244

>  <r_i_glide_lipo>  (101) 
-0.137764

>  <r_i_glide_hbond>  (101) 
-0.16

>  <r_i_glide_metal>  (101) 
-0

>  <r_i_glide_rewards>  (101) 
-1.66176

>  <r_i_glide_evdw>  (101) 
-19.4806

>  <r_i_glide_ecoul>  (101) 
-4.95024

>  <r_i_glide_erotb>  (101) 
0

>  <r_i_glide_esite>  (101) 
-0.348312

>  <r_i_glide_emodel>  (101) 
-34.2115

>  <r_i_glide_energy>  (101) 
-24.4308

>  <r_i_glide_einternal>  (101) 
0.139548

>  <r_i_glide_intrahb_reward>  (101) 
-0

>  <i_i_glide_confnum>  (101) 
1

>  <i_i_glide_posenum>  (101) 
3

>  <r_i_glide_eff_state_penalty>  (101) 
0

>  <ligand_id>  (101) 
32

>  <original_smiles>  (101) 
NC(=O)NC1=NC2CCC3SC(=S)N3C2S1

>  <smiles>  (101) 
[H]N([H])C(=O)N([H])C1=[N+]([H])C2([H])C([H])(S1)N1C(=S)SC1([H])C([H])([H])C2([H])[H]

$$$$
32:2:0
     RDKit          3D

 26 28  0  0  1  0  0  0  0  0999 V2000
    0.9183    2.1640    2.0709 N   0  0  0  0  0  0  0  0  0  0  0  0
    0.0131    1.2921    2.5206 C   0  0  0  0  0  0  0  0  0  0  0  0
   -1.1719    1.6130    2.5582 O   0  0  0  0  0  0  0  0  0  0  0  0
    0.4877    0.0929    3.0414 N   0  0  0  0  0  0  0  0  0  0  0  0
    1.5380   -0.5086    2.5583 C   0  0  0  0  0  0  0  0  0  0  0  0
    2.2188   -0.2197    1.3700 N   0  0  0  0  0  0  0  0  0  0  0  0
    3.1601   -1.2417    0.9695 C   0  0  1  0  0  0  0  0  0  0  0  0
    4.2314   -0.8726   -0.0865 C   0  0  0  0  0  0  0  0  0  0  0  0
    5.3921   -1.9178   -0.0980 C   0  0  0  0  0  0  0  0  0  0  0  0
    4.9683   -3.2547    0.5344 C   0  0  1  0  0  0  0  0  0  0  0  0
    6.2490   -4.2890    1.1862 S   0  0  0  0  0  0  0  0  0  0  0  0
    5.2277   -3.9447    2.5685 C   0  0  0  0  0  0  0  0  0  0  0  0
    5.0969   -4.3614    4.1669 S   0  0  0  0  0  0  0  0  0  0  0  0
    4.5085   -2.9637    1.9006 N   0  0  0  0  0  0  0  0  0  0  0  0
    3.7714   -1.7683    2.2503 C   0  0  2  0  0  0  0  0  0  0  0  0
    2.3536   -1.9449    3.3310 S   0  0  0  0  0  0  0  0  0  0  0  0
    0.6105    3.0539    1.6364 H   0  0  0  0  0  0  0  0  0  0  0  0
    1.9031    1.9578    2.1186 H   0  0  0  0  0  0  0  0  0  0  0  0
    2.5448   -2.0255    0.5220 H   0  0  0  0  0  0  0  0  0  0  0  0
    3.7616   -0.8424   -1.0743 H   0  0  0  0  0  0  0  0  0  0  0  0
    4.6266    0.1301    0.0955 H   0  0  0  0  0  0  0  0  0  0  0  0
    5.7700   -2.0631   -1.1079 H   0  0  0  0  0  0  0  0  0  0  0  0
    6.2223   -1.4821    0.4678 H   0  0  0  0  0  0  0  0  0  0  0  0
    4.2439   -3.8333   -0.0329 H   0  0  0  0  0  0  0  0  0  0  0  0
    4.4400   -1.0164    2.6670 H   0  0  0  0  0  0  0  0  0  0  0  0
    1.6824    0.1660    0.5957 H   0  0  0  0  0  0  0  0  0  0  0  0
  1  2  1  0
  1 17  1  0
  1 18  1  0
  2  3  2  0
  2  4  1  0
  4  5  2  0
  5 16  1  0
  5  6  1  0
  6  7  1  0
  6 26  1  0
  7 15  1  0
  7  8  1  0
  7 19  1  6
  8  9  1  0
  8 20  1  0
  8 21  1  0
  9 10  1  0
  9 22  1  0
  9 23  1  0
 10 14  1  0
 10 11  1  0
 10 24  1  6
 11 12  1  0
 12 13  2  0
 12 14  1  0
 14 15  1  0
 15 16  1  0
 15 25  1  1
M  END
>  <i_m_ct_stereo_status>  (102) 
1

>  <s_m_source_file>  (102) 
/var/tmp/pbs.5076255.sched01/tmpe2rv0q7i/42k21vmx8r.sdf

>  <i_m_source_file_index>  (102) 
6

>  <i_lp_mmshare_version>  (102) 
48012

>  <i_f3d_flags>  (102) 
0

>  <s_epik_input>  (102) 
W05IMl1DKD1PKVtOSF1DKD1OMSlTW0NASF0oW0NAQEhdMTIpTjNbQ0BASF0oW0NIMl1bQ0gyXTIpU0MzPVM=

>  <s_epik_cmdline>  (102) 
J2VwaWtfcHl0aG9uJywgJy1waHQnLCAnMi4wJywgJy1waCcsICc3LjAnLCAnLXRuJywgJzgnLCAnLW1hJywgJzIwMCcsICctaW1hZScsICc8aW5maWxlLm1hZT4nLCAnLW9tYWUnLCAnPG91dGZpbGUubWFlPic=

>  <r_epik_Ionization_Penalty>  (102) 
0.491885

>  <r_epik_Ionization_Penalty_Charging>  (102) 
0

>  <r_epik_Ionization_Penalty_Neutral>  (102) 
0.491885

>  <r_epik_State_Penalty>  (102) 
2.4955

>  <r_epik_Charging_Adjusted_Penalty>  (102) 
2.4955

>  <i_epik_Tot_Q>  (102) 
0

>  <i_epik_Tot_abs_Q>  (102) 
0

>  <s_epik_Chemistry_Notes>  (102) 
This compound has an imine and may undergo hydrolysis. This compound contains an acetal/aminal-like group ( X-CH(R)-Y where X, Y are N, S, or O) that may be acid/base labile, releasing an aldehyde.

>  <s_lp_Force_Field>  (102) 
OPLS3e

>  <r_lp_Energy>  (102) 
13.2039

>  <b_lp_Chiralities_Consistent>  (102) 
1

>  <s_lp_Variant>  (102) 
32:0-3

>  <s_i_glide_gridfile>  (102) 
pfpi4k_grid

>  <i_i_glide_lignum>  (102) 
6

>  <i_i_glide_rotatable_bonds>  (102) 
1

>  <r_i_docking_score>  (102) 
-3.7663

>  <r_i_glide_ligand_efficiency>  (102) 
-0.235394

>  <r_i_glide_ligand_efficiency_sa>  (102) 
-0.593155

>  <r_i_glide_ligand_efficiency_ln>  (102) 
-0.998333

>  <r_i_glide_gscore>  (102) 
-3.7663

>  <r_i_glide_lipo>  (102) 
-0.11982

>  <r_i_glide_hbond>  (102) 
-0.238487

>  <r_i_glide_metal>  (102) 
-0

>  <r_i_glide_rewards>  (102) 
-1.6138

>  <r_i_glide_evdw>  (102) 
-18.1654

>  <r_i_glide_ecoul>  (102) 
-5.71431

>  <r_i_glide_erotb>  (102) 
0.238493

>  <r_i_glide_esite>  (102) 
-0.267274

>  <r_i_glide_emodel>  (102) 
-29.9198

>  <r_i_glide_energy>  (102) 
-23.8797

>  <r_i_glide_einternal>  (102) 
0.234251

>  <r_i_glide_intrahb_reward>  (102) 
-0

>  <i_i_glide_confnum>  (102) 
4

>  <i_i_glide_posenum>  (102) 
5

>  <r_i_glide_eff_state_penalty>  (102) 
0

>  <ligand_id>  (102) 
32

>  <original_smiles>  (102) 
NC(=O)NC1=NC2CCC3SC(=S)N3C2S1

>  <smiles>  (102) 
[H]N([H])C(=O)N=C1SC2([H])N3C(=S)SC3([H])C([H])([H])C([H])([H])C2([H])N1[H]

$$$$
32:2:1
     RDKit          3D

 26 28  0  0  1  0  0  0  0  0999 V2000
    3.4334   -1.3334    0.2582 N   0  0  0  0  0  0  0  0  0  0  0  0
    4.5501   -0.8794    0.8548 C   0  0  0  0  0  0  0  0  0  0  0  0
    5.6563   -1.1330    0.3737 O   0  0  0  0  0  0  0  0  0  0  0  0
    4.4110   -0.2097    2.0624 N   0  0  0  0  0  0  0  0  0  0  0  0
    3.3136    0.3827    2.4550 C   0  0  0  0  0  0  0  0  0  0  0  0
    2.1187    0.5824    1.7434 N   0  0  0  0  0  0  0  0  0  0  0  0
    1.1387    1.4234    2.3822 C   0  0  1  0  0  0  0  0  0  0  0  0
   -0.3211    1.2685    1.9143 C   0  0  0  0  0  0  0  0  0  0  0  0
   -1.3203    1.9444    2.9123 C   0  0  0  0  0  0  0  0  0  0  0  0
   -0.6093    2.9538    3.8298 C   0  0  1  0  0  0  0  0  0  0  0  0
   -1.3596    3.2983    5.4085 S   0  0  0  0  0  0  0  0  0  0  0  0
    0.2083    2.6297    5.8007 C   0  0  0  0  0  0  0  0  0  0  0  0
    1.1477    2.3526    7.1370 S   0  0  0  0  0  0  0  0  0  0  0  0
    0.4675    2.2132    4.5045 N   0  0  0  0  0  0  0  0  0  0  0  0
    1.2702    1.1761    3.8736 C   0  0  2  0  0  0  0  0  0  0  0  0
    3.0605    1.1412    4.1016 S   0  0  0  0  0  0  0  0  0  0  0  0
    3.4731   -1.7967   -0.6319 H   0  0  0  0  0  0  0  0  0  0  0  0
    2.5059   -1.2198    0.6797 H   0  0  0  0  0  0  0  0  0  0  0  0
    1.4391    2.4577    2.1603 H   0  0  0  0  0  0  0  0  0  0  0  0
   -0.4124    1.7462    0.9350 H   0  0  0  0  0  0  0  0  0  0  0  0
   -0.5889    0.2122    1.7652 H   0  0  0  0  0  0  0  0  0  0  0  0
   -2.1496    2.4016    2.3885 H   0  0  0  0  0  0  0  0  0  0  0  0
   -1.7616    1.1448    3.5123 H   0  0  0  0  0  0  0  0  0  0  0  0
   -0.2312    3.8491    3.3218 H   0  0  0  0  0  0  0  0  0  0  0  0
    0.8632    0.1948    4.1420 H   0  0  0  0  0  0  0  0  0  0  0  0
    2.0599    0.5113    0.7381 H   0  0  0  0  0  0  0  0  0  0  0  0
  1  2  1  0
  1 17  1  0
  1 18  1  0
  2  3  2  0
  2  4  1  0
  4  5  2  0
  5 16  1  0
  5  6  1  0
  6  7  1  0
  6 26  1  0
  7 15  1  0
  7  8  1  0
  7 19  1  1
  8  9  1  0
  8 20  1  0
  8 21  1  0
  9 10  1  0
  9 22  1  0
  9 23  1  0
 10 14  1  0
 10 11  1  0
 10 24  1  6
 11 12  1  0
 12 13  2  0
 12 14  1  0
 14 15  1  0
 15 16  1  0
 15 25  1  6
M  END
>  <i_m_ct_stereo_status>  (103) 
1

>  <s_m_source_file>  (103) 
/var/tmp/pbs.5076255.sched01/tmpe2rv0q7i/42k21vmx8r.sdf

>  <i_m_source_file_index>  (103) 
6

>  <i_lp_mmshare_version>  (103) 
48012

>  <i_f3d_flags>  (103) 
0

>  <s_epik_input>  (103) 
W05IMl1DKD1PKVtOSF1DKD1OMSlTW0NASF0oW0NAQEhdMTIpTjNbQ0BASF0oW0NIMl1bQ0gyXTIpU0MzPVM=

>  <s_epik_cmdline>  (103) 
J2VwaWtfcHl0aG9uJywgJy1waHQnLCAnMi4wJywgJy1waCcsICc3LjAnLCAnLXRuJywgJzgnLCAnLW1hJywgJzIwMCcsICctaW1hZScsICc8aW5maWxlLm1hZT4nLCAnLW9tYWUnLCAnPG91dGZpbGUubWFlPic=

>  <r_epik_Ionization_Penalty>  (103) 
0.491885

>  <r_epik_Ionization_Penalty_Charging>  (103) 
0

>  <r_epik_Ionization_Penalty_Neutral>  (103) 
0.491885

>  <r_epik_State_Penalty>  (103) 
2.4955

>  <r_epik_Charging_Adjusted_Penalty>  (103) 
2.4955

>  <i_epik_Tot_Q>  (103) 
0

>  <i_epik_Tot_abs_Q>  (103) 
0

>  <s_epik_Chemistry_Notes>  (103) 
This compound has an imine and may undergo hydrolysis. This compound contains an acetal/aminal-like group ( X-CH(R)-Y where X, Y are N, S, or O) that may be acid/base labile, releasing an aldehyde.

>  <s_lp_Force_Field>  (103) 
OPLS3e

>  <r_lp_Energy>  (103) 
13.2039

>  <b_lp_Chiralities_Consistent>  (103) 
1

>  <s_lp_Variant>  (103) 
32:0-3

>  <s_i_glide_gridfile>  (103) 
pfpi4k_grid

>  <i_i_glide_lignum>  (103) 
6

>  <i_i_glide_rotatable_bonds>  (103) 
1

>  <r_i_docking_score>  (103) 
-3.23998

>  <r_i_glide_ligand_efficiency>  (103) 
-0.202498

>  <r_i_glide_ligand_efficiency_sa>  (103) 
-0.510264

>  <r_i_glide_ligand_efficiency_ln>  (103) 
-0.85882

>  <r_i_glide_gscore>  (103) 
-3.23998

>  <r_i_glide_lipo>  (103) 
0

>  <r_i_glide_hbond>  (103) 
-0.0144923

>  <r_i_glide_metal>  (103) 
-0

>  <r_i_glide_rewards>  (103) 
-1.70138

>  <r_i_glide_evdw>  (103) 
-20.9917

>  <r_i_glide_ecoul>  (103) 
-3.83686

>  <r_i_glide_erotb>  (103) 
0.238493

>  <r_i_glide_esite>  (103) 
-0.137482

>  <r_i_glide_emodel>  (103) 
-30.2082

>  <r_i_glide_energy>  (103) 
-24.8285

>  <r_i_glide_einternal>  (103) 
0.137425

>  <r_i_glide_intrahb_reward>  (103) 
-0

>  <i_i_glide_confnum>  (103) 
2

>  <i_i_glide_posenum>  (103) 
26

>  <r_i_glide_eff_state_penalty>  (103) 
0

>  <ligand_id>  (103) 
32

>  <original_smiles>  (103) 
NC(=O)NC1=NC2CCC3SC(=S)N3C2S1

>  <smiles>  (103) 
[H]N([H])C(=O)N=C1SC2([H])N3C(=S)SC3([H])C([H])([H])C([H])([H])C2([H])N1[H]

$$$$
32:2:2
     RDKit          3D

 26 28  0  0  1  0  0  0  0  0999 V2000
    2.6556   -0.5049    1.2188 N   0  0  0  0  0  0  0  0  0  0  0  0
    3.6894   -0.2212    2.0199 C   0  0  0  0  0  0  0  0  0  0  0  0
    4.8430   -0.3346    1.6055 O   0  0  0  0  0  0  0  0  0  0  0  0
    3.3863    0.1046    3.3427 N   0  0  0  0  0  0  0  0  0  0  0  0
    2.2733    0.6654    3.7060 C   0  0  0  0  0  0  0  0  0  0  0  0
    1.2642    1.2008    2.8930 N   0  0  0  0  0  0  0  0  0  0  0  0
    0.2359    1.9358    3.5887 C   0  0  1  0  0  0  0  0  0  0  0  0
   -1.1158    2.1587    2.8656 C   0  0  0  0  0  0  0  0  0  0  0  0
   -2.2145    2.6245    3.8693 C   0  0  0  0  0  0  0  0  0  0  0  0
   -1.6121    3.1713    5.1799 C   0  0  1  0  0  0  0  0  0  0  0  0
   -2.6079    3.1131    6.6537 S   0  0  0  0  0  0  0  0  0  0  0  0
   -1.2165    2.1420    7.0527 C   0  0  0  0  0  0  0  0  0  0  0  0
   -0.6043    1.3396    8.3688 S   0  0  0  0  0  0  0  0  0  0  0  0
   -0.7533    2.1077    5.7408 N   0  0  0  0  0  0  0  0  0  0  0  0
    0.0541    1.2312    4.9216 C   0  0  2  0  0  0  0  0  0  0  0  0
    1.7410    0.8995    5.4384 S   0  0  0  0  0  0  0  0  0  0  0  0
    2.7717   -0.7148    0.2336 H   0  0  0  0  0  0  0  0  0  0  0  0
    1.7097   -0.4821    1.5733 H   0  0  0  0  0  0  0  0  0  0  0  0
    0.6701    2.9251    3.7621 H   0  0  0  0  0  0  0  0  0  0  0  0
   -0.9826    2.9264    2.1034 H   0  0  0  0  0  0  0  0  0  0  0  0
   -1.4441    1.2587    2.3379 H   0  0  0  0  0  0  0  0  0  0  0  0
   -2.8863    3.3446    3.4082 H   0  0  0  0  0  0  0  0  0  0  0  0
   -2.8348    1.7529    4.0808 H   0  0  0  0  0  0  0  0  0  0  0  0
   -1.0878    4.1243    5.0832 H   0  0  0  0  0  0  0  0  0  0  0  0
   -0.4639    0.2809    4.7788 H   0  0  0  0  0  0  0  0  0  0  0  0
    1.4461    1.4806    1.9382 H   0  0  0  0  0  0  0  0  0  0  0  0
  1  2  1  0
  1 17  1  0
  1 18  1  0
  2  3  2  0
  2  4  1  0
  4  5  2  0
  5 16  1  0
  5  6  1  0
  6  7  1  0
  6 26  1  0
  7 15  1  0
  7  8  1  0
  7 19  1  1
  8  9  1  0
  8 20  1  0
  8 21  1  0
  9 10  1  0
  9 22  1  0
  9 23  1  0
 10 14  1  0
 10 11  1  0
 10 24  1  6
 11 12  1  0
 12 13  2  0
 12 14  1  0
 14 15  1  0
 15 16  1  0
 15 25  1  6
M  END
>  <i_m_ct_stereo_status>  (104) 
1

>  <s_m_source_file>  (104) 
/var/tmp/pbs.5076255.sched01/tmpe2rv0q7i/42k21vmx8r.sdf

>  <i_m_source_file_index>  (104) 
6

>  <i_lp_mmshare_version>  (104) 
48012

>  <i_f3d_flags>  (104) 
0

>  <s_epik_input>  (104) 
W05IMl1DKD1PKVtOSF1DKD1OMSlTW0NASF0oW0NAQEhdMTIpTjNbQ0BASF0oW0NIMl1bQ0gyXTIpU0MzPVM=

>  <s_epik_cmdline>  (104) 
J2VwaWtfcHl0aG9uJywgJy1waHQnLCAnMi4wJywgJy1waCcsICc3LjAnLCAnLXRuJywgJzgnLCAnLW1hJywgJzIwMCcsICctaW1hZScsICc8aW5maWxlLm1hZT4nLCAnLW9tYWUnLCAnPG91dGZpbGUubWFlPic=

>  <r_epik_Ionization_Penalty>  (104) 
0.491885

>  <r_epik_Ionization_Penalty_Charging>  (104) 
0

>  <r_epik_Ionization_Penalty_Neutral>  (104) 
0.491885

>  <r_epik_State_Penalty>  (104) 
2.4955

>  <r_epik_Charging_Adjusted_Penalty>  (104) 
2.4955

>  <i_epik_Tot_Q>  (104) 
0

>  <i_epik_Tot_abs_Q>  (104) 
0

>  <s_epik_Chemistry_Notes>  (104) 
This compound has an imine and may undergo hydrolysis. This compound contains an acetal/aminal-like group ( X-CH(R)-Y where X, Y are N, S, or O) that may be acid/base labile, releasing an aldehyde.

>  <s_lp_Force_Field>  (104) 
OPLS3e

>  <r_lp_Energy>  (104) 
13.2039

>  <b_lp_Chiralities_Consistent>  (104) 
1

>  <s_lp_Variant>  (104) 
32:0-3

>  <s_i_glide_gridfile>  (104) 
pfpi4k_grid

>  <i_i_glide_lignum>  (104) 
6

>  <i_i_glide_rotatable_bonds>  (104) 
1

>  <r_i_docking_score>  (104) 
-3.09439

>  <r_i_glide_ligand_efficiency>  (104) 
-0.1934

>  <r_i_glide_ligand_efficiency_sa>  (104) 
-0.487336

>  <r_i_glide_ligand_efficiency_ln>  (104) 
-0.82023

>  <r_i_glide_gscore>  (104) 
-3.09439

>  <r_i_glide_lipo>  (104) 
-0.138844

>  <r_i_glide_hbond>  (104) 
-0.0326301

>  <r_i_glide_metal>  (104) 
-0

>  <r_i_glide_rewards>  (104) 
-1.56668

>  <r_i_glide_evdw>  (104) 
-20.0594

>  <r_i_glide_ecoul>  (104) 
-2.96842

>  <r_i_glide_erotb>  (104) 
0.238493

>  <r_i_glide_esite>  (104) 
-0.146498

>  <r_i_glide_emodel>  (104) 
-28.3091

>  <r_i_glide_energy>  (104) 
-23.0278

>  <r_i_glide_einternal>  (104) 
0.00150096

>  <r_i_glide_intrahb_reward>  (104) 
-0

>  <i_i_glide_confnum>  (104) 
4

>  <i_i_glide_posenum>  (104) 
13

>  <r_i_glide_eff_state_penalty>  (104) 
0

>  <ligand_id>  (104) 
32

>  <original_smiles>  (104) 
NC(=O)NC1=NC2CCC3SC(=S)N3C2S1

>  <smiles>  (104) 
[H]N([H])C(=O)N=C1SC2([H])N3C(=S)SC3([H])C([H])([H])C([H])([H])C2([H])N1[H]

$$$$
34:0:0
     RDKit          3D

 57 61  0  0  1  0  0  0  0  0999 V2000
    4.9146   -3.8543   -3.0634 C   0  0  0  0  0  0  0  0  0  0  0  0
    4.8541   -3.3292   -1.8224 C   0  0  0  0  0  0  0  0  0  0  0  0
    5.2688   -1.8934   -1.6082 C   0  0  1  0  0  0  0  0  0  0  0  0
    4.1632   -0.8956   -1.9774 C   0  0  0  0  0  0  0  0  0  0  0  0
    5.9583   -1.6242   -0.2817 C   0  0  2  0  0  0  0  0  0  0  0  0
    7.1826   -2.4689    0.0527 C   0  0  0  0  0  0  0  0  0  0  0  0
    6.3918   -3.0783    1.2042 C   0  0  2  0  0  0  0  0  0  0  0  0
    6.0407   -4.5672    1.1523 C   0  0  1  0  0  0  0  0  0  0  0  0
    7.3060   -5.4267    1.2187 C   0  0  0  0  0  0  0  0  0  0  0  0
    5.2653   -4.8998    2.2756 O   0  0  0  0  0  0  0  0  0  0  0  0
    5.4290   -4.9130   -0.0493 O   0  0  0  0  0  0  0  0  0  0  0  0
    4.3666   -4.1595   -0.6367 C   0  0  1  0  0  0  0  0  0  0  0  0
    3.3433   -3.4654    0.3011 C   0  0  1  0  0  0  0  0  0  0  0  0
    2.6255   -4.5084    0.9424 O   0  0  0  0  0  0  0  0  0  0  0  0
    3.8185   -2.2565    1.1971 C   0  0  2  0  0  0  0  0  0  0  0  0
    5.3453   -1.9294    1.1188 C   0  0  2  0  0  0  0  0  0  0  0  0
    5.6444   -0.7349    2.0345 C   0  0  0  0  0  0  0  0  0  0  0  0
    5.1630   -0.8856    3.4719 C   0  0  1  0  0  0  0  0  0  0  0  0
    5.8027    0.1794    4.3917 C   0  0  0  0  0  0  0  0  0  0  0  0
    3.6185   -0.9244    3.5045 C   0  0  2  0  0  0  0  0  0  0  0  0
    3.1066    0.3623    3.1842 O   0  0  0  0  0  0  0  0  0  0  0  0
    3.1550   -1.3896    4.8936 C   0  0  0  0  0  0  0  0  0  0  0  0
    2.9351   -0.6447    5.8496 O   0  0  0  0  0  0  0  0  0  0  0  0
    3.0357   -2.8367    4.8629 C   0  0  0  0  0  0  0  0  0  0  0  0
    3.0414   -3.2106    3.5763 C   0  0  0  0  0  0  0  0  0  0  0  0
    3.0519   -2.0496    2.5815 C   0  0  2  0  0  0  0  0  0  0  0  0
    1.5668   -1.7550    2.2676 C   0  0  0  0  0  0  0  0  0  0  0  0
    4.6232   -4.8736   -3.2482 H   0  0  0  0  0  0  0  0  0  0  0  0
    5.2544   -3.2709   -3.9044 H   0  0  0  0  0  0  0  0  0  0  0  0
    6.0500   -1.7249   -2.3425 H   0  0  0  0  0  0  0  0  0  0  0  0
    3.9679   -0.9202   -3.0490 H   0  0  0  0  0  0  0  0  0  0  0  0
    4.4629    0.1199   -1.7356 H   0  0  0  0  0  0  0  0  0  0  0  0
    3.2127   -1.0957   -1.4844 H   0  0  0  0  0  0  0  0  0  0  0  0
    6.2957   -0.5871   -0.2909 H   0  0  0  0  0  0  0  0  0  0  0  0
    7.4756   -3.1836   -0.7191 H   0  0  0  0  0  0  0  0  0  0  0  0
    8.0383   -1.8823    0.3951 H   0  0  0  0  0  0  0  0  0  0  0  0
    7.0017   -2.8952    2.0830 H   0  0  0  0  0  0  0  0  0  0  0  0
    7.0248   -6.4787    1.1880 H   0  0  0  0  0  0  0  0  0  0  0  0
    7.8517   -5.2361    2.1424 H   0  0  0  0  0  0  0  0  0  0  0  0
    7.9562   -5.2196    0.3695 H   0  0  0  0  0  0  0  0  0  0  0  0
    5.1924   -5.8399    2.3084 H   0  0  0  0  0  0  0  0  0  0  0  0
    3.8124   -4.9596   -1.1062 H   0  0  0  0  0  0  0  0  0  0  0  0
    2.5846   -3.0544   -0.3629 H   0  0  0  0  0  0  0  0  0  0  0  0
    2.6521   -5.2612    0.3708 H   0  0  0  0  0  0  0  0  0  0  0  0
    3.4115   -1.4087    0.6485 H   0  0  0  0  0  0  0  0  0  0  0  0
    6.7218   -0.5917    2.0727 H   0  0  0  0  0  0  0  0  0  0  0  0
    5.2346    0.1780    1.6019 H   0  0  0  0  0  0  0  0  0  0  0  0
    5.5445   -1.8460    3.8193 H   0  0  0  0  0  0  0  0  0  0  0  0
    5.4841    1.1840    4.1123 H   0  0  0  0  0  0  0  0  0  0  0  0
    6.8921    0.1534    4.3288 H   0  0  0  0  0  0  0  0  0  0  0  0
    5.5441    0.0343    5.4421 H   0  0  0  0  0  0  0  0  0  0  0  0
    3.3916    0.6102    2.3165 H   0  0  0  0  0  0  0  0  0  0  0  0
    2.9634   -3.4691    5.7331 H   0  0  0  0  0  0  0  0  0  0  0  0
    2.9667   -4.2403    3.2798 H   0  0  0  0  0  0  0  0  0  0  0  0
    1.4306   -0.9206    1.5732 H   0  0  0  0  0  0  0  0  0  0  0  0
    0.9659   -1.5535    3.1565 H   0  0  0  0  0  0  0  0  0  0  0  0
    1.1437   -2.6316    1.8144 H   0  0  0  0  0  0  0  0  0  0  0  0
  1  2  2  0
  1 28  1  0
  1 29  1  0
  2 12  1  0
  2  3  1  0
  3  4  1  0
  3  5  1  0
  3 30  1  6
  4 31  1  0
  4 32  1  0
  4 33  1  0
  5 16  1  0
  5  6  1  0
  5 34  1  1
  6  7  1  0
  6 35  1  0
  6 36  1  0
  7 16  1  0
  7  8  1  0
  7 37  1  1
  8  9  1  0
  8 10  1  1
  8 11  1  0
  9 38  1  0
  9 39  1  0
  9 40  1  0
 10 41  1  0
 11 12  1  0
 12 13  1  0
 12 42  1  6
 13 14  1  0
 13 15  1  0
 13 43  1  6
 14 44  1  0
 15 26  1  0
 15 16  1  0
 15 45  1  6
 16 17  1  1
 17 18  1  0
 17 46  1  0
 17 47  1  0
 18 19  1  0
 18 20  1  0
 18 48  1  1
 19 49  1  0
 19 50  1  0
 19 51  1  0
 20 26  1  0
 20 21  1  6
 20 22  1  0
 21 52  1  0
 22 23  2  0
 22 24  1  0
 24 25  2  0
 24 53  1  0
 25 26  1  0
 25 54  1  0
 26 27  1  6
 27 55  1  0
 27 56  1  0
 27 57  1  0
M  END
>  <i_m_ct_stereo_status>  (105) 
1

>  <s_m_source_file>  (105) 
/var/tmp/pbs.5076255.sched01/tmpe2rv0q7i/42k21vmx8r.sdf

>  <i_m_source_file_index>  (105) 
8

>  <i_lp_mmshare_version>  (105) 
48012

>  <i_f3d_flags>  (105) 
0

>  <s_epik_input>  (105) 
W0NIMl0xW0NAQEhdMltDQEBdKFtDSDNdKShbT0hdKU9bQ0BIXShDKD1bQ0gyXSlbQ0BASF0oW0NIM10pW0NASF0xW0NAXTIzNClbQ0BASF0oW09IXSlbQ0BIXTNbQ0BdNShbQ0gzXSlbQ0BdKFtPSF0pKFtDQEBIXShbQ0gyXTQpW0NIM10pQyg9TylbQ0hdPVtDSF01

>  <s_epik_cmdline>  (105) 
J2VwaWtfcHl0aG9uJywgJy1waHQnLCAnMi4wJywgJy1waCcsICc3LjAnLCAnLXRuJywgJzgnLCAnLW1hJywgJzIwMCcsICctaW1hZScsICc8aW5maWxlLm1hZT4nLCAnLW9tYWUnLCAnPG91dGZpbGUubWFlPic=

>  <r_lp_tautomer_probability>  (105) 
1

>  <r_epik_Ionization_Penalty>  (105) 
2.93368e-07

>  <r_epik_Ionization_Penalty_Charging>  (105) 
0

>  <r_epik_Ionization_Penalty_Neutral>  (105) 
2.93368e-07

>  <r_epik_State_Penalty>  (105) 
-0

>  <r_epik_Charging_Adjusted_Penalty>  (105) 
0

>  <i_epik_Tot_Q>  (105) 
0

>  <i_epik_Tot_abs_Q>  (105) 
0

>  <s_lp_Force_Field>  (105) 
OPLS3e

>  <r_lp_Energy>  (105) 
63.3797

>  <b_lp_Chiralities_Consistent>  (105) 
1

>  <s_lp_Variant>  (105) 
34:0-1

>  <s_i_glide_gridfile>  (105) 
pfpi4k_grid

>  <i_i_glide_lignum>  (105) 
8

>  <i_i_glide_rotatable_bonds>  (105) 
3

>  <r_i_docking_score>  (105) 
-3.10783

>  <r_i_glide_ligand_efficiency>  (105) 
-0.115105

>  <r_i_glide_ligand_efficiency_sa>  (105) 
-0.345314

>  <r_i_glide_ligand_efficiency_ln>  (105) 
-0.723451

>  <r_i_glide_gscore>  (105) 
-3.10783

>  <r_i_glide_lipo>  (105) 
-0.700891

>  <r_i_glide_hbond>  (105) 
0

>  <r_i_glide_metal>  (105) 
-0

>  <r_i_glide_rewards>  (105) 
-0.969278

>  <r_i_glide_evdw>  (105) 
-23.5029

>  <r_i_glide_ecoul>  (105) 
-1.7501

>  <r_i_glide_erotb>  (105) 
0

>  <r_i_glide_esite>  (105) 
0

>  <r_i_glide_emodel>  (105) 
-29.2496

>  <r_i_glide_energy>  (105) 
-25.253

>  <r_i_glide_einternal>  (105) 
0.991883

>  <r_i_glide_intrahb_reward>  (105) 
-0

>  <i_i_glide_confnum>  (105) 
2

>  <i_i_glide_posenum>  (105) 
38

>  <r_i_glide_eff_state_penalty>  (105) 
0

>  <ligand_id>  (105) 
34

>  <original_smiles>  (105) 
C=C1C(C)C2CC3C(C)(O)OC1C(O)C1C23CC(C)C2(O)C(=O)C=CC12C

>  <smiles>  (105) 
[H]OC1([H])C2([H])OC(O[H])(C([H])([H])[H])C3([H])C([H])([H])C([H])(C([H])(C([H])([H])[H])C2=C([H])[H])C32C([H])([H])C([H])(C([H])([H])[H])C3(O[H])C(=O)C([H])=C([H])C3(C([H])([H])[H])C12[H]

$$$$
34:0:1
     RDKit          3D

 57 61  0  0  1  0  0  0  0  0999 V2000
    1.1472   -8.1194    4.2521 C   0  0  0  0  0  0  0  0  0  0  0  0
    1.8734   -7.1873    3.6006 C   0  0  0  0  0  0  0  0  0  0  0  0
    2.0806   -7.3012    2.1031 C   0  0  1  0  0  0  0  0  0  0  0  0
    0.8917   -6.7446    1.2997 C   0  0  0  0  0  0  0  0  0  0  0  0
    3.4536   -6.8252    1.6156 C   0  0  2  0  0  0  0  0  0  0  0  0
    4.6924   -7.4396    2.2500 C   0  0  0  0  0  0  0  0  0  0  0  0
    5.0472   -6.0735    2.8271 C   0  0  2  0  0  0  0  0  0  0  0  0
    4.9798   -5.9084    4.3548 C   0  0  1  0  0  0  0  0  0  0  0  0
    6.0595   -6.7642    5.0318 C   0  0  0  0  0  0  0  0  0  0  0  0
    5.2313   -4.5715    4.6856 O   0  0  0  0  0  0  0  0  0  0  0  0
    3.7755   -6.3696    4.8846 O   0  0  0  0  0  0  0  0  0  0  0  0
    2.4923   -6.0163    4.3642 C   0  0  1  0  0  0  0  0  0  0  0  0
    2.3213   -4.6155    3.7158 C   0  0  1  0  0  0  0  0  0  0  0  0
    2.4233   -3.6623    4.7593 O   0  0  0  0  0  0  0  0  0  0  0  0
    3.0803   -4.2802    2.3758 C   0  0  2  0  0  0  0  0  0  0  0  0
    4.0457   -5.3960    1.8503 C   0  0  2  0  0  0  0  0  0  0  0  0
    4.6856   -4.9240    0.5280 C   0  0  0  0  0  0  0  0  0  0  0  0
    5.3602   -3.5556    0.6149 C   0  0  1  0  0  0  0  0  0  0  0  0
    6.2709   -3.3226   -0.6129 C   0  0  0  0  0  0  0  0  0  0  0  0
    4.2964   -2.4497    0.8730 C   0  0  2  0  0  0  0  0  0  0  0  0
    3.4929   -2.3031   -0.2954 O   0  0  0  0  0  0  0  0  0  0  0  0
    5.0250   -1.1559    1.2550 C   0  0  0  0  0  0  0  0  0  0  0  0
    5.4276   -0.3067    0.4633 O   0  0  0  0  0  0  0  0  0  0  0  0
    5.1670   -1.1341    2.7002 C   0  0  0  0  0  0  0  0  0  0  0  0
    4.3323   -2.0546    3.2020 C   0  0  0  0  0  0  0  0  0  0  0  0
    3.4486   -2.7402    2.1551 C   0  0  2  0  0  0  0  0  0  0  0  0
    2.1264   -1.9199    2.1283 C   0  0  0  0  0  0  0  0  0  0  0  0
    0.9963   -8.0754    5.3182 H   0  0  0  0  0  0  0  0  0  0  0  0
    0.7114   -8.9549    3.7239 H   0  0  0  0  0  0  0  0  0  0  0  0
    2.0552   -8.3735    1.8954 H   0  0  0  0  0  0  0  0  0  0  0  0
    0.0136   -7.3767    1.4417 H   0  0  0  0  0  0  0  0  0  0  0  0
    1.0977   -6.7263    0.2320 H   0  0  0  0  0  0  0  0  0  0  0  0
    0.6167   -5.7475    1.6169 H   0  0  0  0  0  0  0  0  0  0  0  0
    3.5181   -7.0488    0.5548 H   0  0  0  0  0  0  0  0  0  0  0  0
    4.4776   -8.2178    2.9858 H   0  0  0  0  0  0  0  0  0  0  0  0
    5.4109   -7.7875    1.5058 H   0  0  0  0  0  0  0  0  0  0  0  0
    6.0530   -5.8331    2.4892 H   0  0  0  0  0  0  0  0  0  0  0  0
    6.0172   -6.6239    6.1149 H   0  0  0  0  0  0  0  0  0  0  0  0
    7.0505   -6.4891    4.6803 H   0  0  0  0  0  0  0  0  0  0  0  0
    5.8948   -7.8203    4.8235 H   0  0  0  0  0  0  0  0  0  0  0  0
    4.7440   -4.0356    4.0701 H   0  0  0  0  0  0  0  0  0  0  0  0
    1.8987   -5.9676    5.2739 H   0  0  0  0  0  0  0  0  0  0  0  0
    1.2671   -4.5450    3.4654 H   0  0  0  0  0  0  0  0  0  0  0  0
    3.2674   -3.7635    5.1870 H   0  0  0  0  0  0  0  0  0  0  0  0
    2.2812   -4.3596    1.6392 H   0  0  0  0  0  0  0  0  0  0  0  0
    5.4280   -5.6530    0.1902 H   0  0  0  0  0  0  0  0  0  0  0  0
    3.9347   -4.9034   -0.2668 H   0  0  0  0  0  0  0  0  0  0  0  0
    6.0344   -3.6028    1.4713 H   0  0  0  0  0  0  0  0  0  0  0  0
    5.7002   -3.3025   -1.5438 H   0  0  0  0  0  0  0  0  0  0  0  0
    7.0098   -4.1215   -0.7009 H   0  0  0  0  0  0  0  0  0  0  0  0
    6.8329   -2.3919   -0.5400 H   0  0  0  0  0  0  0  0  0  0  0  0
    2.8067   -1.6600   -0.1438 H   0  0  0  0  0  0  0  0  0  0  0  0
    5.8234   -0.4759    3.2473 H   0  0  0  0  0  0  0  0  0  0  0  0
    4.2362   -2.1959    4.2604 H   0  0  0  0  0  0  0  0  0  0  0  0
    1.4272   -2.2750    1.3691 H   0  0  0  0  0  0  0  0  0  0  0  0
    2.2984   -0.8619    1.9231 H   0  0  0  0  0  0  0  0  0  0  0  0
    1.6091   -1.9687    3.0823 H   0  0  0  0  0  0  0  0  0  0  0  0
  1  2  2  0
  1 28  1  0
  1 29  1  0
  2 12  1  0
  2  3  1  0
  3  4  1  0
  3  5  1  0
  3 30  1  1
  4 31  1  0
  4 32  1  0
  4 33  1  0
  5 16  1  0
  5  6  1  0
  5 34  1  6
  6  7  1  0
  6 35  1  0
  6 36  1  0
  7 16  1  0
  7  8  1  0
  7 37  1  6
  8  9  1  0
  8 10  1  6
  8 11  1  0
  9 38  1  0
  9 39  1  0
  9 40  1  0
 10 41  1  0
 11 12  1  0
 12 13  1  0
 12 42  1  1
 13 14  1  0
 13 15  1  0
 13 43  1  6
 14 44  1  0
 15 26  1  0
 15 16  1  0
 15 45  1  6
 16 17  1  6
 17 18  1  0
 17 46  1  0
 17 47  1  0
 18 19  1  0
 18 20  1  0
 18 48  1  1
 19 49  1  0
 19 50  1  0
 19 51  1  0
 20 26  1  0
 20 21  1  6
 20 22  1  0
 21 52  1  0
 22 23  2  0
 22 24  1  0
 24 25  2  0
 24 53  1  0
 25 26  1  0
 25 54  1  0
 26 27  1  6
 27 55  1  0
 27 56  1  0
 27 57  1  0
M  END
>  <i_m_ct_stereo_status>  (106) 
1

>  <s_m_source_file>  (106) 
/var/tmp/pbs.5076255.sched01/tmpe2rv0q7i/42k21vmx8r.sdf

>  <i_m_source_file_index>  (106) 
8

>  <i_lp_mmshare_version>  (106) 
48012

>  <i_f3d_flags>  (106) 
0

>  <s_epik_input>  (106) 
W0NIMl0xW0NAQEhdMltDQEBdKFtDSDNdKShbT0hdKU9bQ0BIXShDKD1bQ0gyXSlbQ0BASF0oW0NIM10pW0NASF0xW0NAXTIzNClbQ0BASF0oW09IXSlbQ0BIXTNbQ0BdNShbQ0gzXSlbQ0BdKFtPSF0pKFtDQEBIXShbQ0gyXTQpW0NIM10pQyg9TylbQ0hdPVtDSF01

>  <s_epik_cmdline>  (106) 
J2VwaWtfcHl0aG9uJywgJy1waHQnLCAnMi4wJywgJy1waCcsICc3LjAnLCAnLXRuJywgJzgnLCAnLW1hJywgJzIwMCcsICctaW1hZScsICc8aW5maWxlLm1hZT4nLCAnLW9tYWUnLCAnPG91dGZpbGUubWFlPic=

>  <r_lp_tautomer_probability>  (106) 
1

>  <r_epik_Ionization_Penalty>  (106) 
2.93368e-07

>  <r_epik_Ionization_Penalty_Charging>  (106) 
0

>  <r_epik_Ionization_Penalty_Neutral>  (106) 
2.93368e-07

>  <r_epik_State_Penalty>  (106) 
-0

>  <r_epik_Charging_Adjusted_Penalty>  (106) 
0

>  <i_epik_Tot_Q>  (106) 
0

>  <i_epik_Tot_abs_Q>  (106) 
0

>  <s_lp_Force_Field>  (106) 
OPLS3e

>  <r_lp_Energy>  (106) 
63.3797

>  <b_lp_Chiralities_Consistent>  (106) 
1

>  <s_lp_Variant>  (106) 
34:0-1

>  <s_i_glide_gridfile>  (106) 
pfpi4k_grid

>  <i_i_glide_lignum>  (106) 
8

>  <i_i_glide_rotatable_bonds>  (106) 
3

>  <r_i_docking_score>  (106) 
-2.68693

>  <r_i_glide_ligand_efficiency>  (106) 
-0.099516

>  <r_i_glide_ligand_efficiency_sa>  (106) 
-0.298548

>  <r_i_glide_ligand_efficiency_ln>  (106) 
-0.625473

>  <r_i_glide_gscore>  (106) 
-2.68693

>  <r_i_glide_lipo>  (106) 
-0.402653

>  <r_i_glide_hbond>  (106) 
0

>  <r_i_glide_metal>  (106) 
-0

>  <r_i_glide_rewards>  (106) 
-0.98637

>  <r_i_glide_evdw>  (106) 
-24.0929

>  <r_i_glide_ecoul>  (106) 
-0.621772

>  <r_i_glide_erotb>  (106) 
0

>  <r_i_glide_esite>  (106) 
0

>  <r_i_glide_emodel>  (106) 
-27.788

>  <r_i_glide_energy>  (106) 
-24.7146

>  <r_i_glide_einternal>  (106) 
1.70703

>  <r_i_glide_intrahb_reward>  (106) 
-0

>  <i_i_glide_confnum>  (106) 
1

>  <i_i_glide_posenum>  (106) 
39

>  <r_i_glide_eff_state_penalty>  (106) 
0

>  <ligand_id>  (106) 
34

>  <original_smiles>  (106) 
C=C1C(C)C2CC3C(C)(O)OC1C(O)C1C23CC(C)C2(O)C(=O)C=CC12C

>  <smiles>  (106) 
[H]OC1([H])C2([H])OC(O[H])(C([H])([H])[H])C3([H])C([H])([H])C([H])(C([H])(C([H])([H])[H])C2=C([H])[H])C32C([H])([H])C([H])(C([H])([H])[H])C3(O[H])C(=O)C([H])=C([H])C3(C([H])([H])[H])C12[H]

$$$$
34:0:2
     RDKit          3D

 57 61  0  0  1  0  0  0  0  0999 V2000
    5.1268   -3.1152   -3.4511 C   0  0  0  0  0  0  0  0  0  0  0  0
    4.7437   -3.1120   -2.1655 C   0  0  0  0  0  0  0  0  0  0  0  0
    3.5091   -2.3695   -1.7464 C   0  0  1  0  0  0  0  0  0  0  0  0
    2.2571   -3.2119   -2.0312 C   0  0  0  0  0  0  0  0  0  0  0  0
    3.6147   -1.7620   -0.3405 C   0  0  2  0  0  0  0  0  0  0  0  0
    4.7780   -0.8247   -0.0374 C   0  0  0  0  0  0  0  0  0  0  0  0
    5.2795   -1.8307    0.9893 C   0  0  2  0  0  0  0  0  0  0  0  0
    6.5819   -2.5447    0.6695 C   0  0  1  0  0  0  0  0  0  0  0  0
    7.7381   -1.5610    0.6741 C   0  0  0  0  0  0  0  0  0  0  0  0
    6.8176   -3.5205    1.6538 O   0  0  0  0  0  0  0  0  0  0  0  0
    6.5961   -3.0598   -0.6075 O   0  0  0  0  0  0  0  0  0  0  0  0
    5.5365   -3.8606   -1.1160 C   0  0  1  0  0  0  0  0  0  0  0  0
    4.7432   -4.7657   -0.1418 C   0  0  1  0  0  0  0  0  0  0  0  0
    5.6273   -5.7578    0.3333 O   0  0  0  0  0  0  0  0  0  0  0  0
    3.8228   -4.1033    0.9324 C   0  0  2  0  0  0  0  0  0  0  0  0
    3.8972   -2.5433    0.9800 C   0  0  2  0  0  0  0  0  0  0  0  0
    2.9305   -2.0348    2.0564 C   0  0  0  0  0  0  0  0  0  0  0  0
    3.1354   -2.6698    3.4310 C   0  0  1  0  0  0  0  0  0  0  0  0
    2.3817   -1.8657    4.5167 C   0  0  0  0  0  0  0  0  0  0  0  0
    2.7882   -4.1803    3.3771 C   0  0  2  0  0  0  0  0  0  0  0  0
    1.3902   -4.3256    3.2281 O   0  0  0  0  0  0  0  0  0  0  0  0
    3.2831   -4.8523    4.6570 C   0  0  0  0  0  0  0  0  0  0  0  0
    2.6069   -4.9452    5.6839 O   0  0  0  0  0  0  0  0  0  0  0  0
    4.6346   -5.3261    4.4245 C   0  0  0  0  0  0  0  0  0  0  0  0
    4.8389   -5.3192    3.1021 C   0  0  0  0  0  0  0  0  0  0  0  0
    3.6093   -4.9360    2.2715 C   0  0  2  0  0  0  0  0  0  0  0  0
    2.9218   -6.2834    1.8959 C   0  0  0  0  0  0  0  0  0  0  0  0
    6.0215   -3.6293   -3.7613 H   0  0  0  0  0  0  0  0  0  0  0  0
    4.5665   -2.5737   -4.1993 H   0  0  0  0  0  0  0  0  0  0  0  0
    3.4410   -1.5209   -2.4327 H   0  0  0  0  0  0  0  0  0  0  0  0
    2.1036   -3.3206   -3.1051 H   0  0  0  0  0  0  0  0  0  0  0  0
    1.3914   -2.7026   -1.6511 H   0  0  0  0  0  0  0  0  0  0  0  0
    2.2714   -4.2093   -1.5983 H   0  0  0  0  0  0  0  0  0  0  0  0
    2.7191   -1.1627   -0.1788 H   0  0  0  0  0  0  0  0  0  0  0  0
    5.4325   -0.6426   -0.8952 H   0  0  0  0  0  0  0  0  0  0  0  0
    4.4487    0.1111    0.4070 H   0  0  0  0  0  0  0  0  0  0  0  0
    5.3875   -1.3089    1.9347 H   0  0  0  0  0  0  0  0  0  0  0  0
    8.6888   -2.0643    0.4897 H   0  0  0  0  0  0  0  0  0  0  0  0
    7.7716   -1.0495    1.6429 H   0  0  0  0  0  0  0  0  0  0  0  0
    7.5790   -0.7918   -0.0585 H   0  0  0  0  0  0  0  0  0  0  0  0
    6.0512   -4.0729    1.6925 H   0  0  0  0  0  0  0  0  0  0  0  0
    6.0646   -4.5572   -1.7283 H   0  0  0  0  0  0  0  0  0  0  0  0
    4.0754   -5.3628   -0.7485 H   0  0  0  0  0  0  0  0  0  0  0  0
    5.8692   -6.2924   -0.4069 H   0  0  0  0  0  0  0  0  0  0  0  0
    2.8378   -4.2369    0.4893 H   0  0  0  0  0  0  0  0  0  0  0  0
    3.0276   -0.9491    2.1646 H   0  0  0  0  0  0  0  0  0  0  0  0
    1.8967   -2.1913    1.7341 H   0  0  0  0  0  0  0  0  0  0  0  0
    4.1961   -2.5625    3.6630 H   0  0  0  0  0  0  0  0  0  0  0  0
    1.3035   -1.8637    4.3547 H   0  0  0  0  0  0  0  0  0  0  0  0
    2.7087   -0.8233    4.5147 H   0  0  0  0  0  0  0  0  0  0  0  0
    2.5750   -2.2464    5.5198 H   0  0  0  0  0  0  0  0  0  0  0  0
    0.9851   -3.8979    3.9654 H   0  0  0  0  0  0  0  0  0  0  0  0
    5.3276   -5.6276    5.1928 H   0  0  0  0  0  0  0  0  0  0  0  0
    5.7684   -5.6527    2.6775 H   0  0  0  0  0  0  0  0  0  0  0  0
    1.9946   -6.1359    1.3341 H   0  0  0  0  0  0  0  0  0  0  0  0
    2.6795   -6.8816    2.7739 H   0  0  0  0  0  0  0  0  0  0  0  0
    3.5724   -6.9018    1.2757 H   0  0  0  0  0  0  0  0  0  0  0  0
  1  2  2  0
  1 28  1  0
  1 29  1  0
  2 12  1  0
  2  3  1  0
  3  4  1  0
  3  5  1  0
  3 30  1  6
  4 31  1  0
  4 32  1  0
  4 33  1  0
  5 16  1  0
  5  6  1  0
  5 34  1  1
  6  7  1  0
  6 35  1  0
  6 36  1  0
  7 16  1  0
  7  8  1  0
  7 37  1  1
  8  9  1  0
  8 10  1  1
  8 11  1  0
  9 38  1  0
  9 39  1  0
  9 40  1  0
 10 41  1  0
 11 12  1  0
 12 13  1  0
 12 42  1  6
 13 14  1  0
 13 15  1  0
 13 43  1  6
 14 44  1  0
 15 26  1  0
 15 16  1  0
 15 45  1  6
 16 17  1  1
 17 18  1  0
 17 46  1  0
 17 47  1  0
 18 19  1  0
 18 20  1  0
 18 48  1  1
 19 49  1  0
 19 50  1  0
 19 51  1  0
 20 26  1  0
 20 21  1  6
 20 22  1  0
 21 52  1  0
 22 23  2  0
 22 24  1  0
 24 25  2  0
 24 53  1  0
 25 26  1  0
 25 54  1  0
 26 27  1  6
 27 55  1  0
 27 56  1  0
 27 57  1  0
M  END
>  <i_m_ct_stereo_status>  (107) 
1

>  <s_m_source_file>  (107) 
/var/tmp/pbs.5076255.sched01/tmpe2rv0q7i/42k21vmx8r.sdf

>  <i_m_source_file_index>  (107) 
8

>  <i_lp_mmshare_version>  (107) 
48012

>  <i_f3d_flags>  (107) 
0

>  <s_epik_input>  (107) 
W0NIMl0xW0NAQEhdMltDQEBdKFtDSDNdKShbT0hdKU9bQ0BIXShDKD1bQ0gyXSlbQ0BASF0oW0NIM10pW0NASF0xW0NAXTIzNClbQ0BASF0oW09IXSlbQ0BIXTNbQ0BdNShbQ0gzXSlbQ0BdKFtPSF0pKFtDQEBIXShbQ0gyXTQpW0NIM10pQyg9TylbQ0hdPVtDSF01

>  <s_epik_cmdline>  (107) 
J2VwaWtfcHl0aG9uJywgJy1waHQnLCAnMi4wJywgJy1waCcsICc3LjAnLCAnLXRuJywgJzgnLCAnLW1hJywgJzIwMCcsICctaW1hZScsICc8aW5maWxlLm1hZT4nLCAnLW9tYWUnLCAnPG91dGZpbGUubWFlPic=

>  <r_lp_tautomer_probability>  (107) 
1

>  <r_epik_Ionization_Penalty>  (107) 
2.93368e-07

>  <r_epik_Ionization_Penalty_Charging>  (107) 
0

>  <r_epik_Ionization_Penalty_Neutral>  (107) 
2.93368e-07

>  <r_epik_State_Penalty>  (107) 
-0

>  <r_epik_Charging_Adjusted_Penalty>  (107) 
0

>  <i_epik_Tot_Q>  (107) 
0

>  <i_epik_Tot_abs_Q>  (107) 
0

>  <s_lp_Force_Field>  (107) 
OPLS3e

>  <r_lp_Energy>  (107) 
63.3797

>  <b_lp_Chiralities_Consistent>  (107) 
1

>  <s_lp_Variant>  (107) 
34:0-1

>  <s_i_glide_gridfile>  (107) 
pfpi4k_grid

>  <i_i_glide_lignum>  (107) 
8

>  <i_i_glide_rotatable_bonds>  (107) 
3

>  <r_i_docking_score>  (107) 
-2.3198

>  <r_i_glide_ligand_efficiency>  (107) 
-0.0859185

>  <r_i_glide_ligand_efficiency_sa>  (107) 
-0.257756

>  <r_i_glide_ligand_efficiency_ln>  (107) 
-0.540011

>  <r_i_glide_gscore>  (107) 
-2.3198

>  <r_i_glide_lipo>  (107) 
-0.530557

>  <r_i_glide_hbond>  (107) 
0

>  <r_i_glide_metal>  (107) 
-0

>  <r_i_glide_rewards>  (107) 
-0.973091

>  <r_i_glide_evdw>  (107) 
-13.555

>  <r_i_glide_ecoul>  (107) 
-0.922665

>  <r_i_glide_erotb>  (107) 
0

>  <r_i_glide_esite>  (107) 
0

>  <r_i_glide_emodel>  (107) 
-16.741

>  <r_i_glide_energy>  (107) 
-14.4777

>  <r_i_glide_einternal>  (107) 
2.15868

>  <r_i_glide_intrahb_reward>  (107) 
-0

>  <i_i_glide_confnum>  (107) 
2

>  <i_i_glide_posenum>  (107) 
6

>  <r_i_glide_eff_state_penalty>  (107) 
0

>  <ligand_id>  (107) 
34

>  <original_smiles>  (107) 
C=C1C(C)C2CC3C(C)(O)OC1C(O)C1C23CC(C)C2(O)C(=O)C=CC12C

>  <smiles>  (107) 
[H]OC1([H])C2([H])OC(O[H])(C([H])([H])[H])C3([H])C([H])([H])C([H])(C([H])(C([H])([H])[H])C2=C([H])[H])C32C([H])([H])C([H])(C([H])([H])[H])C3(O[H])C(=O)C([H])=C([H])C3(C([H])([H])[H])C12[H]

$$$$
35:0:0
     RDKit          3D

 31 34  0  0  1  0  0  0  0  0999 V2000
    5.0177   -6.4600    0.2796 O   0  0  0  0  0  0  0  0  0  0  0  0
    4.6684   -5.3224    0.5513 C   0  0  0  0  0  0  0  0  0  0  0  0
    3.7157   -4.6027   -0.1794 N   0  0  0  0  0  0  0  0  0  0  0  0
    3.4487   -3.2229   -0.0942 N   0  0  0  0  0  0  0  0  0  0  0  0
    3.3756   -2.5924   -1.3484 C   0  0  0  0  0  0  0  0  0  0  0  0
    2.5104   -3.1267   -2.2423 N   0  0  0  0  0  0  0  0  0  0  0  0
    2.4957   -2.6344   -3.4945 C   0  0  0  0  0  0  0  0  0  0  0  0
    3.3271   -1.5799   -3.9084 C   0  0  0  0  0  0  0  0  0  0  0  0
    4.2084   -1.0249   -2.9777 C   0  0  0  0  0  0  0  0  0  0  0  0
    4.2626   -1.5425   -1.6758 C   0  0  0  0  0  0  0  0  0  0  0  0
    5.1812   -1.0364   -0.7893 O   0  0  0  0  0  0  0  0  0  0  0  0
    5.5116   -1.9050    0.2895 C   0  0  0  0  0  0  0  0  0  0  0  0
    4.2398   -2.5119    0.9237 C   0  0  2  0  0  0  0  0  0  0  0  0
    4.5777   -3.4522    2.1067 C   0  0  1  0  0  0  0  0  0  0  0  0
    3.4018   -3.7017    3.0653 C   0  0  0  0  0  0  0  0  0  0  0  0
    3.2365   -5.0446    3.7526 C   0  0  0  0  0  0  0  0  0  0  0  0
    2.2453   -4.6176    2.7026 C   0  0  0  0  0  0  0  0  0  0  0  0
    5.1821   -4.6500    1.6151 O   0  0  0  0  0  0  0  0  0  0  0  0
    3.3582   -5.0278   -1.0255 H   0  0  0  0  0  0  0  0  0  0  0  0
    1.7952   -3.0918   -4.1752 H   0  0  0  0  0  0  0  0  0  0  0  0
    3.2677   -1.2083   -4.9149 H   0  0  0  0  0  0  0  0  0  0  0  0
    4.8733   -0.2278   -3.2538 H   0  0  0  0  0  0  0  0  0  0  0  0
    6.1671   -2.7014   -0.0779 H   0  0  0  0  0  0  0  0  0  0  0  0
    6.0754   -1.3383    1.0355 H   0  0  0  0  0  0  0  0  0  0  0  0
    3.6346   -1.6839    1.3047 H   0  0  0  0  0  0  0  0  0  0  0  0
    5.3392   -2.9593    2.7028 H   0  0  0  0  0  0  0  0  0  0  0  0
    3.1493   -2.8260    3.6741 H   0  0  0  0  0  0  0  0  0  0  0  0
    3.9451   -5.8273    3.4917 H   0  0  0  0  0  0  0  0  0  0  0  0
    2.8898   -5.0712    4.7840 H   0  0  0  0  0  0  0  0  0  0  0  0
    1.2625   -4.2983    3.0564 H   0  0  0  0  0  0  0  0  0  0  0  0
    2.2755   -5.1400    1.7500 H   0  0  0  0  0  0  0  0  0  0  0  0
  1  2  2  0
  2 18  1  0
  2  3  1  0
  3  4  1  0
  3 19  1  0
  4 13  1  0
  4  5  1  0
  5 10  2  0
  5  6  1  0
  6  7  2  0
  7  8  1  0
  7 20  1  0
  8  9  2  0
  8 21  1  0
  9 10  1  0
  9 22  1  0
 10 11  1  0
 11 12  1  0
 12 13  1  0
 12 23  1  0
 12 24  1  0
 13 14  1  0
 13 25  1  1
 14 15  1  0
 14 18  1  0
 14 26  1  1
 15 17  1  0
 15 16  1  0
 15 27  1  0
 16 17  1  0
 16 28  1  0
 16 29  1  0
 17 30  1  0
 17 31  1  0
M  END
>  <i_m_ct_stereo_status>  (108) 
1

>  <s_m_source_file>  (108) 
/var/tmp/pbs.5076255.sched01/tmpe2rv0q7i/42k21vmx8r.sdf

>  <i_m_source_file_index>  (108) 
9

>  <i_lp_mmshare_version>  (108) 
48012

>  <i_f3d_flags>  (108) 
0

>  <s_epik_input>  (108) 
Tz1DKFtOSF0xKU9bQ0BIXShbQ0hdMltDSDJdW0NIMl0yKVtDQEhdM1tDSDJdT2MoYzROMTMpW2NIXVtjSF1bY0hdbjQ=

>  <s_epik_cmdline>  (108) 
J2VwaWtfcHl0aG9uJywgJy1waHQnLCAnMi4wJywgJy1waCcsICc3LjAnLCAnLXRuJywgJzgnLCAnLW1hJywgJzIwMCcsICctaW1hZScsICc8aW5maWxlLm1hZT4nLCAnLW9tYWUnLCAnPG91dGZpbGUubWFlPic=

>  <r_lp_tautomer_probability>  (108) 
1

>  <r_epik_Ionization_Penalty>  (108) 
0.000725197

>  <r_epik_Ionization_Penalty_Charging>  (108) 
0

>  <r_epik_Ionization_Penalty_Neutral>  (108) 
0.000725197

>  <r_epik_State_Penalty>  (108) 
-0

>  <r_epik_Charging_Adjusted_Penalty>  (108) 
0

>  <i_epik_Tot_Q>  (108) 
0

>  <i_epik_Tot_abs_Q>  (108) 
0

>  <s_epik_Chemistry_Notes>  (108) 
This compound has an ester and may undergo hydrolysis at high or low pH.

>  <s_lp_Force_Field>  (108) 
OPLS3e

>  <r_lp_Energy>  (108) 
36.0384

>  <b_lp_Chiralities_Consistent>  (108) 
1

>  <s_lp_Variant>  (108) 
35:0-1

>  <s_i_glide_gridfile>  (108) 
pfpi4k_grid

>  <i_i_glide_lignum>  (108) 
9

>  <i_i_glide_rotatable_bonds>  (108) 
1

>  <r_i_docking_score>  (108) 
-3.75949

>  <r_i_glide_ligand_efficiency>  (108) 
-0.208861

>  <r_i_glide_ligand_efficiency_sa>  (108) 
-0.54737

>  <r_i_glide_ligand_efficiency_ln>  (108) 
-0.966358

>  <r_i_glide_gscore>  (108) 
-3.75949

>  <r_i_glide_lipo>  (108) 
-0.461965

>  <r_i_glide_hbond>  (108) 
-0.32

>  <r_i_glide_metal>  (108) 
-0

>  <r_i_glide_rewards>  (108) 
-1.81599

>  <r_i_glide_evdw>  (108) 
-23.3927

>  <r_i_glide_ecoul>  (108) 
-1.67438

>  <r_i_glide_erotb>  (108) 
0.285357

>  <r_i_glide_esite>  (108) 
-0.0261011

>  <r_i_glide_emodel>  (108) 
-28.938

>  <r_i_glide_energy>  (108) 
-25.067

>  <r_i_glide_einternal>  (108) 
2.31118

>  <r_i_glide_intrahb_reward>  (108) 
-0

>  <i_i_glide_confnum>  (108) 
3

>  <i_i_glide_posenum>  (108) 
1

>  <r_i_glide_eff_state_penalty>  (108) 
0

>  <ligand_id>  (108) 
35

>  <original_smiles>  (108) 
O=C1NN2c3ncccc3OCC2C(C2CC2)O1

>  <smiles>  (108) 
[H]c1nc2c(c([H])c1[H])OC([H])([H])C1([H])N2N([H])C(=O)OC1([H])C1([H])C([H])([H])C1([H])[H]

$$$$
35:0:1
     RDKit          3D

 31 34  0  0  1  0  0  0  0  0999 V2000
    5.5312   -6.0301    0.4258 O   0  0  0  0  0  0  0  0  0  0  0  0
    5.0357   -4.9176    0.6597 C   0  0  0  0  0  0  0  0  0  0  0  0
    4.0721   -4.3174   -0.1376 N   0  0  0  0  0  0  0  0  0  0  0  0
    3.6223   -2.9821   -0.0804 N   0  0  0  0  0  0  0  0  0  0  0  0
    3.4356   -2.4162   -1.3308 C   0  0  0  0  0  0  0  0  0  0  0  0
    2.6166   -3.0733   -2.1894 N   0  0  0  0  0  0  0  0  0  0  0  0
    2.5165   -2.6315   -3.4503 C   0  0  0  0  0  0  0  0  0  0  0  0
    3.2088   -1.5064   -3.9209 C   0  0  0  0  0  0  0  0  0  0  0  0
    4.0440   -0.8101   -3.0354 C   0  0  0  0  0  0  0  0  0  0  0  0
    4.1900   -1.2925   -1.7294 C   0  0  0  0  0  0  0  0  0  0  0  0
    5.0871   -0.6839   -0.8858 O   0  0  0  0  0  0  0  0  0  0  0  0
    5.5366   -1.4513    0.2250 C   0  0  0  0  0  0  0  0  0  0  0  0
    4.3454   -2.1539    0.8951 C   0  0  2  0  0  0  0  0  0  0  0  0
    4.7555   -2.9911    2.1257 C   0  0  1  0  0  0  0  0  0  0  0  0
    3.6157   -3.3121    3.1091 C   0  0  0  0  0  0  0  0  0  0  0  0
    2.5246   -4.3196    2.8096 C   0  0  0  0  0  0  0  0  0  0  0  0
    2.1717   -2.8629    2.8814 C   0  0  0  0  0  0  0  0  0  0  0  0
    5.4562   -4.1704    1.7085 O   0  0  0  0  0  0  0  0  0  0  0  0
    3.6932   -4.8360   -0.9245 H   0  0  0  0  0  0  0  0  0  0  0  0
    1.8562   -3.1954   -4.0919 H   0  0  0  0  0  0  0  0  0  0  0  0
    3.0857   -1.1870   -4.9369 H   0  0  0  0  0  0  0  0  0  0  0  0
    4.5999    0.0537   -3.3694 H   0  0  0  0  0  0  0  0  0  0  0  0
    6.2763   -2.1729   -0.1334 H   0  0  0  0  0  0  0  0  0  0  0  0
    6.0247   -0.7784    0.9393 H   0  0  0  0  0  0  0  0  0  0  0  0
    3.6918   -1.3419    1.2245 H   0  0  0  0  0  0  0  0  0  0  0  0
    5.4768   -2.3965    2.6905 H   0  0  0  0  0  0  0  0  0  0  0  0
    3.9617   -3.3213    4.1421 H   0  0  0  0  0  0  0  0  0  0  0  0
    2.5002   -4.7933    1.8333 H   0  0  0  0  0  0  0  0  0  0  0  0
    2.1810   -4.9427    3.6265 H   0  0  0  0  0  0  0  0  0  0  0  0
    1.6113   -2.5212    3.7500 H   0  0  0  0  0  0  0  0  0  0  0  0
    1.9174   -2.3678    1.9433 H   0  0  0  0  0  0  0  0  0  0  0  0
  1  2  2  0
  2 18  1  0
  2  3  1  0
  3  4  1  0
  3 19  1  0
  4 13  1  0
  4  5  1  0
  5 10  2  0
  5  6  1  0
  6  7  2  0
  7  8  1  0
  7 20  1  0
  8  9  2  0
  8 21  1  0
  9 10  1  0
  9 22  1  0
 10 11  1  0
 11 12  1  0
 12 13  1  0
 12 23  1  0
 12 24  1  0
 13 14  1  0
 13 25  1  1
 14 15  1  0
 14 18  1  0
 14 26  1  1
 15 17  1  0
 15 16  1  0
 15 27  1  0
 16 17  1  0
 16 28  1  0
 16 29  1  0
 17 30  1  0
 17 31  1  0
M  END
>  <i_m_ct_stereo_status>  (109) 
1

>  <s_m_source_file>  (109) 
/var/tmp/pbs.5076255.sched01/tmpe2rv0q7i/42k21vmx8r.sdf

>  <i_m_source_file_index>  (109) 
9

>  <i_lp_mmshare_version>  (109) 
48012

>  <i_f3d_flags>  (109) 
0

>  <s_epik_input>  (109) 
Tz1DKFtOSF0xKU9bQ0BIXShbQ0hdMltDSDJdW0NIMl0yKVtDQEhdM1tDSDJdT2MoYzROMTMpW2NIXVtjSF1bY0hdbjQ=

>  <s_epik_cmdline>  (109) 
J2VwaWtfcHl0aG9uJywgJy1waHQnLCAnMi4wJywgJy1waCcsICc3LjAnLCAnLXRuJywgJzgnLCAnLW1hJywgJzIwMCcsICctaW1hZScsICc8aW5maWxlLm1hZT4nLCAnLW9tYWUnLCAnPG91dGZpbGUubWFlPic=

>  <r_lp_tautomer_probability>  (109) 
1

>  <r_epik_Ionization_Penalty>  (109) 
0.000725197

>  <r_epik_Ionization_Penalty_Charging>  (109) 
0

>  <r_epik_Ionization_Penalty_Neutral>  (109) 
0.000725197

>  <r_epik_State_Penalty>  (109) 
-0

>  <r_epik_Charging_Adjusted_Penalty>  (109) 
0

>  <i_epik_Tot_Q>  (109) 
0

>  <i_epik_Tot_abs_Q>  (109) 
0

>  <s_epik_Chemistry_Notes>  (109) 
This compound has an ester and may undergo hydrolysis at high or low pH.

>  <s_lp_Force_Field>  (109) 
OPLS3e

>  <r_lp_Energy>  (109) 
36.0384

>  <b_lp_Chiralities_Consistent>  (109) 
1

>  <s_lp_Variant>  (109) 
35:0-1

>  <s_i_glide_gridfile>  (109) 
pfpi4k_grid

>  <i_i_glide_lignum>  (109) 
9

>  <i_i_glide_rotatable_bonds>  (109) 
1

>  <r_i_docking_score>  (109) 
-3.59866

>  <r_i_glide_ligand_efficiency>  (109) 
-0.199925

>  <r_i_glide_ligand_efficiency_sa>  (109) 
-0.523952

>  <r_i_glide_ligand_efficiency_ln>  (109) 
-0.925016

>  <r_i_glide_gscore>  (109) 
-3.59866

>  <r_i_glide_lipo>  (109) 
-0.522959

>  <r_i_glide_hbond>  (109) 
-0.161077

>  <r_i_glide_metal>  (109) 
-0

>  <r_i_glide_rewards>  (109) 
-1.8121

>  <r_i_glide_evdw>  (109) 
-24.2721

>  <r_i_glide_ecoul>  (109) 
-1.01432

>  <r_i_glide_erotb>  (109) 
0.285357

>  <r_i_glide_esite>  (109) 
-0.0221267

>  <r_i_glide_emodel>  (109) 
-26.3285

>  <r_i_glide_energy>  (109) 
-25.2864

>  <r_i_glide_einternal>  (109) 
7.53325

>  <r_i_glide_intrahb_reward>  (109) 
-0

>  <i_i_glide_confnum>  (109) 
3

>  <i_i_glide_posenum>  (109) 
26

>  <r_i_glide_eff_state_penalty>  (109) 
0

>  <ligand_id>  (109) 
35

>  <original_smiles>  (109) 
O=C1NN2c3ncccc3OCC2C(C2CC2)O1

>  <smiles>  (109) 
[H]c1nc2c(c([H])c1[H])OC([H])([H])C1([H])N2N([H])C(=O)OC1([H])C1([H])C([H])([H])C1([H])[H]

$$$$
35:0:2
     RDKit          3D

 31 34  0  0  1  0  0  0  0  0999 V2000
   -0.1206    5.8221    6.4731 O   0  0  0  0  0  0  0  0  0  0  0  0
   -0.1943    4.9828    5.5700 C   0  0  0  0  0  0  0  0  0  0  0  0
   -0.5620    5.2825    4.2715 N   0  0  0  0  0  0  0  0  0  0  0  0
   -1.0559    4.3955    3.2873 N   0  0  0  0  0  0  0  0  0  0  0  0
   -2.2026    4.8035    2.5848 C   0  0  0  0  0  0  0  0  0  0  0  0
   -2.1891    6.0591    2.0742 N   0  0  0  0  0  0  0  0  0  0  0  0
   -3.3031    6.5386    1.4856 C   0  0  0  0  0  0  0  0  0  0  0  0
   -4.5211    5.8445    1.4643 C   0  0  0  0  0  0  0  0  0  0  0  0
   -4.5540    4.5376    2.0034 C   0  0  0  0  0  0  0  0  0  0  0  0
   -3.3804    4.0038    2.5728 C   0  0  0  0  0  0  0  0  0  0  0  0
   -3.4319    2.8171    3.2408 O   0  0  0  0  0  0  0  0  0  0  0  0
   -2.4171    2.5825    4.2129 C   0  0  0  0  0  0  0  0  0  0  0  0
   -1.0385    2.9886    3.6802 C   0  0  2  0  0  0  0  0  0  0  0  0
    0.0582    2.6882    4.7214 C   0  0  1  0  0  0  0  0  0  0  0  0
    1.4558    2.5810    4.1450 C   0  0  0  0  0  0  0  0  0  0  0  0
    1.9095    1.3032    3.4892 C   0  0  0  0  0  0  0  0  0  0  0  0
    2.4988    1.7142    4.8164 C   0  0  0  0  0  0  0  0  0  0  0  0
    0.0311    3.6518    5.7791 O   0  0  0  0  0  0  0  0  0  0  0  0
   -0.6129    6.2591    4.0033 H   0  0  0  0  0  0  0  0  0  0  0  0
   -3.2327    7.5506    1.0884 H   0  0  0  0  0  0  0  0  0  0  0  0
   -5.4177    6.2915    1.0427 H   0  0  0  0  0  0  0  0  0  0  0  0
   -5.4794    3.9768    2.0526 H   0  0  0  0  0  0  0  0  0  0  0  0
   -2.6762    3.1226    5.1249 H   0  0  0  0  0  0  0  0  0  0  0  0
   -2.4291    1.5236    4.4560 H   0  0  0  0  0  0  0  0  0  0  0  0
   -0.8334    2.3996    2.7848 H   0  0  0  0  0  0  0  0  0  0  0  0
   -0.1518    1.7162    5.1817 H   0  0  0  0  0  0  0  0  0  0  0  0
    1.8283    3.5007    3.7086 H   0  0  0  0  0  0  0  0  0  0  0  0
    1.1912    0.4876    3.4785 H   0  0  0  0  0  0  0  0  0  0  0  0
    2.5428    1.3859    2.6080 H   0  0  0  0  0  0  0  0  0  0  0  0
    3.5344    2.0499    4.8128 H   0  0  0  0  0  0  0  0  0  0  0  0
    2.1928    1.1638    5.7035 H   0  0  0  0  0  0  0  0  0  0  0  0
  1  2  2  0
  2 18  1  0
  2  3  1  0
  3  4  1  0
  3 19  1  0
  4 13  1  0
  4  5  1  0
  5 10  2  0
  5  6  1  0
  6  7  2  0
  7  8  1  0
  7 20  1  0
  8  9  2  0
  8 21  1  0
  9 10  1  0
  9 22  1  0
 10 11  1  0
 11 12  1  0
 12 13  1  0
 12 23  1  0
 12 24  1  0
 13 14  1  0
 13 25  1  6
 14 15  1  0
 14 18  1  0
 14 26  1  1
 15 17  1  0
 15 16  1  0
 15 27  1  0
 16 17  1  0
 16 28  1  0
 16 29  1  0
 17 30  1  0
 17 31  1  0
M  END
>  <i_m_ct_stereo_status>  (110) 
1

>  <s_m_source_file>  (110) 
/var/tmp/pbs.5076255.sched01/tmpe2rv0q7i/42k21vmx8r.sdf

>  <i_m_source_file_index>  (110) 
9

>  <i_lp_mmshare_version>  (110) 
48012

>  <i_f3d_flags>  (110) 
0

>  <s_epik_input>  (110) 
Tz1DKFtOSF0xKU9bQ0BIXShbQ0hdMltDSDJdW0NIMl0yKVtDQEhdM1tDSDJdT2MoYzROMTMpW2NIXVtjSF1bY0hdbjQ=

>  <s_epik_cmdline>  (110) 
J2VwaWtfcHl0aG9uJywgJy1waHQnLCAnMi4wJywgJy1waCcsICc3LjAnLCAnLXRuJywgJzgnLCAnLW1hJywgJzIwMCcsICctaW1hZScsICc8aW5maWxlLm1hZT4nLCAnLW9tYWUnLCAnPG91dGZpbGUubWFlPic=

>  <r_lp_tautomer_probability>  (110) 
1

>  <r_epik_Ionization_Penalty>  (110) 
0.000725197

>  <r_epik_Ionization_Penalty_Charging>  (110) 
0

>  <r_epik_Ionization_Penalty_Neutral>  (110) 
0.000725197

>  <r_epik_State_Penalty>  (110) 
-0

>  <r_epik_Charging_Adjusted_Penalty>  (110) 
0

>  <i_epik_Tot_Q>  (110) 
0

>  <i_epik_Tot_abs_Q>  (110) 
0

>  <s_epik_Chemistry_Notes>  (110) 
This compound has an ester and may undergo hydrolysis at high or low pH.

>  <s_lp_Force_Field>  (110) 
OPLS3e

>  <r_lp_Energy>  (110) 
36.0384

>  <b_lp_Chiralities_Consistent>  (110) 
1

>  <s_lp_Variant>  (110) 
35:0-1

>  <s_i_glide_gridfile>  (110) 
pfpi4k_grid

>  <i_i_glide_lignum>  (110) 
9

>  <i_i_glide_rotatable_bonds>  (110) 
1

>  <r_i_docking_score>  (110) 
-2.43507

>  <r_i_glide_ligand_efficiency>  (110) 
-0.135282

>  <r_i_glide_ligand_efficiency_sa>  (110) 
-0.354538

>  <r_i_glide_ligand_efficiency_ln>  (110) 
-0.625922

>  <r_i_glide_gscore>  (110) 
-2.43507

>  <r_i_glide_lipo>  (110) 
-0.138214

>  <r_i_glide_hbond>  (110) 
-0.113114

>  <r_i_glide_metal>  (110) 
-0

>  <r_i_glide_rewards>  (110) 
-1.7233

>  <r_i_glide_evdw>  (110) 
-7.5258

>  <r_i_glide_ecoul>  (110) 
-0.956319

>  <r_i_glide_erotb>  (110) 
0.285357

>  <r_i_glide_esite>  (110) 
-0.226064

>  <r_i_glide_emodel>  (110) 
-11.6002

>  <r_i_glide_energy>  (110) 
-8.48212

>  <r_i_glide_einternal>  (110) 
0.0118808

>  <r_i_glide_intrahb_reward>  (110) 
-0

>  <i_i_glide_confnum>  (110) 
2

>  <i_i_glide_posenum>  (110) 
2

>  <r_i_glide_eff_state_penalty>  (110) 
0

>  <ligand_id>  (110) 
35

>  <original_smiles>  (110) 
O=C1NN2c3ncccc3OCC2C(C2CC2)O1

>  <smiles>  (110) 
[H]c1nc2c(c([H])c1[H])OC([H])([H])C1([H])N2N([H])C(=O)OC1([H])C1([H])C([H])([H])C1([H])[H]

$$$$
36:0:0
     RDKit          3D

 56 60  0  0  1  0  0  0  0  0999 V2000
    5.5752   -3.0439    1.8833 C   0  0  0  0  0  0  0  0  0  0  0  0
    4.6392   -2.2473    2.4337 C   0  0  0  0  0  0  0  0  0  0  0  0
    4.5859   -2.0652    3.9550 C   0  0  1  0  0  0  0  0  0  0  0  0
    5.3295   -0.7923    4.4134 C   0  0  0  0  0  0  0  0  0  0  0  0
    4.2460    0.2816    4.6138 C   0  0  0  0  0  0  0  0  0  0  0  0
    3.0040   -0.3280    3.9373 C   0  0  2  0  0  0  0  0  0  0  0  0
    3.1471   -1.7925    4.3887 C   0  0  0  0  0  0  0  0  0  0  0  0
    3.1369   -0.1801    2.3525 C   0  0  2  0  0  0  0  0  0  0  0  0
    1.9946    0.6160    1.6748 C   0  0  0  0  0  0  0  0  0  0  0  0
    1.2106    1.4969    2.3263 C   0  0  0  0  0  0  0  0  0  0  0  0
    1.4450    1.6619    3.8045 C   0  0  1  0  0  0  0  0  0  0  0  0
    0.5020    2.3871    4.7820 C   0  0  1  0  0  0  0  0  0  0  0  0
    1.2042    3.5636    5.1620 O   0  0  0  0  0  0  0  0  0  0  0  0
   -0.9183    2.8487    4.4308 C   0  0  0  0  0  0  0  0  0  0  0  0
   -1.5533    3.5284    5.6838 C   0  0  0  0  0  0  0  0  0  0  0  0
   -1.3982    2.7656    7.0414 C   0  0  1  0  0  0  0  0  0  0  0  0
   -2.5928    1.8150    7.2624 C   0  0  0  0  0  0  0  0  0  0  0  0
    0.0032    2.0870    7.2443 C   0  0  1  0  0  0  0  0  0  0  0  0
   -0.0942    1.1438    8.2947 O   0  0  0  0  0  0  0  0  0  0  0  0
    0.3966    1.3802    5.9398 C   0  0  2  0  0  0  0  0  0  0  0  0
    1.5893    0.5788    5.8121 O   0  0  0  0  0  0  0  0  0  0  0  0
    1.6547    0.2913    4.4373 C   0  0  2  0  0  0  0  0  0  0  0  0
    0.6064   -0.5935    4.0396 O   0  0  0  0  0  0  0  0  0  0  0  0
    3.5309   -1.5168    1.6458 C   0  0  1  0  0  0  0  0  0  0  0  0
    3.8311   -1.3681    0.1221 C   0  0  0  0  0  0  0  0  0  0  0  0
    3.0187   -2.2415   -0.6269 O   0  0  0  0  0  0  0  0  0  0  0  0
    5.6386   -3.2440    0.8249 H   0  0  0  0  0  0  0  0  0  0  0  0
    6.3152   -3.5321    2.4956 H   0  0  0  0  0  0  0  0  0  0  0  0
    4.9891   -2.9531    4.4442 H   0  0  0  0  0  0  0  0  0  0  0  0
    5.8457   -0.9675    5.3567 H   0  0  0  0  0  0  0  0  0  0  0  0
    6.0785   -0.4781    3.6837 H   0  0  0  0  0  0  0  0  0  0  0  0
    4.0720    0.4164    5.6817 H   0  0  0  0  0  0  0  0  0  0  0  0
    4.5399    1.2523    4.2131 H   0  0  0  0  0  0  0  0  0  0  0  0
    2.4279   -2.4800    3.9431 H   0  0  0  0  0  0  0  0  0  0  0  0
    3.0409   -1.8757    5.4716 H   0  0  0  0  0  0  0  0  0  0  0  0
    3.9918    0.4700    2.1645 H   0  0  0  0  0  0  0  0  0  0  0  0
    1.8589    0.4948    0.6103 H   0  0  0  0  0  0  0  0  0  0  0  0
    0.4534    2.0881    1.8294 H   0  0  0  0  0  0  0  0  0  0  0  0
    2.4145    2.1697    3.8501 H   0  0  0  0  0  0  0  0  0  0  0  0
    1.3027    4.1111    4.3959 H   0  0  0  0  0  0  0  0  0  0  0  0
   -0.9161    3.5460    3.5913 H   0  0  0  0  0  0  0  0  0  0  0  0
   -1.5301    2.0021    4.1184 H   0  0  0  0  0  0  0  0  0  0  0  0
   -1.1178    4.5202    5.8017 H   0  0  0  0  0  0  0  0  0  0  0  0
   -2.6090    3.7114    5.4864 H   0  0  0  0  0  0  0  0  0  0  0  0
   -1.5026    3.5093    7.8340 H   0  0  0  0  0  0  0  0  0  0  0  0
   -2.6064    1.0097    6.5278 H   0  0  0  0  0  0  0  0  0  0  0  0
   -3.5376    2.3544    7.1953 H   0  0  0  0  0  0  0  0  0  0  0  0
   -2.5774    1.3734    8.2571 H   0  0  0  0  0  0  0  0  0  0  0  0
    0.7540    2.8284    7.5214 H   0  0  0  0  0  0  0  0  0  0  0  0
   -0.0895    1.6109    9.1186 H   0  0  0  0  0  0  0  0  0  0  0  0
   -0.4390    0.7038    5.7490 H   0  0  0  0  0  0  0  0  0  0  0  0
    0.5832   -0.5756    3.0956 H   0  0  0  0  0  0  0  0  0  0  0  0
    2.6562   -2.1585    1.7381 H   0  0  0  0  0  0  0  0  0  0  0  0
    3.6699   -0.3542   -0.2363 H   0  0  0  0  0  0  0  0  0  0  0  0
    4.8703   -1.5504   -0.1407 H   0  0  0  0  0  0  0  0  0  0  0  0
    2.1403   -1.8405   -0.7151 H   0  0  0  0  0  0  0  0  0  0  0  0
  1  2  2  0
  1 27  1  0
  1 28  1  0
  2 24  1  0
  2  3  1  0
  3  7  1  0
  3  4  1  0
  3 29  1  1
  4  5  1  0
  4 30  1  0
  4 31  1  0
  6  5  1  1
  5 32  1  0
  5 33  1  0
  6 22  1  0
  6  7  1  0
  6  8  1  0
  7 34  1  0
  7 35  1  0
  8  9  1  0
  8 24  1  0
  8 36  1  1
  9 10  2  0
  9 37  1  0
 10 11  1  0
 10 38  1  0
 11 22  1  0
 11 12  1  0
 11 39  1  6
 12 20  1  0
 12 13  1  1
 12 14  1  0
 13 40  1  0
 14 15  1  0
 14 41  1  0
 14 42  1  0
 15 16  1  0
 15 43  1  0
 15 44  1  0
 16 17  1  0
 16 18  1  0
 16 45  1  1
 17 46  1  0
 17 47  1  0
 17 48  1  0
 18 19  1  0
 18 20  1  0
 18 49  1  1
 19 50  1  0
 20 21  1  0
 20 51  1  6
 21 22  1  0
 22 23  1  6
 23 52  1  0
 24 25  1  0
 24 53  1  6
 25 26  1  0
 25 54  1  0
 25 55  1  0
 26 56  1  0
M  END
>  <i_m_ct_stereo_status>  (111) 
1

>  <s_m_source_file>  (111) 
/var/tmp/pbs.5076255.sched01/tmpe2rv0q7i/42k21vmx8r.sdf

>  <i_m_source_file_index>  (111) 
10

>  <i_lp_mmshare_version>  (111) 
48012

>  <i_f3d_flags>  (111) 
0

>  <s_epik_input>  (111) 
W0NIMl0xW0NIMl1bQ0BASF0oW0NIMl0yKUMoPVtDSDJdKVtDQEhdKFtDSDJdW09IXSlbQ0BIXShbQ0BdMTIzKVtDSF09W0NIXVtDQEhdNFtDQF01KFtPSF0pW0NAQEhdKE9bQ0BdMzRbT0hdKVtDQEhdKFtPSF0pW0NASF0oW0NIM10pW0NIMl1bQ0gyXTU=

>  <s_epik_cmdline>  (111) 
J2VwaWtfcHl0aG9uJywgJy1waHQnLCAnMi4wJywgJy1waCcsICc3LjAnLCAnLXRuJywgJzgnLCAnLW1hJywgJzIwMCcsICctaW1hZScsICc8aW5maWxlLm1hZT4nLCAnLW9tYWUnLCAnPG91dGZpbGUubWFlPic=

>  <r_lp_tautomer_probability>  (111) 
1

>  <r_epik_Ionization_Penalty>  (111) 
7.94112e-07

>  <r_epik_Ionization_Penalty_Charging>  (111) 
0

>  <r_epik_Ionization_Penalty_Neutral>  (111) 
7.94112e-07

>  <r_epik_State_Penalty>  (111) 
-0

>  <r_epik_Charging_Adjusted_Penalty>  (111) 
0

>  <i_epik_Tot_Q>  (111) 
0

>  <i_epik_Tot_abs_Q>  (111) 
0

>  <s_lp_Force_Field>  (111) 
OPLS3e

>  <r_lp_Energy>  (111) 
72.0187

>  <b_lp_Chiralities_Consistent>  (111) 
1

>  <s_lp_Variant>  (111) 
36:0-1

>  <s_i_glide_gridfile>  (111) 
pfpi4k_grid

>  <i_i_glide_lignum>  (111) 
10

>  <i_i_glide_rotatable_bonds>  (111) 
5

>  <r_i_docking_score>  (111) 
-2.9889

>  <r_i_glide_ligand_efficiency>  (111) 
-0.114958

>  <r_i_glide_ligand_efficiency_sa>  (111) 
-0.340562

>  <r_i_glide_ligand_efficiency_ln>  (111) 
-0.701933

>  <r_i_glide_gscore>  (111) 
-2.9889

>  <r_i_glide_lipo>  (111) 
-0.208335

>  <r_i_glide_hbond>  (111) 
-0.16

>  <r_i_glide_metal>  (111) 
-0

>  <r_i_glide_rewards>  (111) 
-0.937773

>  <r_i_glide_evdw>  (111) 
-17.082

>  <r_i_glide_ecoul>  (111) 
-6.49199

>  <r_i_glide_erotb>  (111) 
0.146161

>  <r_i_glide_esite>  (111) 
-0.00105171

>  <r_i_glide_emodel>  (111) 
-25.6907

>  <r_i_glide_energy>  (111) 
-23.574

>  <r_i_glide_einternal>  (111) 
5.04308

>  <r_i_glide_intrahb_reward>  (111) 
-0

>  <i_i_glide_confnum>  (111) 
5

>  <i_i_glide_posenum>  (111) 
30

>  <r_i_glide_eff_state_penalty>  (111) 
0

>  <ligand_id>  (111) 
36

>  <original_smiles>  (111) 
C=C1C2CCC3(C2)C(C=CC2C4(O)CCC(C)C(O)C4OC23O)C1CO

>  <smiles>  (111) 
[H]OC([H])([H])C1([H])C(=C([H])[H])C2([H])C([H])([H])C([H])([H])C3(C2([H])[H])C2(O[H])OC4([H])C([H])(O[H])C([H])(C([H])([H])[H])C([H])([H])C([H])([H])C4(O[H])C2([H])C([H])=C([H])C13[H]

$$$$
36:0:1
     RDKit          3D

 56 60  0  0  1  0  0  0  0  0999 V2000
   10.1515   -6.8314    4.0590 C   0  0  0  0  0  0  0  0  0  0  0  0
    8.8418   -7.1507    3.9580 C   0  0  0  0  0  0  0  0  0  0  0  0
    7.9215   -6.2391    3.1581 C   0  0  1  0  0  0  0  0  0  0  0  0
    7.7687   -6.7054    1.6955 C   0  0  0  0  0  0  0  0  0  0  0  0
    6.4403   -7.4774    1.6402 C   0  0  0  0  0  0  0  0  0  0  0  0
    6.0968   -7.7005    3.1250 C   0  0  2  0  0  0  0  0  0  0  0  0
    6.5036   -6.3316    3.7037 C   0  0  0  0  0  0  0  0  0  0  0  0
    6.9870   -8.8929    3.7111 C   0  0  2  0  0  0  0  0  0  0  0  0
    6.1899  -10.1046    4.2691 C   0  0  0  0  0  0  0  0  0  0  0  0
    4.9117  -10.3656    3.9240 C   0  0  0  0  0  0  0  0  0  0  0  0
    4.2420   -9.4157    2.9746 C   0  0  1  0  0  0  0  0  0  0  0  0
    2.7354   -9.3896    2.6677 C   0  0  1  0  0  0  0  0  0  0  0  0
    2.6769   -9.8003    1.3097 O   0  0  0  0  0  0  0  0  0  0  0  0
    1.6679  -10.1656    3.4496 C   0  0  0  0  0  0  0  0  0  0  0  0
    0.2697   -9.8569    2.8378 C   0  0  0  0  0  0  0  0  0  0  0  0
   -0.0545   -8.3516    2.5549 C   0  0  1  0  0  0  0  0  0  0  0  0
   -0.7345   -7.7048    3.7855 C   0  0  0  0  0  0  0  0  0  0  0  0
    1.1540   -7.5460    1.9594 C   0  0  1  0  0  0  0  0  0  0  0  0
    0.8969   -6.1579    2.0486 O   0  0  0  0  0  0  0  0  0  0  0  0
    2.4097   -7.8900    2.7745 C   0  0  2  0  0  0  0  0  0  0  0  0
    3.6769   -7.2261    2.5773 O   0  0  0  0  0  0  0  0  0  0  0  0
    4.5702   -7.9801    3.3664 C   0  0  2  0  0  0  0  0  0  0  0  0
    4.3093   -7.7617    4.7588 O   0  0  0  0  0  0  0  0  0  0  0  0
    8.1619   -8.3758    4.6101 C   0  0  1  0  0  0  0  0  0  0  0  0
    9.1542   -9.4890    5.0426 C   0  0  0  0  0  0  0  0  0  0  0  0
    9.9456   -9.0866    6.1407 O   0  0  0  0  0  0  0  0  0  0  0  0
   10.8967   -7.4132    4.5680 H   0  0  0  0  0  0  0  0  0  0  0  0
   10.5239   -5.9489    3.5668 H   0  0  0  0  0  0  0  0  0  0  0  0
    8.3272   -5.2341    3.1838 H   0  0  0  0  0  0  0  0  0  0  0  0
    7.7268   -5.8494    1.0225 H   0  0  0  0  0  0  0  0  0  0  0  0
    8.6098   -7.3210    1.3799 H   0  0  0  0  0  0  0  0  0  0  0  0
    5.6848   -6.8534    1.1573 H   0  0  0  0  0  0  0  0  0  0  0  0
    6.5148   -8.3979    1.0596 H   0  0  0  0  0  0  0  0  0  0  0  0
    6.4530   -6.2699    4.7904 H   0  0  0  0  0  0  0  0  0  0  0  0
    5.8734   -5.5373    3.3012 H   0  0  0  0  0  0  0  0  0  0  0  0
    7.4984   -9.3451    2.8613 H   0  0  0  0  0  0  0  0  0  0  0  0
    6.7008  -10.7967    4.9149 H   0  0  0  0  0  0  0  0  0  0  0  0
    4.3712  -11.2309    4.2800 H   0  0  0  0  0  0  0  0  0  0  0  0
    4.7792   -9.5973    2.0389 H   0  0  0  0  0  0  0  0  0  0  0  0
    3.0626  -10.6597    1.2145 H   0  0  0  0  0  0  0  0  0  0  0  0
    1.8522  -11.2356    3.4082 H   0  0  0  0  0  0  0  0  0  0  0  0
    1.6823   -9.8786    4.4993 H   0  0  0  0  0  0  0  0  0  0  0  0
    0.1610  -10.4262    1.9176 H   0  0  0  0  0  0  0  0  0  0  0  0
   -0.4918  -10.2639    3.5032 H   0  0  0  0  0  0  0  0  0  0  0  0
   -0.8406   -8.3407    1.7970 H   0  0  0  0  0  0  0  0  0  0  0  0
   -0.0617   -7.6554    4.6407 H   0  0  0  0  0  0  0  0  0  0  0  0
   -1.6127   -8.2778    4.0940 H   0  0  0  0  0  0  0  0  0  0  0  0
   -1.0886   -6.6951    3.5773 H   0  0  0  0  0  0  0  0  0  0  0  0
    1.2855   -7.7873    0.9030 H   0  0  0  0  0  0  0  0  0  0  0  0
    1.7370   -5.7395    1.9337 H   0  0  0  0  0  0  0  0  0  0  0  0
    2.1183   -7.6674    3.8038 H   0  0  0  0  0  0  0  0  0  0  0  0
    3.5476   -8.2574    4.9964 H   0  0  0  0  0  0  0  0  0  0  0  0
    7.6957   -8.0111    5.5254 H   0  0  0  0  0  0  0  0  0  0  0  0
    8.6579  -10.3697    5.4400 H   0  0  0  0  0  0  0  0  0  0  0  0
    9.7730   -9.8069    4.2015 H   0  0  0  0  0  0  0  0  0  0  0  0
   10.3731   -8.2798    5.9099 H   0  0  0  0  0  0  0  0  0  0  0  0
  1  2  2  0
  1 27  1  0
  1 28  1  0
  2 24  1  0
  2  3  1  0
  3  7  1  0
  3  4  1  0
  3 29  1  6
  4  5  1  0
  4 30  1  0
  4 31  1  0
  6  5  1  6
  5 32  1  0
  5 33  1  0
  6 22  1  0
  6  7  1  0
  6  8  1  0
  7 34  1  0
  7 35  1  0
  8  9  1  0
  8 24  1  0
  8 36  1  6
  9 10  2  0
  9 37  1  0
 10 11  1  0
 10 38  1  0
 11 22  1  0
 11 12  1  0
 11 39  1  6
 12 20  1  0
 12 13  1  6
 12 14  1  0
 13 40  1  0
 14 15  1  0
 14 41  1  0
 14 42  1  0
 15 16  1  0
 15 43  1  0
 15 44  1  0
 16 17  1  0
 16 18  1  0
 16 45  1  6
 17 46  1  0
 17 47  1  0
 17 48  1  0
 18 19  1  0
 18 20  1  0
 18 49  1  6
 19 50  1  0
 20 21  1  0
 20 51  1  1
 21 22  1  0
 22 23  1  1
 23 52  1  0
 24 25  1  0
 24 53  1  1
 25 26  1  0
 25 54  1  0
 25 55  1  0
 26 56  1  0
M  END
>  <i_m_ct_stereo_status>  (112) 
1

>  <s_m_source_file>  (112) 
/var/tmp/pbs.5076255.sched01/tmpe2rv0q7i/42k21vmx8r.sdf

>  <i_m_source_file_index>  (112) 
10

>  <i_lp_mmshare_version>  (112) 
48012

>  <i_f3d_flags>  (112) 
0

>  <s_epik_input>  (112) 
W0NIMl0xW0NIMl1bQ0BASF0oW0NIMl0yKUMoPVtDSDJdKVtDQEhdKFtDSDJdW09IXSlbQ0BIXShbQ0BdMTIzKVtDSF09W0NIXVtDQEhdNFtDQF01KFtPSF0pW0NAQEhdKE9bQ0BdMzRbT0hdKVtDQEhdKFtPSF0pW0NASF0oW0NIM10pW0NIMl1bQ0gyXTU=

>  <s_epik_cmdline>  (112) 
J2VwaWtfcHl0aG9uJywgJy1waHQnLCAnMi4wJywgJy1waCcsICc3LjAnLCAnLXRuJywgJzgnLCAnLW1hJywgJzIwMCcsICctaW1hZScsICc8aW5maWxlLm1hZT4nLCAnLW9tYWUnLCAnPG91dGZpbGUubWFlPic=

>  <r_lp_tautomer_probability>  (112) 
1

>  <r_epik_Ionization_Penalty>  (112) 
7.94112e-07

>  <r_epik_Ionization_Penalty_Charging>  (112) 
0

>  <r_epik_Ionization_Penalty_Neutral>  (112) 
7.94112e-07

>  <r_epik_State_Penalty>  (112) 
-0

>  <r_epik_Charging_Adjusted_Penalty>  (112) 
0

>  <i_epik_Tot_Q>  (112) 
0

>  <i_epik_Tot_abs_Q>  (112) 
0

>  <s_lp_Force_Field>  (112) 
OPLS3e

>  <r_lp_Energy>  (112) 
72.0187

>  <b_lp_Chiralities_Consistent>  (112) 
1

>  <s_lp_Variant>  (112) 
36:0-1

>  <s_i_glide_gridfile>  (112) 
pfpi4k_grid

>  <i_i_glide_lignum>  (112) 
10

>  <i_i_glide_rotatable_bonds>  (112) 
5

>  <r_i_docking_score>  (112) 
-2.50113

>  <r_i_glide_ligand_efficiency>  (112) 
-0.0961973

>  <r_i_glide_ligand_efficiency_sa>  (112) 
-0.284984

>  <r_i_glide_ligand_efficiency_ln>  (112) 
-0.587382

>  <r_i_glide_gscore>  (112) 
-2.50113

>  <r_i_glide_lipo>  (112) 
-0.192307

>  <r_i_glide_hbond>  (112) 
0

>  <r_i_glide_metal>  (112) 
-0

>  <r_i_glide_rewards>  (112) 
-0.937773

>  <r_i_glide_evdw>  (112) 
-17.2746

>  <r_i_glide_ecoul>  (112) 
-4.35638

>  <r_i_glide_erotb>  (112) 
0.146161

>  <r_i_glide_esite>  (112) 
-2.26387e-05

>  <r_i_glide_emodel>  (112) 
-25.0756

>  <r_i_glide_energy>  (112) 
-21.631

>  <r_i_glide_einternal>  (112) 
1.02039

>  <r_i_glide_intrahb_reward>  (112) 
-0

>  <i_i_glide_confnum>  (112) 
2

>  <i_i_glide_posenum>  (112) 
21

>  <r_i_glide_eff_state_penalty>  (112) 
0

>  <ligand_id>  (112) 
36

>  <original_smiles>  (112) 
C=C1C2CCC3(C2)C(C=CC2C4(O)CCC(C)C(O)C4OC23O)C1CO

>  <smiles>  (112) 
[H]OC([H])([H])C1([H])C(=C([H])[H])C2([H])C([H])([H])C([H])([H])C3(C2([H])[H])C2(O[H])OC4([H])C([H])(O[H])C([H])(C([H])([H])[H])C([H])([H])C([H])([H])C4(O[H])C2([H])C([H])=C([H])C13[H]

$$$$
36:0:2
     RDKit          3D

 56 60  0  0  1  0  0  0  0  0999 V2000
    5.1954   -3.1968    2.1369 C   0  0  0  0  0  0  0  0  0  0  0  0
    4.2886   -2.3563    2.6712 C   0  0  0  0  0  0  0  0  0  0  0  0
    4.1425   -2.2577    4.1913 C   0  0  1  0  0  0  0  0  0  0  0  0
    4.9720   -1.0914    4.7677 C   0  0  0  0  0  0  0  0  0  0  0  0
    3.9806    0.0708    4.9597 C   0  0  0  0  0  0  0  0  0  0  0  0
    2.7351   -0.3725    4.1687 C   0  0  2  0  0  0  0  0  0  0  0  0
    2.7096   -1.8672    4.5394 C   0  0  0  0  0  0  0  0  0  0  0  0
    2.9957   -0.1469    2.6052 C   0  0  2  0  0  0  0  0  0  0  0  0
    1.9904    0.7929    1.8968 C   0  0  0  0  0  0  0  0  0  0  0  0
    1.2412    1.7044    2.5520 C   0  0  0  0  0  0  0  0  0  0  0  0
    1.3828    1.7600    4.0493 C   0  0  1  0  0  0  0  0  0  0  0  0
    0.4523    2.5256    5.0108 C   0  0  1  0  0  0  0  0  0  0  0  0
    1.2309    3.6110    5.4983 O   0  0  0  0  0  0  0  0  0  0  0  0
   -0.8905    3.1394    4.6018 C   0  0  0  0  0  0  0  0  0  0  0  0
   -1.5468    3.8073    5.8470 C   0  0  0  0  0  0  0  0  0  0  0  0
   -1.5611    2.9709    7.1685 C   0  0  1  0  0  0  0  0  0  0  0  0
   -2.8545    2.1363    7.2546 C   0  0  0  0  0  0  0  0  0  0  0  0
   -0.2495    2.1462    7.4212 C   0  0  1  0  0  0  0  0  0  0  0  0
   -0.4966    1.1560    8.4032 O   0  0  0  0  0  0  0  0  0  0  0  0
    0.1706    1.4794    6.1029 C   0  0  2  0  0  0  0  0  0  0  0  0
    1.2898    0.5785    6.0010 O   0  0  0  0  0  0  0  0  0  0  0  0
    1.4189    0.3471    4.6170 C   0  0  2  0  0  0  0  0  0  0  0  0
    0.3231   -0.4169    4.1187 O   0  0  0  0  0  0  0  0  0  0  0  0
    3.3189   -1.4785    1.8493 C   0  0  1  0  0  0  0  0  0  0  0  0
    3.7348   -1.3141    0.3594 C   0  0  0  0  0  0  0  0  0  0  0  0
    4.9759   -0.6537    0.2052 O   0  0  0  0  0  0  0  0  0  0  0  0
    5.3264   -3.3114    1.0713 H   0  0  0  0  0  0  0  0  0  0  0  0
    5.8352   -3.7923    2.7723 H   0  0  0  0  0  0  0  0  0  0  0  0
    4.4252   -3.2069    4.6486 H   0  0  0  0  0  0  0  0  0  0  0  0
    5.4116   -1.3673    5.7255 H   0  0  0  0  0  0  0  0  0  0  0  0
    5.7938   -0.8153    4.1042 H   0  0  0  0  0  0  0  0  0  0  0  0
    3.7487    0.1669    6.0205 H   0  0  0  0  0  0  0  0  0  0  0  0
    4.3933    1.0265    4.6362 H   0  0  0  0  0  0  0  0  0  0  0  0
    1.9627   -2.4557    4.0051 H   0  0  0  0  0  0  0  0  0  0  0  0
    2.5200   -1.9997    5.6052 H   0  0  0  0  0  0  0  0  0  0  0  0
    3.9193    0.4269    2.5214 H   0  0  0  0  0  0  0  0  0  0  0  0
    1.9176    0.7411    0.8256 H   0  0  0  0  0  0  0  0  0  0  0  0
    0.5772    2.3902    2.0493 H   0  0  0  0  0  0  0  0  0  0  0  0
    2.3892    2.1661    4.1841 H   0  0  0  0  0  0  0  0  0  0  0  0
    2.0686    3.2756    5.7774 H   0  0  0  0  0  0  0  0  0  0  0  0
   -0.7582    3.8741    3.8074 H   0  0  0  0  0  0  0  0  0  0  0  0
   -1.5523    2.3759    4.1974 H   0  0  0  0  0  0  0  0  0  0  0  0
   -1.0235    4.7413    6.0463 H   0  0  0  0  0  0  0  0  0  0  0  0
   -2.5615    4.1046    5.5878 H   0  0  0  0  0  0  0  0  0  0  0  0
   -1.6426    3.6830    7.9912 H   0  0  0  0  0  0  0  0  0  0  0  0
   -2.8909    1.3651    6.4875 H   0  0  0  0  0  0  0  0  0  0  0  0
   -3.7387    2.7640    7.1485 H   0  0  0  0  0  0  0  0  0  0  0  0
   -2.9497    1.6628    8.2294 H   0  0  0  0  0  0  0  0  0  0  0  0
    0.5471    2.7923    7.7911 H   0  0  0  0  0  0  0  0  0  0  0  0
   -0.5069    1.5772    9.2509 H   0  0  0  0  0  0  0  0  0  0  0  0
   -0.7075    0.8958    5.8233 H   0  0  0  0  0  0  0  0  0  0  0  0
   -0.3984    0.1723    3.9630 H   0  0  0  0  0  0  0  0  0  0  0  0
    2.3863   -2.0397    1.8177 H   0  0  0  0  0  0  0  0  0  0  0  0
    3.7887   -2.2908   -0.1247 H   0  0  0  0  0  0  0  0  0  0  0  0
    2.9949   -0.7673   -0.2151 H   0  0  0  0  0  0  0  0  0  0  0  0
    4.8343    0.2777    0.3176 H   0  0  0  0  0  0  0  0  0  0  0  0
  1  2  2  0
  1 27  1  0
  1 28  1  0
  2 24  1  0
  2  3  1  0
  3  7  1  0
  3  4  1  0
  3 29  1  1
  4  5  1  0
  4 30  1  0
  4 31  1  0
  6  5  1  1
  5 32  1  0
  5 33  1  0
  6 22  1  0
  6  7  1  0
  6  8  1  0
  7 34  1  0
  7 35  1  0
  8  9  1  0
  8 24  1  0
  8 36  1  1
  9 10  2  0
  9 37  1  0
 10 11  1  0
 10 38  1  0
 11 22  1  0
 11 12  1  0
 11 39  1  6
 12 20  1  0
 12 13  1  1
 12 14  1  0
 13 40  1  0
 14 15  1  0
 14 41  1  0
 14 42  1  0
 15 16  1  0
 15 43  1  0
 15 44  1  0
 16 17  1  0
 16 18  1  0
 16 45  1  1
 17 46  1  0
 17 47  1  0
 17 48  1  0
 18 19  1  0
 18 20  1  0
 18 49  1  1
 19 50  1  0
 20 21  1  0
 20 51  1  6
 21 22  1  0
 22 23  1  6
 23 52  1  0
 24 25  1  0
 24 53  1  6
 25 26  1  0
 25 54  1  0
 25 55  1  0
 26 56  1  0
M  END
>  <i_m_ct_stereo_status>  (113) 
1

>  <s_m_source_file>  (113) 
/var/tmp/pbs.5076255.sched01/tmpe2rv0q7i/42k21vmx8r.sdf

>  <i_m_source_file_index>  (113) 
10

>  <i_lp_mmshare_version>  (113) 
48012

>  <i_f3d_flags>  (113) 
0

>  <s_epik_input>  (113) 
W0NIMl0xW0NIMl1bQ0BASF0oW0NIMl0yKUMoPVtDSDJdKVtDQEhdKFtDSDJdW09IXSlbQ0BIXShbQ0BdMTIzKVtDSF09W0NIXVtDQEhdNFtDQF01KFtPSF0pW0NAQEhdKE9bQ0BdMzRbT0hdKVtDQEhdKFtPSF0pW0NASF0oW0NIM10pW0NIMl1bQ0gyXTU=

>  <s_epik_cmdline>  (113) 
J2VwaWtfcHl0aG9uJywgJy1waHQnLCAnMi4wJywgJy1waCcsICc3LjAnLCAnLXRuJywgJzgnLCAnLW1hJywgJzIwMCcsICctaW1hZScsICc8aW5maWxlLm1hZT4nLCAnLW9tYWUnLCAnPG91dGZpbGUubWFlPic=

>  <r_lp_tautomer_probability>  (113) 
1

>  <r_epik_Ionization_Penalty>  (113) 
7.94112e-07

>  <r_epik_Ionization_Penalty_Charging>  (113) 
0

>  <r_epik_Ionization_Penalty_Neutral>  (113) 
7.94112e-07

>  <r_epik_State_Penalty>  (113) 
-0

>  <r_epik_Charging_Adjusted_Penalty>  (113) 
0

>  <i_epik_Tot_Q>  (113) 
0

>  <i_epik_Tot_abs_Q>  (113) 
0

>  <s_lp_Force_Field>  (113) 
OPLS3e

>  <r_lp_Energy>  (113) 
72.0187

>  <b_lp_Chiralities_Consistent>  (113) 
1

>  <s_lp_Variant>  (113) 
36:0-1

>  <s_i_glide_gridfile>  (113) 
pfpi4k_grid

>  <i_i_glide_lignum>  (113) 
10

>  <i_i_glide_rotatable_bonds>  (113) 
5

>  <r_i_docking_score>  (113) 
-2.33307

>  <r_i_glide_ligand_efficiency>  (113) 
-0.0897334

>  <r_i_glide_ligand_efficiency_sa>  (113) 
-0.265835

>  <r_i_glide_ligand_efficiency_ln>  (113) 
-0.547913

>  <r_i_glide_gscore>  (113) 
-2.33307

>  <r_i_glide_lipo>  (113) 
-0.154483

>  <r_i_glide_hbond>  (113) 
-0.0455217

>  <r_i_glide_metal>  (113) 
-0

>  <r_i_glide_rewards>  (113) 
-0.937773

>  <r_i_glide_evdw>  (113) 
-17.9986

>  <r_i_glide_ecoul>  (113) 
-2.93445

>  <r_i_glide_erotb>  (113) 
0.146161

>  <r_i_glide_esite>  (113) 
-0.00135429

>  <r_i_glide_emodel>  (113) 
-23.9346

>  <r_i_glide_energy>  (113) 
-20.933

>  <r_i_glide_einternal>  (113) 
1.44934

>  <r_i_glide_intrahb_reward>  (113) 
-0

>  <i_i_glide_confnum>  (113) 
5

>  <i_i_glide_posenum>  (113) 
1

>  <r_i_glide_eff_state_penalty>  (113) 
0

>  <ligand_id>  (113) 
36

>  <original_smiles>  (113) 
C=C1C2CCC3(C2)C(C=CC2C4(O)CCC(C)C(O)C4OC23O)C1CO

>  <smiles>  (113) 
[H]OC([H])([H])C1([H])C(=C([H])[H])C2([H])C([H])([H])C([H])([H])C3(C2([H])[H])C2(O[H])OC4([H])C([H])(O[H])C([H])(C([H])([H])[H])C([H])([H])C([H])([H])C4(O[H])C2([H])C([H])=C([H])C13[H]

$$$$
37:0:0
     RDKit          3D

 87 91  0  0  1  0  0  0  0  0999 V2000
    0.3061   -8.6742    7.9902 C   0  0  0  0  0  0  0  0  0  0  0  0
    1.4423   -9.2046    7.1076 C   0  0  2  0  0  0  0  0  0  0  0  0
    2.7262   -8.3425    7.1408 C   0  0  0  0  0  0  0  0  0  0  0  0
    3.0049   -7.3185    5.9901 C   0  0  2  0  0  0  0  0  0  0  0  0
    4.5314   -7.0218    6.0702 C   0  0  0  0  0  0  0  0  0  0  0  0
    2.2533   -5.9976    6.2774 C   0  0  0  0  0  0  0  0  0  0  0  0
    2.6229   -4.9068    5.2712 C   0  0  0  0  0  0  0  0  0  0  0  0
    2.4097   -5.2700    3.7674 C   0  0  2  0  0  0  0  0  0  0  0  0
    0.9020   -5.0550    3.5073 C   0  0  0  0  0  0  0  0  0  0  0  0
    2.6718   -6.7658    3.4609 C   0  0  0  0  0  0  0  0  0  0  0  0
    2.8888   -7.1125    2.1788 C   0  0  0  0  0  0  0  0  0  0  0  0
    2.8753   -6.1870    0.9842 C   0  0  0  0  0  0  0  0  0  0  0  0
    3.0886   -4.6711    1.2604 C   0  0  2  0  0  0  0  0  0  0  0  0
    4.1274   -4.1096    0.1880 C   0  0  2  0  0  0  0  0  0  0  0  0
    5.6183   -4.1250    0.6728 C   0  0  1  0  0  0  0  0  0  0  0  0
    6.1700   -5.5756    0.6839 C   0  0  0  0  0  0  0  0  0  0  0  0
    6.6233   -3.3398   -0.2409 C   0  0  0  0  0  0  0  0  0  0  0  0
    6.0780   -2.1784   -1.0702 C   0  0  0  0  0  0  0  0  0  0  0  0
    4.7684   -2.5579   -1.7678 C   0  0  1  0  0  0  0  0  0  0  0  0
    5.0128   -3.6497   -2.8381 C   0  0  0  0  0  0  0  0  0  0  0  0
    3.6757   -2.8898   -0.7052 C   0  0  0  0  0  0  0  0  0  0  0  0
    2.3713   -3.2444   -1.4613 C   0  0  0  0  0  0  0  0  0  0  0  0
    3.4155   -1.5888    0.0929 C   0  0  0  0  0  0  0  0  0  0  0  0
    5.6892   -3.6183    2.1142 C   0  0  0  0  0  0  0  0  0  0  0  0
    4.7952   -4.3909    3.1073 C   0  0  0  0  0  0  0  0  0  0  0  0
    3.2781   -4.3099    2.7984 C   0  0  2  0  0  0  0  0  0  0  0  0
    2.8465   -2.8383    3.0693 C   0  0  0  0  0  0  0  0  0  0  0  0
    2.5931   -7.8711    4.5732 C   0  0  1  0  0  0  0  0  0  0  0  0
    3.5779   -9.0237    4.2040 C   0  0  0  0  0  0  0  0  0  0  0  0
    1.1244   -8.4505    4.6540 C   0  0  1  0  0  0  0  0  0  0  0  0
    0.4649   -8.8568    3.3158 C   0  0  0  0  0  0  0  0  0  0  0  0
    0.9410   -9.5815    5.6997 C   0  0  1  0  0  0  0  0  0  0  0  0
    1.5222  -10.8041    5.2831 O   0  0  0  0  0  0  0  0  0  0  0  0
   -0.1363   -7.7575    7.6071 H   0  0  0  0  0  0  0  0  0  0  0  0
    0.6356   -8.5006    9.0140 H   0  0  0  0  0  0  0  0  0  0  0  0
   -0.4868   -9.4181    8.0530 H   0  0  0  0  0  0  0  0  0  0  0  0
    1.7251  -10.1327    7.6112 H   0  0  0  0  0  0  0  0  0  0  0  0
    2.7462   -7.8017    8.0857 H   0  0  0  0  0  0  0  0  0  0  0  0
    3.5675   -9.0312    7.2279 H   0  0  0  0  0  0  0  0  0  0  0  0
    4.8909   -6.4689    5.2023 H   0  0  0  0  0  0  0  0  0  0  0  0
    5.1234   -7.9381    6.1158 H   0  0  0  0  0  0  0  0  0  0  0  0
    4.7804   -6.4451    6.9640 H   0  0  0  0  0  0  0  0  0  0  0  0
    1.1742   -6.1265    6.2922 H   0  0  0  0  0  0  0  0  0  0  0  0
    2.4982   -5.6294    7.2745 H   0  0  0  0  0  0  0  0  0  0  0  0
    2.0433   -4.0190    5.5283 H   0  0  0  0  0  0  0  0  0  0  0  0
    3.6478   -4.6180    5.4740 H   0  0  0  0  0  0  0  0  0  0  0  0
    0.5758   -4.0400    3.7301 H   0  0  0  0  0  0  0  0  0  0  0  0
    0.2852   -5.7051    4.1214 H   0  0  0  0  0  0  0  0  0  0  0  0
    0.6372   -5.2654    2.4739 H   0  0  0  0  0  0  0  0  0  0  0  0
    2.9945   -8.1483    1.8987 H   0  0  0  0  0  0  0  0  0  0  0  0
    3.6256   -6.6103    0.3166 H   0  0  0  0  0  0  0  0  0  0  0  0
    1.9246   -6.3233    0.4653 H   0  0  0  0  0  0  0  0  0  0  0  0
    2.1329   -4.2267    1.0057 H   0  0  0  0  0  0  0  0  0  0  0  0
    4.1361   -4.8603   -0.5967 H   0  0  0  0  0  0  0  0  0  0  0  0
    7.2125   -5.6112    1.0152 H   0  0  0  0  0  0  0  0  0  0  0  0
    6.1373   -5.9853   -0.3161 H   0  0  0  0  0  0  0  0  0  0  0  0
    5.6010   -6.2696    1.2995 H   0  0  0  0  0  0  0  0  0  0  0  0
    7.4686   -2.9818    0.3454 H   0  0  0  0  0  0  0  0  0  0  0  0
    7.0742   -4.0143   -0.9615 H   0  0  0  0  0  0  0  0  0  0  0  0
    5.9691   -1.2885   -0.4542 H   0  0  0  0  0  0  0  0  0  0  0  0
    6.8141   -1.8992   -1.8249 H   0  0  0  0  0  0  0  0  0  0  0  0
    4.4365   -1.6761   -2.3232 H   0  0  0  0  0  0  0  0  0  0  0  0
    5.3224   -4.5988   -2.4023 H   0  0  0  0  0  0  0  0  0  0  0  0
    5.8008   -3.3465   -3.5282 H   0  0  0  0  0  0  0  0  0  0  0  0
    4.1182   -3.8444   -3.4290 H   0  0  0  0  0  0  0  0  0  0  0  0
    2.1686   -2.5231   -2.2584 H   0  0  0  0  0  0  0  0  0  0  0  0
    1.5061   -3.2248   -0.8014 H   0  0  0  0  0  0  0  0  0  0  0  0
    2.3978   -4.2373   -1.9079 H   0  0  0  0  0  0  0  0  0  0  0  0
    3.2798   -0.7387   -0.5817 H   0  0  0  0  0  0  0  0  0  0  0  0
    4.2236   -1.3206    0.7700 H   0  0  0  0  0  0  0  0  0  0  0  0
    2.4929   -1.6554    0.6736 H   0  0  0  0  0  0  0  0  0  0  0  0
    6.6985   -3.7681    2.4547 H   0  0  0  0  0  0  0  0  0  0  0  0
    5.5235   -2.5444    2.1622 H   0  0  0  0  0  0  0  0  0  0  0  0
    5.1039   -5.4316    3.1602 H   0  0  0  0  0  0  0  0  0  0  0  0
    5.0247   -3.9823    4.0895 H   0  0  0  0  0  0  0  0  0  0  0  0
    3.5221   -2.1097    2.6421 H   0  0  0  0  0  0  0  0  0  0  0  0
    2.8434   -2.5857    4.1265 H   0  0  0  0  0  0  0  0  0  0  0  0
    1.8574   -2.6109    2.6720 H   0  0  0  0  0  0  0  0  0  0  0  0
    3.7798   -9.6800    5.0491 H   0  0  0  0  0  0  0  0  0  0  0  0
    4.5450   -8.6436    3.8720 H   0  0  0  0  0  0  0  0  0  0  0  0
    3.1929   -9.6687    3.4161 H   0  0  0  0  0  0  0  0  0  0  0  0
    0.4744   -7.6653    5.0242 H   0  0  0  0  0  0  0  0  0  0  0  0
    1.0309   -9.6253    2.7862 H   0  0  0  0  0  0  0  0  0  0  0  0
    0.3464   -8.0029    2.6512 H   0  0  0  0  0  0  0  0  0  0  0  0
   -0.5351   -9.2579    3.4879 H   0  0  0  0  0  0  0  0  0  0  0  0
   -0.1248   -9.8106    5.7740 H   0  0  0  0  0  0  0  0  0  0  0  0
    1.4125  -11.4509    5.9833 H   0  0  0  0  0  0  0  0  0  0  0  0
  1  2  1  0
  1 34  1  0
  1 35  1  0
  1 36  1  0
  2 32  1  0
  2  3  1  0
  2 37  1  1
  3  4  1  0
  3 38  1  0
  3 39  1  0
  4 28  1  0
  4  5  1  6
  4  6  1  0
  5 40  1  0
  5 41  1  0
  5 42  1  0
  6  7  1  0
  6 43  1  0
  6 44  1  0
  7  8  1  0
  7 45  1  0
  7 46  1  0
  8 26  1  0
  8  9  1  6
  8 10  1  0
  9 47  1  0
  9 48  1  0
  9 49  1  0
 10 11  2  0
 10 28  1  0
 11 12  1  0
 11 50  1  0
 12 13  1  0
 12 51  1  0
 12 52  1  0
 13 26  1  0
 13 14  1  0
 13 53  1  6
 14 21  1  0
 14 15  1  0
 14 54  1  6
 15 16  1  1
 15 17  1  0
 15 24  1  0
 16 55  1  0
 16 56  1  0
 16 57  1  0
 17 18  1  0
 17 58  1  0
 17 59  1  0
 18 19  1  0
 18 60  1  0
 18 61  1  0
 19 20  1  0
 19 21  1  0
 19 62  1  6
 20 63  1  0
 20 64  1  0
 20 65  1  0
 21 22  1  0
 21 23  1  0
 22 66  1  0
 22 67  1  0
 22 68  1  0
 23 69  1  0
 23 70  1  0
 23 71  1  0
 24 25  1  0
 24 72  1  0
 24 73  1  0
 25 26  1  0
 25 74  1  0
 25 75  1  0
 26 27  1  6
 27 76  1  0
 27 77  1  0
 27 78  1  0
 28 29  1  6
 28 30  1  0
 29 79  1  0
 29 80  1  0
 29 81  1  0
 30 31  1  0
 30 32  1  0
 30 82  1  1
 31 83  1  0
 31 84  1  0
 31 85  1  0
 32 33  1  0
 32 86  1  1
 33 87  1  0
M  END
>  <i_m_ct_stereo_status>  (114) 
1

>  <s_m_source_file>  (114) 
/var/tmp/pbs.5076255.sched01/tmpe2rv0q7i/42k21vmx8r.sdf

>  <i_m_source_file_index>  (114) 
11

>  <i_lp_mmshare_version>  (114) 
48012

>  <i_f3d_flags>  (114) 
0

>  <s_epik_input>  (114) 
W0NIM11bQ0BIXShbQ0gyXTEpW0NASF0oW09IXSlbQ0BIXShbQ0gzXSlbQ0BdKFtDSDNdKShbQ0BdMTJbQ0gzXSlDPTNbQ0BAXShbQ0gzXSkoW0NIMl1bQ0gyXTIpW0NAXTQoW0NIM10pW0NASF0oW0NIMl1bQ0hdMylbQ0BASF01W0NAXShbQ0gzXSkoW0NIMl1bQ0gyXTQpW0NIMl1bQ0gyXVtDQEBIXShbQ0gzXSlDNShbQ0gzXSlbQ0gzXQ==

>  <s_epik_cmdline>  (114) 
J2VwaWtfcHl0aG9uJywgJy1waHQnLCAnMi4wJywgJy1waCcsICc3LjAnLCAnLXRuJywgJzgnLCAnLW1hJywgJzIwMCcsICctaW1hZScsICc8aW5maWxlLm1hZT4nLCAnLW9tYWUnLCAnPG91dGZpbGUubWFlPic=

>  <r_lp_tautomer_probability>  (114) 
1

>  <r_epik_Ionization_Penalty>  (114) 
2.28991e-06

>  <r_epik_Ionization_Penalty_Charging>  (114) 
0

>  <r_epik_Ionization_Penalty_Neutral>  (114) 
2.28991e-06

>  <r_epik_State_Penalty>  (114) 
-0

>  <r_epik_Charging_Adjusted_Penalty>  (114) 
0

>  <i_epik_Tot_Q>  (114) 
0

>  <i_epik_Tot_abs_Q>  (114) 
0

>  <s_lp_Force_Field>  (114) 
OPLS3e

>  <r_lp_Energy>  (114) 
117.846

>  <b_lp_Chiralities_Consistent>  (114) 
1

>  <s_lp_Variant>  (114) 
37:0-1

>  <s_i_glide_gridfile>  (114) 
pfpi4k_grid

>  <i_i_glide_lignum>  (114) 
11

>  <i_i_glide_rotatable_bonds>  (114) 
1

>  <r_i_docking_score>  (114) 
-2.66197

>  <r_i_glide_ligand_efficiency>  (114) 
-0.0806659

>  <r_i_glide_ligand_efficiency_sa>  (114) 
-0.258739

>  <r_i_glide_ligand_efficiency_ln>  (114) 
-0.592009

>  <r_i_glide_gscore>  (114) 
-2.66197

>  <r_i_glide_lipo>  (114) 
-0.500933

>  <r_i_glide_hbond>  (114) 
-0.16

>  <r_i_glide_metal>  (114) 
-0

>  <r_i_glide_rewards>  (114) 
-0.308383

>  <r_i_glide_evdw>  (114) 
-27.1366

>  <r_i_glide_ecoul>  (114) 
-2.23885

>  <r_i_glide_erotb>  (114) 
0

>  <r_i_glide_esite>  (114) 
0

>  <r_i_glide_emodel>  (114) 
-33.0061

>  <r_i_glide_energy>  (114) 
-29.3755

>  <r_i_glide_einternal>  (114) 
0.487607

>  <r_i_glide_intrahb_reward>  (114) 
-0

>  <i_i_glide_confnum>  (114) 
2

>  <i_i_glide_posenum>  (114) 
2

>  <r_i_glide_eff_state_penalty>  (114) 
0

>  <ligand_id>  (114) 
37

>  <original_smiles>  (114) 
CC1CC2(C)CCC3(C)C(=CCC4C5C(C)(CCC(C)C5(C)C)CCC43C)C2(C)C(C)C1O

>  <smiles>  (114) 
[H]OC1([H])C([H])(C([H])([H])[H])C([H])([H])C2(C([H])([H])[H])C([H])([H])C([H])([H])C3(C([H])([H])[H])C(=C([H])C([H])([H])C4([H])C5([H])C(C([H])([H])[H])(C([H])([H])C([H])([H])C([H])(C([H])([H])[H])C5(C([H])([H])[H])C([H])([H])[H])C([H])([H])C([H])([H])C43C([H])([H])[H])C2(C([H])([H])[H])C1([H])C([H])([H])[H]

$$$$
37:0:1
     RDKit          3D

 87 91  0  0  1  0  0  0  0  0999 V2000
   -0.2357   -9.3959    6.9687 C   0  0  0  0  0  0  0  0  0  0  0  0
    0.7480   -9.9038    5.9123 C   0  0  2  0  0  0  0  0  0  0  0  0
    2.1914   -9.4077    6.1440 C   0  0  0  0  0  0  0  0  0  0  0  0
    2.7002   -8.1836    5.3097 C   0  0  2  0  0  0  0  0  0  0  0  0
    4.2471   -8.2433    5.4157 C   0  0  0  0  0  0  0  0  0  0  0  0
    2.2318   -6.8450    5.9423 C   0  0  0  0  0  0  0  0  0  0  0  0
    2.8341   -5.6399    5.2215 C   0  0  0  0  0  0  0  0  0  0  0  0
    2.5791   -5.5508    3.6842 C   0  0  2  0  0  0  0  0  0  0  0  0
    1.1620   -4.9639    3.5324 C   0  0  0  0  0  0  0  0  0  0  0  0
    2.5442   -6.9410    3.0126 C   0  0  0  0  0  0  0  0  0  0  0  0
    2.7284   -6.9980    1.6737 C   0  0  0  0  0  0  0  0  0  0  0  0
    2.9283   -5.8228    0.7614 C   0  0  0  0  0  0  0  0  0  0  0  0
    3.4402   -4.5013    1.4025 C   0  0  2  0  0  0  0  0  0  0  0  0
    4.6019   -3.9243    0.4845 C   0  0  2  0  0  0  0  0  0  0  0  0
    6.0381   -4.3708    0.8956 C   0  0  1  0  0  0  0  0  0  0  0  0
    6.2503   -5.8312    0.5159 C   0  0  0  0  0  0  0  0  0  0  0  0
    7.2117   -3.6241    0.1779 C   0  0  0  0  0  0  0  0  0  0  0  0
    6.9558   -2.2024   -0.3051 C   0  0  0  0  0  0  0  0  0  0  0  0
    5.6233   -2.1003   -1.0401 C   0  0  1  0  0  0  0  0  0  0  0  0
    5.6415   -2.9252   -2.3486 C   0  0  0  0  0  0  0  0  0  0  0  0
    4.4564   -2.4546   -0.0613 C   0  0  0  0  0  0  0  0  0  0  0  0
    3.1437   -2.3351   -0.8413 C   0  0  0  0  0  0  0  0  0  0  0  0
    4.4104   -1.3566    1.0241 C   0  0  0  0  0  0  0  0  0  0  0  0
    6.1711   -4.3140    2.4078 C   0  0  0  0  0  0  0  0  0  0  0  0
    5.1135   -5.0811    3.2063 C   0  0  0  0  0  0  0  0  0  0  0  0
    3.6588   -4.5937    2.9708 C   0  0  2  0  0  0  0  0  0  0  0  0
    3.5469   -3.1825    3.6205 C   0  0  0  0  0  0  0  0  0  0  0  0
    2.2298   -8.2409    3.8102 C   0  0  1  0  0  0  0  0  0  0  0  0
    2.9563   -9.4548    3.1231 C   0  0  0  0  0  0  0  0  0  0  0  0
    0.6868   -8.4769    3.7921 C   0  0  1  0  0  0  0  0  0  0  0  0
   -0.0326   -8.3937    2.4397 C   0  0  0  0  0  0  0  0  0  0  0  0
    0.2627   -9.7720    4.4659 C   0  0  1  0  0  0  0  0  0  0  0  0
    0.5703  -10.9553    3.7108 O   0  0  0  0  0  0  0  0  0  0  0  0
   -0.4550   -8.3465    6.8440 H   0  0  0  0  0  0  0  0  0  0  0  0
    0.1124   -9.5683    7.9788 H   0  0  0  0  0  0  0  0  0  0  0  0
   -1.1742   -9.9299    6.8833 H   0  0  0  0  0  0  0  0  0  0  0  0
    0.7604  -10.9673    6.0719 H   0  0  0  0  0  0  0  0  0  0  0  0
    2.2746   -9.1321    7.1832 H   0  0  0  0  0  0  0  0  0  0  0  0
    2.8747  -10.2743    6.0414 H   0  0  0  0  0  0  0  0  0  0  0  0
    4.7326   -7.5760    4.7075 H   0  0  0  0  0  0  0  0  0  0  0  0
    4.6300   -9.2439    5.2065 H   0  0  0  0  0  0  0  0  0  0  0  0
    4.5835   -7.9809    6.4179 H   0  0  0  0  0  0  0  0  0  0  0  0
    1.1540   -6.7596    5.9550 H   0  0  0  0  0  0  0  0  0  0  0  0
    2.5186   -6.8182    6.9941 H   0  0  0  0  0  0  0  0  0  0  0  0
    2.4446   -4.7551    5.7207 H   0  0  0  0  0  0  0  0  0  0  0  0
    3.8845   -5.6377    5.4612 H   0  0  0  0  0  0  0  0  0  0  0  0
    1.0434   -3.9993    4.0177 H   0  0  0  0  0  0  0  0  0  0  0  0
    0.4085   -5.6041    3.9750 H   0  0  0  0  0  0  0  0  0  0  0  0
    0.8980   -4.8441    2.4900 H   0  0  0  0  0  0  0  0  0  0  0  0
    2.6243   -7.9293    1.1472 H   0  0  0  0  0  0  0  0  0  0  0  0
    3.5900   -6.2119   -0.0130 H   0  0  0  0  0  0  0  0  0  0  0  0
    1.9891   -5.6294    0.2462 H   0  0  0  0  0  0  0  0  0  0  0  0
    2.5999   -3.8242    1.2941 H   0  0  0  0  0  0  0  0  0  0  0  0
    4.4572   -4.4281   -0.4704 H   0  0  0  0  0  0  0  0  0  0  0  0
    7.2606   -6.1729    0.7492 H   0  0  0  0  0  0  0  0  0  0  0  0
    6.0961   -5.8898   -0.5437 H   0  0  0  0  0  0  0  0  0  0  0  0
    5.5603   -6.5383    0.9719 H   0  0  0  0  0  0  0  0  0  0  0  0
    8.0787   -3.5896    0.8200 H   0  0  0  0  0  0  0  0  0  0  0  0
    7.5418   -4.1893   -0.7028 H   0  0  0  0  0  0  0  0  0  0  0  0
    7.0161   -1.5003    0.5264 H   0  0  0  0  0  0  0  0  0  0  0  0
    7.7639   -1.9062   -0.9629 H   0  0  0  0  0  0  0  0  0  0  0  0
    5.4874   -1.0577   -1.3452 H   0  0  0  0  0  0  0  0  0  0  0  0
    5.7140   -3.9964   -2.1736 H   0  0  0  0  0  0  0  0  0  0  0  0
    6.4967   -2.6765   -2.9704 H   0  0  0  0  0  0  0  0  0  0  0  0
    4.7526   -2.7619   -2.9520 H   0  0  0  0  0  0  0  0  0  0  0  0
    3.0881   -1.4008   -1.4088 H   0  0  0  0  0  0  0  0  0  0  0  0
    2.2786   -2.3235   -0.1585 H   0  0  0  0  0  0  0  0  0  0  0  0
    2.9770   -3.1567   -1.5365 H   0  0  0  0  0  0  0  0  0  0  0  0
    4.4733   -0.3487    0.5903 H   0  0  0  0  0  0  0  0  0  0  0  0
    5.2270   -1.4311    1.7292 H   0  0  0  0  0  0  0  0  0  0  0  0
    3.4719   -1.3722    1.5914 H   0  0  0  0  0  0  0  0  0  0  0  0
    7.1357   -4.7505    2.6411 H   0  0  0  0  0  0  0  0  0  0  0  0
    6.1977   -3.2765    2.7072 H   0  0  0  0  0  0  0  0  0  0  0  0
    5.1889   -6.1464    3.0027 H   0  0  0  0  0  0  0  0  0  0  0  0
    5.4059   -4.9727    4.2424 H   0  0  0  0  0  0  0  0  0  0  0  0
    4.3604   -2.5261    3.3699 H   0  0  0  0  0  0  0  0  0  0  0  0
    3.5706   -3.2154    4.7076 H   0  0  0  0  0  0  0  0  0  0  0  0
    2.6349   -2.6644    3.3270 H   0  0  0  0  0  0  0  0  0  0  0  0
    3.0016  -10.3286    3.7702 H   0  0  0  0  0  0  0  0  0  0  0  0
    3.9866   -9.2189    2.8641 H   0  0  0  0  0  0  0  0  0  0  0  0
    2.4592   -9.7893    2.2104 H   0  0  0  0  0  0  0  0  0  0  0  0
    0.1974   -7.7076    4.3770 H   0  0  0  0  0  0  0  0  0  0  0  0
    0.3880   -9.1490    1.7946 H   0  0  0  0  0  0  0  0  0  0  0  0
    0.0439   -7.4157    1.9683 H   0  0  0  0  0  0  0  0  0  0  0  0
   -1.1015   -8.6246    2.5286 H   0  0  0  0  0  0  0  0  0  0  0  0
   -0.8111   -9.6934    4.4621 H   0  0  0  0  0  0  0  0  0  0  0  0
    1.4602  -11.2284    3.8931 H   0  0  0  0  0  0  0  0  0  0  0  0
  1  2  1  0
  1 34  1  0
  1 35  1  0
  1 36  1  0
  2 32  1  0
  2  3  1  0
  2 37  1  1
  3  4  1  0
  3 38  1  0
  3 39  1  0
  4 28  1  0
  4  5  1  6
  4  6  1  0
  5 40  1  0
  5 41  1  0
  5 42  1  0
  6  7  1  0
  6 43  1  0
  6 44  1  0
  7  8  1  0
  7 45  1  0
  7 46  1  0
  8 26  1  0
  8  9  1  1
  8 10  1  0
  9 47  1  0
  9 48  1  0
  9 49  1  0
 10 11  2  0
 10 28  1  0
 11 12  1  0
 11 50  1  0
 12 13  1  0
 12 51  1  0
 12 52  1  0
 13 26  1  0
 13 14  1  0
 13 53  1  1
 14 21  1  0
 14 15  1  0
 14 54  1  6
 15 16  1  6
 15 17  1  0
 15 24  1  0
 16 55  1  0
 16 56  1  0
 16 57  1  0
 17 18  1  0
 17 58  1  0
 17 59  1  0
 18 19  1  0
 18 60  1  0
 18 61  1  0
 19 20  1  0
 19 21  1  0
 19 62  1  6
 20 63  1  0
 20 64  1  0
 20 65  1  0
 21 22  1  0
 21 23  1  0
 22 66  1  0
 22 67  1  0
 22 68  1  0
 23 69  1  0
 23 70  1  0
 23 71  1  0
 24 25  1  0
 24 72  1  0
 24 73  1  0
 25 26  1  0
 25 74  1  0
 25 75  1  0
 26 27  1  1
 27 76  1  0
 27 77  1  0
 27 78  1  0
 28 29  1  6
 28 30  1  0
 29 79  1  0
 29 80  1  0
 29 81  1  0
 30 31  1  0
 30 32  1  0
 30 82  1  1
 31 83  1  0
 31 84  1  0
 31 85  1  0
 32 33  1  0
 32 86  1  1
 33 87  1  0
M  END
>  <i_m_ct_stereo_status>  (115) 
1

>  <s_m_source_file>  (115) 
/var/tmp/pbs.5076255.sched01/tmpe2rv0q7i/42k21vmx8r.sdf

>  <i_m_source_file_index>  (115) 
11

>  <i_lp_mmshare_version>  (115) 
48012

>  <i_f3d_flags>  (115) 
0

>  <s_epik_input>  (115) 
W0NIM11bQ0BIXShbQ0gyXTEpW0NASF0oW09IXSlbQ0BIXShbQ0gzXSlbQ0BdKFtDSDNdKShbQ0BdMTJbQ0gzXSlDPTNbQ0BAXShbQ0gzXSkoW0NIMl1bQ0gyXTIpW0NAXTQoW0NIM10pW0NASF0oW0NIMl1bQ0hdMylbQ0BASF01W0NAXShbQ0gzXSkoW0NIMl1bQ0gyXTQpW0NIMl1bQ0gyXVtDQEBIXShbQ0gzXSlDNShbQ0gzXSlbQ0gzXQ==

>  <s_epik_cmdline>  (115) 
J2VwaWtfcHl0aG9uJywgJy1waHQnLCAnMi4wJywgJy1waCcsICc3LjAnLCAnLXRuJywgJzgnLCAnLW1hJywgJzIwMCcsICctaW1hZScsICc8aW5maWxlLm1hZT4nLCAnLW9tYWUnLCAnPG91dGZpbGUubWFlPic=

>  <r_lp_tautomer_probability>  (115) 
1

>  <r_epik_Ionization_Penalty>  (115) 
2.28991e-06

>  <r_epik_Ionization_Penalty_Charging>  (115) 
0

>  <r_epik_Ionization_Penalty_Neutral>  (115) 
2.28991e-06

>  <r_epik_State_Penalty>  (115) 
-0

>  <r_epik_Charging_Adjusted_Penalty>  (115) 
0

>  <i_epik_Tot_Q>  (115) 
0

>  <i_epik_Tot_abs_Q>  (115) 
0

>  <s_lp_Force_Field>  (115) 
OPLS3e

>  <r_lp_Energy>  (115) 
117.846

>  <b_lp_Chiralities_Consistent>  (115) 
1

>  <s_lp_Variant>  (115) 
37:0-1

>  <s_i_glide_gridfile>  (115) 
pfpi4k_grid

>  <i_i_glide_lignum>  (115) 
11

>  <i_i_glide_rotatable_bonds>  (115) 
1

>  <r_i_docking_score>  (115) 
-2.12272

>  <r_i_glide_ligand_efficiency>  (115) 
-0.0643248

>  <r_i_glide_ligand_efficiency_sa>  (115) 
-0.206324

>  <r_i_glide_ligand_efficiency_ln>  (115) 
-0.472082

>  <r_i_glide_gscore>  (115) 
-2.12272

>  <r_i_glide_lipo>  (115) 
-0.511955

>  <r_i_glide_hbond>  (115) 
0

>  <r_i_glide_metal>  (115) 
-0

>  <r_i_glide_rewards>  (115) 
-0.308383

>  <r_i_glide_evdw>  (115) 
-23.789

>  <r_i_glide_ecoul>  (115) 
-0.752877

>  <r_i_glide_erotb>  (115) 
0

>  <r_i_glide_esite>  (115) 
0

>  <r_i_glide_emodel>  (115) 
-26.9807

>  <r_i_glide_energy>  (115) 
-24.5419

>  <r_i_glide_einternal>  (115) 
0.223215

>  <r_i_glide_intrahb_reward>  (115) 
-0

>  <i_i_glide_confnum>  (115) 
2

>  <i_i_glide_posenum>  (115) 
7

>  <r_i_glide_eff_state_penalty>  (115) 
0

>  <ligand_id>  (115) 
37

>  <original_smiles>  (115) 
CC1CC2(C)CCC3(C)C(=CCC4C5C(C)(CCC(C)C5(C)C)CCC43C)C2(C)C(C)C1O

>  <smiles>  (115) 
[H]OC1([H])C([H])(C([H])([H])[H])C([H])([H])C2(C([H])([H])[H])C([H])([H])C([H])([H])C3(C([H])([H])[H])C(=C([H])C([H])([H])C4([H])C5([H])C(C([H])([H])[H])(C([H])([H])C([H])([H])C([H])(C([H])([H])[H])C5(C([H])([H])[H])C([H])([H])[H])C([H])([H])C([H])([H])C43C([H])([H])[H])C2(C([H])([H])[H])C1([H])C([H])([H])[H]

$$$$
37:0:2
     RDKit          3D

 87 91  0  0  1  0  0  0  0  0999 V2000
    0.1282   -9.5650    6.8225 C   0  0  0  0  0  0  0  0  0  0  0  0
    0.5384   -9.8599    5.3651 C   0  0  2  0  0  0  0  0  0  0  0  0
    2.0661   -9.8360    5.1284 C   0  0  0  0  0  0  0  0  0  0  0  0
    2.7358   -8.5362    4.5643 C   0  0  2  0  0  0  0  0  0  0  0  0
    4.1050   -8.9928    3.9944 C   0  0  0  0  0  0  0  0  0  0  0  0
    3.0030   -7.5383    5.7191 C   0  0  0  0  0  0  0  0  0  0  0  0
    3.7928   -6.3184    5.2452 C   0  0  0  0  0  0  0  0  0  0  0  0
    3.1706   -5.5119    4.0616 C   0  0  2  0  0  0  0  0  0  0  0  0
    2.0886   -4.5937    4.6957 C   0  0  0  0  0  0  0  0  0  0  0  0
    2.4252   -6.4275    3.0571 C   0  0  0  0  0  0  0  0  0  0  0  0
    2.2015   -5.9367    1.8206 C   0  0  0  0  0  0  0  0  0  0  0  0
    2.5956   -4.5749    1.3247 C   0  0  0  0  0  0  0  0  0  0  0  0
    3.6952   -3.8159    2.0904 C   0  0  2  0  0  0  0  0  0  0  0  0
    4.6548   -3.1579    1.0210 C   0  0  2  0  0  0  0  0  0  0  0  0
    5.8447   -4.0846    0.6066 C   0  0  1  0  0  0  0  0  0  0  0  0
    5.3524   -5.2200   -0.2849 C   0  0  0  0  0  0  0  0  0  0  0  0
    6.9642   -3.3900   -0.2314 C   0  0  0  0  0  0  0  0  0  0  0  0
    7.1370   -1.8916   -0.0480 C   0  0  0  0  0  0  0  0  0  0  0  0
    5.7926   -1.1592   -0.1123 C   0  0  1  0  0  0  0  0  0  0  0  0
    5.1341   -1.2965   -1.5132 C   0  0  0  0  0  0  0  0  0  0  0  0
    4.9024   -1.5995    1.0893 C   0  0  0  0  0  0  0  0  0  0  0  0
    3.5597   -0.8313    1.0114 C   0  0  0  0  0  0  0  0  0  0  0  0
    5.5922   -1.1211    2.3780 C   0  0  0  0  0  0  0  0  0  0  0  0
    6.4565   -4.7485    1.8549 C   0  0  0  0  0  0  0  0  0  0  0  0
    5.4499   -5.5046    2.7498 C   0  0  0  0  0  0  0  0  0  0  0  0
    4.2933   -4.6261    3.3105 C   0  0  2  0  0  0  0  0  0  0  0  0
    4.9022   -3.6494    4.3512 C   0  0  0  0  0  0  0  0  0  0  0  0
    1.8629   -7.8315    3.4605 C   0  0  1  0  0  0  0  0  0  0  0  0
    1.8569   -8.7512    2.1934 C   0  0  0  0  0  0  0  0  0  0  0  0
    0.3931   -7.6872    4.0067 C   0  0  1  0  0  0  0  0  0  0  0  0
   -0.5681   -6.8634    3.1395 C   0  0  0  0  0  0  0  0  0  0  0  0
   -0.2763   -9.0162    4.3681 C   0  0  1  0  0  0  0  0  0  0  0  0
   -0.6437   -9.7347    3.1938 O   0  0  0  0  0  0  0  0  0  0  0  0
    0.2549   -8.5276    7.1194 H   0  0  0  0  0  0  0  0  0  0  0  0
    0.6496  -10.2050    7.5314 H   0  0  0  0  0  0  0  0  0  0  0  0
   -0.9252   -9.8107    6.9379 H   0  0  0  0  0  0  0  0  0  0  0  0
    0.2395  -10.8978    5.2319 H   0  0  0  0  0  0  0  0  0  0  0  0
    2.5566  -10.0904    6.0637 H   0  0  0  0  0  0  0  0  0  0  0  0
    2.3057  -10.6892    4.4799 H   0  0  0  0  0  0  0  0  0  0  0  0
    4.5831   -8.2166    3.4023 H   0  0  0  0  0  0  0  0  0  0  0  0
    4.0052   -9.8612    3.3421 H   0  0  0  0  0  0  0  0  0  0  0  0
    4.7845   -9.2785    4.7975 H   0  0  0  0  0  0  0  0  0  0  0  0
    2.0897   -7.2151    6.2088 H   0  0  0  0  0  0  0  0  0  0  0  0
    3.5730   -8.0310    6.5084 H   0  0  0  0  0  0  0  0  0  0  0  0
    3.9276   -5.6675    6.1067 H   0  0  0  0  0  0  0  0  0  0  0  0
    4.7911   -6.6623    5.0117 H   0  0  0  0  0  0  0  0  0  0  0  0
    2.4889   -3.9433    5.4682 H   0  0  0  0  0  0  0  0  0  0  0  0
    1.3083   -5.1687    5.1830 H   0  0  0  0  0  0  0  0  0  0  0  0
    1.5953   -3.9618    3.9619 H   0  0  0  0  0  0  0  0  0  0  0  0
    1.6029   -6.4888    1.1154 H   0  0  0  0  0  0  0  0  0  0  0  0
    2.7723   -4.7041    0.2585 H   0  0  0  0  0  0  0  0  0  0  0  0
    1.7399   -3.9275    1.3972 H   0  0  0  0  0  0  0  0  0  0  0  0
    3.1688   -2.9870    2.5584 H   0  0  0  0  0  0  0  0  0  0  0  0
    4.0725   -3.1488    0.1062 H   0  0  0  0  0  0  0  0  0  0  0  0
    6.2030   -5.8597   -0.4598 H   0  0  0  0  0  0  0  0  0  0  0  0
    4.9723   -4.8605   -1.2370 H   0  0  0  0  0  0  0  0  0  0  0  0
    4.5921   -5.8493    0.1523 H   0  0  0  0  0  0  0  0  0  0  0  0
    7.9270   -3.8585   -0.0546 H   0  0  0  0  0  0  0  0  0  0  0  0
    6.7860   -3.5499   -1.2973 H   0  0  0  0  0  0  0  0  0  0  0  0
    7.6869   -1.6684    0.8610 H   0  0  0  0  0  0  0  0  0  0  0  0
    7.7990   -1.5580   -0.8295 H   0  0  0  0  0  0  0  0  0  0  0  0
    5.9994   -0.0930    0.0158 H   0  0  0  0  0  0  0  0  0  0  0  0
    4.8624   -2.3235   -1.7603 H   0  0  0  0  0  0  0  0  0  0  0  0
    5.8112   -0.9588   -2.2965 H   0  0  0  0  0  0  0  0  0  0  0  0
    4.2306   -0.6927   -1.6043 H   0  0  0  0  0  0  0  0  0  0  0  0
    3.7285    0.2338    0.8251 H   0  0  0  0  0  0  0  0  0  0  0  0
    2.9913   -0.9014    1.9421 H   0  0  0  0  0  0  0  0  0  0  0  0
    2.9204   -1.2128    0.2119 H   0  0  0  0  0  0  0  0  0  0  0  0
    5.9089   -0.0807    2.2924 H   0  0  0  0  0  0  0  0  0  0  0  0
    6.4817   -1.7021    2.5832 H   0  0  0  0  0  0  0  0  0  0  0  0
    4.9362   -1.1725    3.2435 H   0  0  0  0  0  0  0  0  0  0  0  0
    7.2617   -5.4318    1.5695 H   0  0  0  0  0  0  0  0  0  0  0  0
    6.9490   -3.9898    2.4422 H   0  0  0  0  0  0  0  0  0  0  0  0
    5.0484   -6.3505    2.2011 H   0  0  0  0  0  0  0  0  0  0  0  0
    6.0470   -5.9240    3.5579 H   0  0  0  0  0  0  0  0  0  0  0  0
    5.7981   -3.1551    3.9989 H   0  0  0  0  0  0  0  0  0  0  0  0
    5.2224   -4.1472    5.2639 H   0  0  0  0  0  0  0  0  0  0  0  0
    4.2047   -2.8620    4.6406 H   0  0  0  0  0  0  0  0  0  0  0  0
    1.7544   -9.8051    2.4425 H   0  0  0  0  0  0  0  0  0  0  0  0
    2.7829   -8.6691    1.6231 H   0  0  0  0  0  0  0  0  0  0  0  0
    1.0370   -8.5222    1.5130 H   0  0  0  0  0  0  0  0  0  0  0  0
    0.4187   -7.1391    4.9432 H   0  0  0  0  0  0  0  0  0  0  0  0
   -0.6970   -7.2675    2.1321 H   0  0  0  0  0  0  0  0  0  0  0  0
   -0.1879   -5.8486    3.0713 H   0  0  0  0  0  0  0  0  0  0  0  0
   -1.5598   -6.8193    3.6005 H   0  0  0  0  0  0  0  0  0  0  0  0
   -1.2287   -8.7934    4.8486 H   0  0  0  0  0  0  0  0  0  0  0  0
    0.1083  -10.1783    2.8580 H   0  0  0  0  0  0  0  0  0  0  0  0
  1  2  1  0
  1 34  1  0
  1 35  1  0
  1 36  1  0
  2 32  1  0
  2  3  1  0
  2 37  1  6
  3  4  1  0
  3 38  1  0
  3 39  1  0
  4 28  1  0
  4  5  1  6
  4  6  1  0
  5 40  1  0
  5 41  1  0
  5 42  1  0
  6  7  1  0
  6 43  1  0
  6 44  1  0
  7  8  1  0
  7 45  1  0
  7 46  1  0
  8 26  1  0
  8  9  1  1
  8 10  1  0
  9 47  1  0
  9 48  1  0
  9 49  1  0
 10 11  2  0
 10 28  1  0
 11 12  1  0
 11 50  1  0
 12 13  1  0
 12 51  1  0
 12 52  1  0
 13 26  1  0
 13 14  1  0
 13 53  1  1
 14 21  1  0
 14 15  1  0
 14 54  1  6
 15 16  1  6
 15 17  1  0
 15 24  1  0
 16 55  1  0
 16 56  1  0
 16 57  1  0
 17 18  1  0
 17 58  1  0
 17 59  1  0
 18 19  1  0
 18 60  1  0
 18 61  1  0
 19 20  1  0
 19 21  1  0
 19 62  1  1
 20 63  1  0
 20 64  1  0
 20 65  1  0
 21 22  1  0
 21 23  1  0
 22 66  1  0
 22 67  1  0
 22 68  1  0
 23 69  1  0
 23 70  1  0
 23 71  1  0
 24 25  1  0
 24 72  1  0
 24 73  1  0
 25 26  1  0
 25 74  1  0
 25 75  1  0
 26 27  1  1
 27 76  1  0
 27 77  1  0
 27 78  1  0
 28 29  1  6
 28 30  1  0
 29 79  1  0
 29 80  1  0
 29 81  1  0
 30 31  1  0
 30 32  1  0
 30 82  1  1
 31 83  1  0
 31 84  1  0
 31 85  1  0
 32 33  1  0
 32 86  1  1
 33 87  1  0
M  END
>  <i_m_ct_stereo_status>  (116) 
1

>  <s_m_source_file>  (116) 
/var/tmp/pbs.5076255.sched01/tmpe2rv0q7i/42k21vmx8r.sdf

>  <i_m_source_file_index>  (116) 
11

>  <i_lp_mmshare_version>  (116) 
48012

>  <i_f3d_flags>  (116) 
0

>  <s_epik_input>  (116) 
W0NIM11bQ0BIXShbQ0gyXTEpW0NASF0oW09IXSlbQ0BIXShbQ0gzXSlbQ0BdKFtDSDNdKShbQ0BdMTJbQ0gzXSlDPTNbQ0BAXShbQ0gzXSkoW0NIMl1bQ0gyXTIpW0NAXTQoW0NIM10pW0NASF0oW0NIMl1bQ0hdMylbQ0BASF01W0NAXShbQ0gzXSkoW0NIMl1bQ0gyXTQpW0NIMl1bQ0gyXVtDQEBIXShbQ0gzXSlDNShbQ0gzXSlbQ0gzXQ==

>  <s_epik_cmdline>  (116) 
J2VwaWtfcHl0aG9uJywgJy1waHQnLCAnMi4wJywgJy1waCcsICc3LjAnLCAnLXRuJywgJzgnLCAnLW1hJywgJzIwMCcsICctaW1hZScsICc8aW5maWxlLm1hZT4nLCAnLW9tYWUnLCAnPG91dGZpbGUubWFlPic=

>  <r_lp_tautomer_probability>  (116) 
1

>  <r_epik_Ionization_Penalty>  (116) 
2.28991e-06

>  <r_epik_Ionization_Penalty_Charging>  (116) 
0

>  <r_epik_Ionization_Penalty_Neutral>  (116) 
2.28991e-06

>  <r_epik_State_Penalty>  (116) 
-0

>  <r_epik_Charging_Adjusted_Penalty>  (116) 
0

>  <i_epik_Tot_Q>  (116) 
0

>  <i_epik_Tot_abs_Q>  (116) 
0

>  <s_lp_Force_Field>  (116) 
OPLS3e

>  <r_lp_Energy>  (116) 
117.846

>  <b_lp_Chiralities_Consistent>  (116) 
1

>  <s_lp_Variant>  (116) 
37:0-1

>  <s_i_glide_gridfile>  (116) 
pfpi4k_grid

>  <i_i_glide_lignum>  (116) 
11

>  <i_i_glide_rotatable_bonds>  (116) 
1

>  <r_i_docking_score>  (116) 
-2.04995

>  <r_i_glide_ligand_efficiency>  (116) 
-0.0621198

>  <r_i_glide_ligand_efficiency_sa>  (116) 
-0.199251

>  <r_i_glide_ligand_efficiency_ln>  (116) 
-0.455899

>  <r_i_glide_gscore>  (116) 
-2.04995

>  <r_i_glide_lipo>  (116) 
-0.495367

>  <r_i_glide_hbond>  (116) 
0

>  <r_i_glide_metal>  (116) 
-0

>  <r_i_glide_rewards>  (116) 
-0.308383

>  <r_i_glide_evdw>  (116) 
-25.9843

>  <r_i_glide_ecoul>  (116) 
0.353426

>  <r_i_glide_erotb>  (116) 
0

>  <r_i_glide_esite>  (116) 
0

>  <r_i_glide_emodel>  (116) 
-28.0607

>  <r_i_glide_energy>  (116) 
-25.6309

>  <r_i_glide_einternal>  (116) 
0.0804983

>  <r_i_glide_intrahb_reward>  (116) 
-0

>  <i_i_glide_confnum>  (116) 
1

>  <i_i_glide_posenum>  (116) 
3

>  <r_i_glide_eff_state_penalty>  (116) 
0

>  <ligand_id>  (116) 
37

>  <original_smiles>  (116) 
CC1CC2(C)CCC3(C)C(=CCC4C5C(C)(CCC(C)C5(C)C)CCC43C)C2(C)C(C)C1O

>  <smiles>  (116) 
[H]OC1([H])C([H])(C([H])([H])[H])C([H])([H])C2(C([H])([H])[H])C([H])([H])C([H])([H])C3(C([H])([H])[H])C(=C([H])C([H])([H])C4([H])C5([H])C(C([H])([H])[H])(C([H])([H])C([H])([H])C([H])(C([H])([H])[H])C5(C([H])([H])[H])C([H])([H])[H])C([H])([H])C([H])([H])C43C([H])([H])[H])C2(C([H])([H])[H])C1([H])C([H])([H])[H]

$$$$
38:0:0
     RDKit          3D

 45 48  0  0  1  0  0  0  0  0999 V2000
   -2.7788  -13.5134   -6.7422 C   0  0  0  0  0  0  0  0  0  0  0  0
   -3.7800  -12.6232   -7.4587 C   0  0  0  0  0  0  0  0  0  0  0  0
   -3.4123  -11.8729   -8.3328 O   0  0  0  0  0  0  0  0  0  0  0  0
   -5.0563  -12.6814   -7.0252 N   0  0  0  0  0  0  0  0  0  0  0  0
   -6.1042  -11.6953   -7.3072 C   0  0  1  0  0  0  0  0  0  0  0  0
   -6.3775  -11.6047   -8.8341 C   0  0  0  0  0  0  0  0  0  0  0  0
   -7.4593  -10.5627   -9.1061 C   0  0  1  0  0  0  0  0  0  0  0  0
   -8.7687  -11.0167   -8.4169 C   0  0  0  0  0  0  0  0  0  0  0  0
   -8.5328  -11.1709   -6.9010 C   0  0  1  0  0  0  0  0  0  0  0  0
   -7.3989  -12.1757   -6.6255 C   0  0  0  0  0  0  0  0  0  0  0  0
   -8.1329   -9.8139   -6.3219 C   0  0  0  0  0  0  0  0  0  0  0  0
   -6.8602   -9.2487   -7.0209 C   0  0  2  0  0  0  0  0  0  0  0  0
   -6.5245   -7.9806   -6.4234 O   0  0  0  0  0  0  0  0  0  0  0  0
   -7.3358   -6.8846   -6.5710 C   0  0  0  0  0  0  0  0  0  0  0  0
   -8.5130   -6.8439   -7.3865 C   0  0  0  0  0  0  0  0  0  0  0  0
   -9.2391   -5.7235   -7.5132 N   0  0  0  0  0  0  0  0  0  0  0  0
   -8.8803   -4.6537   -6.7625 C   0  0  0  0  0  0  0  0  0  0  0  0
   -9.7996   -3.4844   -6.9089 C   0  0  0  0  0  0  0  0  0  0  0  0
   -7.7496   -4.6927   -5.9102 C   0  0  0  0  0  0  0  0  0  0  0  0
   -6.9611   -5.7883   -5.8370 N   0  0  0  0  0  0  0  0  0  0  0  0
   -7.0098   -9.1617   -8.5979 C   0  0  0  0  0  0  0  0  0  0  0  0
   -5.7332  -10.2807   -6.7239 C   0  0  0  0  0  0  0  0  0  0  0  0
   -3.2617  -14.1012   -5.9635 H   0  0  0  0  0  0  0  0  0  0  0  0
   -2.0249  -12.8760   -6.2717 H   0  0  0  0  0  0  0  0  0  0  0  0
   -2.2802  -14.1841   -7.4477 H   0  0  0  0  0  0  0  0  0  0  0  0
   -5.2786  -13.4109   -6.3730 H   0  0  0  0  0  0  0  0  0  0  0  0
   -5.5001  -11.2592   -9.3612 H   0  0  0  0  0  0  0  0  0  0  0  0
   -6.6319  -12.5793   -9.2684 H   0  0  0  0  0  0  0  0  0  0  0  0
   -7.6335  -10.4881  -10.1766 H   0  0  0  0  0  0  0  0  0  0  0  0
   -9.5628  -10.2944   -8.6038 H   0  0  0  0  0  0  0  0  0  0  0  0
   -9.1192  -11.9651   -8.8436 H   0  0  0  0  0  0  0  0  0  0  0  0
   -9.4542  -11.5073   -6.4227 H   0  0  0  0  0  0  0  0  0  0  0  0
   -7.6912  -13.1649   -6.9780 H   0  0  0  0  0  0  0  0  0  0  0  0
   -7.2394  -12.2565   -5.5538 H   0  0  0  0  0  0  0  0  0  0  0  0
   -8.9920   -9.1898   -6.4511 H   0  0  0  0  0  0  0  0  0  0  0  0
   -7.9898   -9.8849   -5.2400 H   0  0  0  0  0  0  0  0  0  0  0  0
   -8.9548   -7.6711   -7.8880 H   0  0  0  0  0  0  0  0  0  0  0  0
   -9.5056   -2.6611   -6.2608 H   0  0  0  0  0  0  0  0  0  0  0  0
  -10.8327   -3.7887   -6.6904 H   0  0  0  0  0  0  0  0  0  0  0  0
   -9.7760   -3.1595   -7.9525 H   0  0  0  0  0  0  0  0  0  0  0  0
   -7.4913   -3.8403   -5.3036 H   0  0  0  0  0  0  0  0  0  0  0  0
   -6.0128   -8.9071   -9.0151 H   0  0  0  0  0  0  0  0  0  0  0  0
   -7.7295   -8.5021   -9.0088 H   0  0  0  0  0  0  0  0  0  0  0  0
   -5.5363  -10.3655   -5.6508 H   0  0  0  0  0  0  0  0  0  0  0  0
   -4.8029   -9.9179   -7.1649 H   0  0  0  0  0  0  0  0  0  0  0  0
  1  2  1  0
  1 23  1  0
  1 24  1  0
  1 25  1  0
  2  3  2  0
  2  4  1  0
  5  4  1  6
  4 26  1  0
  5 10  1  0
  5 22  1  0
  5  6  1  0
  6  7  1  0
  6 27  1  0
  6 28  1  0
  7 21  1  0
  7  8  1  0
  7 29  1  6
  8  9  1  0
  8 30  1  0
  8 31  1  0
  9 10  1  0
  9 11  1  0
  9 32  1  1
 10 33  1  0
 10 34  1  0
 11 12  1  0
 11 35  1  0
 11 36  1  0
 12 13  1  1
 12 21  1  0
 12 22  1  0
 13 14  1  0
 14 20  1  0
 14 15  2  0
 15 16  1  0
 15 37  1  0
 16 17  2  0
 17 18  1  0
 17 19  1  0
 18 38  1  0
 18 39  1  0
 18 40  1  0
 19 20  2  0
 19 41  1  0
 21 42  1  0
 21 43  1  0
 22 44  1  0
 22 45  1  0
M  END
>  <i_m_ct_stereo_status>  (117) 
1

>  <s_m_source_file>  (117) 
/var/tmp/pbs.5076255.sched01/tmpe2rv0q7i/42k21vmx8r.sdf

>  <i_m_source_file_index>  (117) 
12

>  <i_lp_mmshare_version>  (117) 
48012

>  <i_f3d_flags>  (117) 
0

>  <s_epik_input>  (117) 
W0NIM11DKD1PKVtOSF1bQ0BAXTEyW0NIMl1bQ0BIXTNbQ0gyXVtDQEBIXShbQ0gyXTEpW0NIMl1bQ0BdKFtDSDJdMykoW0NIMl0yKU9jNFtjSF1uYyhbQ0gzXSlbY0hdbjQ=

>  <s_epik_cmdline>  (117) 
J2VwaWtfcHl0aG9uJywgJy1waHQnLCAnMi4wJywgJy1waCcsICc3LjAnLCAnLXRuJywgJzgnLCAnLW1hJywgJzIwMCcsICctaW1hZScsICc8aW5maWxlLm1hZT4nLCAnLW9tYWUnLCAnPG91dGZpbGUubWFlPic=

>  <r_lp_tautomer_probability>  (117) 
1

>  <r_epik_Ionization_Penalty>  (117) 
2.47305e-06

>  <r_epik_Ionization_Penalty_Charging>  (117) 
0

>  <r_epik_Ionization_Penalty_Neutral>  (117) 
2.47305e-06

>  <r_epik_State_Penalty>  (117) 
-0

>  <r_epik_Charging_Adjusted_Penalty>  (117) 
0

>  <i_epik_Tot_Q>  (117) 
0

>  <i_epik_Tot_abs_Q>  (117) 
0

>  <s_lp_Force_Field>  (117) 
OPLS3e

>  <r_lp_Energy>  (117) 
10.0353

>  <b_lp_Chiralities_Consistent>  (117) 
1

>  <s_lp_Variant>  (117) 
38:0-1

>  <s_i_glide_gridfile>  (117) 
pfpi4k_grid

>  <i_i_glide_lignum>  (117) 
12

>  <i_i_glide_rotatable_bonds>  (117) 
4

>  <r_i_docking_score>  (117) 
-4.60489

>  <r_i_glide_ligand_efficiency>  (117) 
-0.209313

>  <r_i_glide_ligand_efficiency_sa>  (117) 
-0.586503

>  <r_i_glide_ligand_efficiency_ln>  (117) 
-1.1256

>  <r_i_glide_gscore>  (117) 
-4.60489

>  <r_i_glide_lipo>  (117) 
-2.15501

>  <r_i_glide_hbond>  (117) 
-0.0194741

>  <r_i_glide_metal>  (117) 
-0

>  <r_i_glide_rewards>  (117) 
-1.5142

>  <r_i_glide_evdw>  (117) 
-24.1054

>  <r_i_glide_ecoul>  (117) 
-1.75881

>  <r_i_glide_erotb>  (117) 
0.607587

>  <r_i_glide_esite>  (117) 
-0.0546891

>  <r_i_glide_emodel>  (117) 
-27.225

>  <r_i_glide_energy>  (117) 
-25.8642

>  <r_i_glide_einternal>  (117) 
9.21552

>  <r_i_glide_intrahb_reward>  (117) 
-0

>  <i_i_glide_confnum>  (117) 
2

>  <i_i_glide_posenum>  (117) 
4

>  <r_i_glide_eff_state_penalty>  (117) 
0

>  <ligand_id>  (117) 
38

>  <original_smiles>  (117) 
CC(=O)NC12CC3CC(C1)CC(Oc1cnc(C)cn1)(C3)C2

>  <smiles>  (117) 
[H]c1nc(C([H])([H])[H])c([H])nc1OC12C([H])([H])C3([H])C([H])([H])C([H])(C1([H])[H])C([H])([H])C(N([H])C(=O)C([H])([H])[H])(C3([H])[H])C2([H])[H]

$$$$
38:0:1
     RDKit          3D

 45 48  0  0  1  0  0  0  0  0999 V2000
   -2.9717  -13.3238   -6.8856 C   0  0  0  0  0  0  0  0  0  0  0  0
   -4.1279  -12.7131   -7.6434 C   0  0  0  0  0  0  0  0  0  0  0  0
   -3.8993  -12.2591   -8.7663 O   0  0  0  0  0  0  0  0  0  0  0  0
   -5.3313  -12.7076   -7.0439 N   0  0  0  0  0  0  0  0  0  0  0  0
   -6.5861  -12.1364   -7.5518 C   0  0  1  0  0  0  0  0  0  0  0  0
   -7.0064  -12.7948   -8.8964 C   0  0  0  0  0  0  0  0  0  0  0  0
   -8.3289  -12.1629   -9.3742 C   0  0  1  0  0  0  0  0  0  0  0  0
   -9.4348  -12.4375   -8.3405 C   0  0  0  0  0  0  0  0  0  0  0  0
   -9.0391  -11.7841   -7.0059 C   0  0  1  0  0  0  0  0  0  0  0  0
   -7.7024  -12.3844   -6.5131 C   0  0  0  0  0  0  0  0  0  0  0  0
   -8.9022  -10.2590   -7.1865 C   0  0  0  0  0  0  0  0  0  0  0  0
   -7.7795   -9.9594   -8.1995 C   0  0  2  0  0  0  0  0  0  0  0  0
   -7.6841   -8.5388   -8.4175 O   0  0  0  0  0  0  0  0  0  0  0  0
   -7.3005   -7.6951   -7.3950 C   0  0  0  0  0  0  0  0  0  0  0  0
   -6.0805   -7.8117   -6.6852 C   0  0  0  0  0  0  0  0  0  0  0  0
   -5.7786   -6.9973   -5.6589 N   0  0  0  0  0  0  0  0  0  0  0  0
   -6.6546   -6.0016   -5.3811 C   0  0  0  0  0  0  0  0  0  0  0  0
   -6.2653   -5.0665   -4.2591 C   0  0  0  0  0  0  0  0  0  0  0  0
   -7.8427   -5.8321   -6.1267 C   0  0  0  0  0  0  0  0  0  0  0  0
   -8.1690   -6.6794   -7.1217 N   0  0  0  0  0  0  0  0  0  0  0  0
   -8.1659  -10.6273   -9.5588 C   0  0  0  0  0  0  0  0  0  0  0  0
   -6.4558  -10.6017   -7.7063 C   0  0  0  0  0  0  0  0  0  0  0  0
   -3.3129  -13.7076   -5.9375 H   0  0  0  0  0  0  0  0  0  0  0  0
   -2.1930  -12.5825   -6.7062 H   0  0  0  0  0  0  0  0  0  0  0  0
   -2.5492  -14.1502   -7.4600 H   0  0  0  0  0  0  0  0  0  0  0  0
   -5.3442  -13.0506   -6.0952 H   0  0  0  0  0  0  0  0  0  0  0  0
   -6.2606  -12.6275   -9.6733 H   0  0  0  0  0  0  0  0  0  0  0  0
   -7.1066  -13.8795   -8.7736 H   0  0  0  0  0  0  0  0  0  0  0  0
   -8.6003  -12.6235  -10.3253 H   0  0  0  0  0  0  0  0  0  0  0  0
  -10.3819  -12.0277   -8.6902 H   0  0  0  0  0  0  0  0  0  0  0  0
   -9.5776  -13.5109   -8.2139 H   0  0  0  0  0  0  0  0  0  0  0  0
   -9.8169  -11.9710   -6.2705 H   0  0  0  0  0  0  0  0  0  0  0  0
   -7.8099  -13.4462   -6.2949 H   0  0  0  0  0  0  0  0  0  0  0  0
   -7.4172  -11.9029   -5.5806 H   0  0  0  0  0  0  0  0  0  0  0  0
   -9.8500   -9.8307   -7.5169 H   0  0  0  0  0  0  0  0  0  0  0  0
   -8.6655   -9.8073   -6.2243 H   0  0  0  0  0  0  0  0  0  0  0  0
   -5.3294   -8.5492   -6.9278 H   0  0  0  0  0  0  0  0  0  0  0  0
   -6.9799   -4.2499   -4.1336 H   0  0  0  0  0  0  0  0  0  0  0  0
   -5.2819   -4.6432   -4.4684 H   0  0  0  0  0  0  0  0  0  0  0  0
   -6.1978   -5.6312   -3.3282 H   0  0  0  0  0  0  0  0  0  0  0  0
   -8.5326   -5.0171   -5.9388 H   0  0  0  0  0  0  0  0  0  0  0  0
   -7.3950  -10.4270  -10.3013 H   0  0  0  0  0  0  0  0  0  0  0  0
   -9.0919  -10.2002   -9.9562 H   0  0  0  0  0  0  0  0  0  0  0  0
   -6.1653  -10.2225   -6.7334 H   0  0  0  0  0  0  0  0  0  0  0  0
   -5.6617  -10.3502   -8.4029 H   0  0  0  0  0  0  0  0  0  0  0  0
  1  2  1  0
  1 23  1  0
  1 24  1  0
  1 25  1  0
  2  3  2  0
  2  4  1  0
  5  4  1  1
  4 26  1  0
  5 10  1  0
  5 22  1  0
  5  6  1  0
  6  7  1  0
  6 27  1  0
  6 28  1  0
  7 21  1  0
  7  8  1  0
  7 29  1  6
  8  9  1  0
  8 30  1  0
  8 31  1  0
  9 10  1  0
  9 11  1  0
  9 32  1  1
 10 33  1  0
 10 34  1  0
 11 12  1  0
 11 35  1  0
 11 36  1  0
 12 13  1  6
 12 21  1  0
 12 22  1  0
 13 14  1  0
 14 20  1  0
 14 15  2  0
 15 16  1  0
 15 37  1  0
 16 17  2  0
 17 18  1  0
 17 19  1  0
 18 38  1  0
 18 39  1  0
 18 40  1  0
 19 20  2  0
 19 41  1  0
 21 42  1  0
 21 43  1  0
 22 44  1  0
 22 45  1  0
M  END
>  <i_m_ct_stereo_status>  (118) 
1

>  <s_m_source_file>  (118) 
/var/tmp/pbs.5076255.sched01/tmpe2rv0q7i/42k21vmx8r.sdf

>  <i_m_source_file_index>  (118) 
12

>  <i_lp_mmshare_version>  (118) 
48012

>  <i_f3d_flags>  (118) 
0

>  <s_epik_input>  (118) 
W0NIM11DKD1PKVtOSF1bQ0BAXTEyW0NIMl1bQ0BIXTNbQ0gyXVtDQEBIXShbQ0gyXTEpW0NIMl1bQ0BdKFtDSDJdMykoW0NIMl0yKU9jNFtjSF1uYyhbQ0gzXSlbY0hdbjQ=

>  <s_epik_cmdline>  (118) 
J2VwaWtfcHl0aG9uJywgJy1waHQnLCAnMi4wJywgJy1waCcsICc3LjAnLCAnLXRuJywgJzgnLCAnLW1hJywgJzIwMCcsICctaW1hZScsICc8aW5maWxlLm1hZT4nLCAnLW9tYWUnLCAnPG91dGZpbGUubWFlPic=

>  <r_lp_tautomer_probability>  (118) 
1

>  <r_epik_Ionization_Penalty>  (118) 
2.47305e-06

>  <r_epik_Ionization_Penalty_Charging>  (118) 
0

>  <r_epik_Ionization_Penalty_Neutral>  (118) 
2.47305e-06

>  <r_epik_State_Penalty>  (118) 
-0

>  <r_epik_Charging_Adjusted_Penalty>  (118) 
0

>  <i_epik_Tot_Q>  (118) 
0

>  <i_epik_Tot_abs_Q>  (118) 
0

>  <s_lp_Force_Field>  (118) 
OPLS3e

>  <r_lp_Energy>  (118) 
10.0353

>  <b_lp_Chiralities_Consistent>  (118) 
1

>  <s_lp_Variant>  (118) 
38:0-1

>  <s_i_glide_gridfile>  (118) 
pfpi4k_grid

>  <i_i_glide_lignum>  (118) 
12

>  <i_i_glide_rotatable_bonds>  (118) 
4

>  <r_i_docking_score>  (118) 
-4.39155

>  <r_i_glide_ligand_efficiency>  (118) 
-0.199616

>  <r_i_glide_ligand_efficiency_sa>  (118) 
-0.559331

>  <r_i_glide_ligand_efficiency_ln>  (118) 
-1.07345

>  <r_i_glide_gscore>  (118) 
-4.39155

>  <r_i_glide_lipo>  (118) 
-1.90619

>  <r_i_glide_hbond>  (118) 
0

>  <r_i_glide_metal>  (118) 
-0

>  <r_i_glide_rewards>  (118) 
-1.3542

>  <r_i_glide_evdw>  (118) 
-24.3524

>  <r_i_glide_ecoul>  (118) 
-3.26691

>  <r_i_glide_erotb>  (118) 
0.607587

>  <r_i_glide_esite>  (118) 
-0.0310795

>  <r_i_glide_emodel>  (118) 
-28.8881

>  <r_i_glide_energy>  (118) 
-27.6193

>  <r_i_glide_einternal>  (118) 
9.71801

>  <r_i_glide_intrahb_reward>  (118) 
-0

>  <i_i_glide_confnum>  (118) 
2

>  <i_i_glide_posenum>  (118) 
33

>  <r_i_glide_eff_state_penalty>  (118) 
0

>  <ligand_id>  (118) 
38

>  <original_smiles>  (118) 
CC(=O)NC12CC3CC(C1)CC(Oc1cnc(C)cn1)(C3)C2

>  <smiles>  (118) 
[H]c1nc(C([H])([H])[H])c([H])nc1OC12C([H])([H])C3([H])C([H])([H])C([H])(C1([H])[H])C([H])([H])C(N([H])C(=O)C([H])([H])[H])(C3([H])[H])C2([H])[H]

$$$$
38:0:2
     RDKit          3D

 45 48  0  0  1  0  0  0  0  0999 V2000
    1.7282   -9.5687    9.2701 C   0  0  0  0  0  0  0  0  0  0  0  0
    1.0170   -8.9380    8.0822 C   0  0  0  0  0  0  0  0  0  0  0  0
   -0.0470   -8.3553    8.2673 O   0  0  0  0  0  0  0  0  0  0  0  0
    1.6168   -9.0662    6.8865 N   0  0  0  0  0  0  0  0  0  0  0  0
    1.1393   -8.5950    5.5797 C   0  0  1  0  0  0  0  0  0  0  0  0
   -0.1872   -9.2785    5.1917 C   0  0  0  0  0  0  0  0  0  0  0  0
   -0.6373   -8.7999    3.7976 C   0  0  1  0  0  0  0  0  0  0  0  0
   -0.8692   -7.2776    3.8195 C   0  0  0  0  0  0  0  0  0  0  0  0
    0.4525   -6.5847    4.1703 C   0  0  1  0  0  0  0  0  0  0  0  0
    0.9676   -7.0507    5.5494 C   0  0  0  0  0  0  0  0  0  0  0  0
    1.5059   -6.9172    3.1041 C   0  0  0  0  0  0  0  0  0  0  0  0
    1.7885   -8.4616    3.1000 C   0  0  2  0  0  0  0  0  0  0  0  0
    2.7312   -8.8575    2.1013 O   0  0  0  0  0  0  0  0  0  0  0  0
    4.0632   -8.4797    2.1292 C   0  0  0  0  0  0  0  0  0  0  0  0
    4.9925   -9.1091    1.2769 C   0  0  0  0  0  0  0  0  0  0  0  0
    6.3155   -8.7871    1.2811 N   0  0  0  0  0  0  0  0  0  0  0  0
    6.6927   -7.7969    2.1162 C   0  0  0  0  0  0  0  0  0  0  0  0
    8.1458   -7.3966    2.0942 C   0  0  0  0  0  0  0  0  0  0  0  0
    5.7632   -7.1583    2.9670 C   0  0  0  0  0  0  0  0  0  0  0  0
    4.4487   -7.5009    2.9830 N   0  0  0  0  0  0  0  0  0  0  0  0
    0.4513   -9.1586    2.7465 C   0  0  0  0  0  0  0  0  0  0  0  0
    2.2004   -8.9823    4.5201 C   0  0  0  0  0  0  0  0  0  0  0  0
    2.6671  -10.0371    8.9760 H   0  0  0  0  0  0  0  0  0  0  0  0
    1.0806  -10.3282    9.7045 H   0  0  0  0  0  0  0  0  0  0  0  0
    1.9293   -8.8002   10.0180 H   0  0  0  0  0  0  0  0  0  0  0  0
    2.4645   -9.6236    6.8814 H   0  0  0  0  0  0  0  0  0  0  0  0
   -0.0628  -10.3581    5.1883 H   0  0  0  0  0  0  0  0  0  0  0  0
   -0.9851   -9.0575    5.9002 H   0  0  0  0  0  0  0  0  0  0  0  0
   -1.5808   -9.2945    3.5497 H   0  0  0  0  0  0  0  0  0  0  0  0
   -1.2134   -6.9508    2.8433 H   0  0  0  0  0  0  0  0  0  0  0  0
   -1.6354   -7.0195    4.5473 H   0  0  0  0  0  0  0  0  0  0  0  0
    0.3169   -5.5086    4.1940 H   0  0  0  0  0  0  0  0  0  0  0  0
    0.2558   -6.7033    6.2918 H   0  0  0  0  0  0  0  0  0  0  0  0
    1.9221   -6.5784    5.7755 H   0  0  0  0  0  0  0  0  0  0  0  0
    1.1702   -6.6035    2.1118 H   0  0  0  0  0  0  0  0  0  0  0  0
    2.3565   -6.2819    3.3708 H   0  0  0  0  0  0  0  0  0  0  0  0
    4.6843   -9.8608    0.5756 H   0  0  0  0  0  0  0  0  0  0  0  0
    8.3413   -6.5738    2.7798 H   0  0  0  0  0  0  0  0  0  0  0  0
    8.4487   -7.0959    1.0922 H   0  0  0  0  0  0  0  0  0  0  0  0
    8.7464   -8.2462    2.4059 H   0  0  0  0  0  0  0  0  0  0  0  0
    6.0666   -6.3663    3.6403 H   0  0  0  0  0  0  0  0  0  0  0  0
    0.5639  -10.2432    2.7061 H   0  0  0  0  0  0  0  0  0  0  0  0
    0.1045   -8.8566    1.7589 H   0  0  0  0  0  0  0  0  0  0  0  0
    3.1589   -8.5896    4.8619 H   0  0  0  0  0  0  0  0  0  0  0  0
    2.3258  -10.0705    4.4779 H   0  0  0  0  0  0  0  0  0  0  0  0
  1  2  1  0
  1 23  1  0
  1 24  1  0
  1 25  1  0
  2  3  2  0
  2  4  1  0
  5  4  1  1
  4 26  1  0
  5 10  1  0
  5 22  1  0
  5  6  1  0
  6  7  1  0
  6 27  1  0
  6 28  1  0
  7 21  1  0
  7  8  1  0
  7 29  1  6
  8  9  1  0
  8 30  1  0
  8 31  1  0
  9 10  1  0
  9 11  1  0
  9 32  1  1
 10 33  1  0
 10 34  1  0
 11 12  1  0
 11 35  1  0
 11 36  1  0
 12 13  1  6
 12 21  1  0
 12 22  1  0
 13 14  1  0
 14 20  1  0
 14 15  2  0
 15 16  1  0
 15 37  1  0
 16 17  2  0
 17 18  1  0
 17 19  1  0
 18 38  1  0
 18 39  1  0
 18 40  1  0
 19 20  2  0
 19 41  1  0
 21 42  1  0
 21 43  1  0
 22 44  1  0
 22 45  1  0
M  END
>  <i_m_ct_stereo_status>  (119) 
1

>  <s_m_source_file>  (119) 
/var/tmp/pbs.5076255.sched01/tmpe2rv0q7i/42k21vmx8r.sdf

>  <i_m_source_file_index>  (119) 
12

>  <i_lp_mmshare_version>  (119) 
48012

>  <i_f3d_flags>  (119) 
0

>  <s_epik_input>  (119) 
W0NIM11DKD1PKVtOSF1bQ0BAXTEyW0NIMl1bQ0BIXTNbQ0gyXVtDQEBIXShbQ0gyXTEpW0NIMl1bQ0BdKFtDSDJdMykoW0NIMl0yKU9jNFtjSF1uYyhbQ0gzXSlbY0hdbjQ=

>  <s_epik_cmdline>  (119) 
J2VwaWtfcHl0aG9uJywgJy1waHQnLCAnMi4wJywgJy1waCcsICc3LjAnLCAnLXRuJywgJzgnLCAnLW1hJywgJzIwMCcsICctaW1hZScsICc8aW5maWxlLm1hZT4nLCAnLW9tYWUnLCAnPG91dGZpbGUubWFlPic=

>  <r_lp_tautomer_probability>  (119) 
1

>  <r_epik_Ionization_Penalty>  (119) 
2.47305e-06

>  <r_epik_Ionization_Penalty_Charging>  (119) 
0

>  <r_epik_Ionization_Penalty_Neutral>  (119) 
2.47305e-06

>  <r_epik_State_Penalty>  (119) 
-0

>  <r_epik_Charging_Adjusted_Penalty>  (119) 
0

>  <i_epik_Tot_Q>  (119) 
0

>  <i_epik_Tot_abs_Q>  (119) 
0

>  <s_lp_Force_Field>  (119) 
OPLS3e

>  <r_lp_Energy>  (119) 
10.0353

>  <b_lp_Chiralities_Consistent>  (119) 
1

>  <s_lp_Variant>  (119) 
38:0-1

>  <s_i_glide_gridfile>  (119) 
pfpi4k_grid

>  <i_i_glide_lignum>  (119) 
12

>  <i_i_glide_rotatable_bonds>  (119) 
4

>  <r_i_docking_score>  (119) 
-2.46183

>  <r_i_glide_ligand_efficiency>  (119) 
-0.111901

>  <r_i_glide_ligand_efficiency_sa>  (119) 
-0.313552

>  <r_i_glide_ligand_efficiency_ln>  (119) 
-0.601761

>  <r_i_glide_gscore>  (119) 
-2.46183

>  <r_i_glide_lipo>  (119) 
-0.0712055

>  <r_i_glide_hbond>  (119) 
0

>  <r_i_glide_metal>  (119) 
-0

>  <r_i_glide_rewards>  (119) 
-1.3542

>  <r_i_glide_evdw>  (119) 
-20.1858

>  <r_i_glide_ecoul>  (119) 
-3.45112

>  <r_i_glide_erotb>  (119) 
0.607587

>  <r_i_glide_esite>  (119) 
-0.117049

>  <r_i_glide_emodel>  (119) 
-27.1091

>  <r_i_glide_energy>  (119) 
-23.6369

>  <r_i_glide_einternal>  (119) 
0.640034

>  <r_i_glide_intrahb_reward>  (119) 
-0

>  <i_i_glide_confnum>  (119) 
2

>  <i_i_glide_posenum>  (119) 
13

>  <r_i_glide_eff_state_penalty>  (119) 
0

>  <ligand_id>  (119) 
38

>  <original_smiles>  (119) 
CC(=O)NC12CC3CC(C1)CC(Oc1cnc(C)cn1)(C3)C2

>  <smiles>  (119) 
[H]c1nc(C([H])([H])[H])c([H])nc1OC12C([H])([H])C3([H])C([H])([H])C([H])(C1([H])[H])C([H])([H])C(N([H])C(=O)C([H])([H])[H])(C3([H])[H])C2([H])[H]

$$$$
39:0:0
     RDKit          3D

 43 46  0  0  1  0  0  0  0  0999 V2000
    4.7793   -4.2111   -4.1822 C   0  0  0  0  0  0  0  0  0  0  0  0
    3.7576   -3.0898   -3.9452 C   0  0  0  0  0  0  0  0  0  0  0  0
    3.9211   -2.4674   -2.6440 N   0  0  0  0  0  0  0  0  0  0  0  0
    4.6178   -1.3235   -2.4571 N   0  0  0  0  0  0  0  0  0  0  0  0
    4.5304   -1.0554   -1.1939 N   0  0  0  0  0  0  0  0  0  0  0  0
    3.7649   -2.0503   -0.6552 C   0  0  0  0  0  0  0  0  0  0  0  0
    3.4314   -2.1427    0.8036 C   0  0  0  0  0  0  0  0  0  0  0  0
    3.7591   -3.4422    1.3740 N   0  0  0  0  0  0  0  0  0  0  0  0
    4.8484   -4.2661    1.1254 C   0  0  0  0  0  0  0  0  0  0  0  0
    6.0245   -3.8241    0.6612 N   0  0  0  0  0  0  0  0  0  0  0  0
    6.8242   -4.9473    0.5169 N   0  0  0  0  0  0  0  0  0  0  0  0
    6.0570   -5.9726    0.8974 C   0  0  0  0  0  0  0  0  0  0  0  0
    4.8261   -5.6086    1.2875 N   0  0  0  0  0  0  0  0  0  0  0  0
    3.7879   -6.4911    1.7179 C   0  0  0  0  0  0  0  0  0  0  0  0
    4.1315   -7.7454    2.2933 C   0  0  0  0  0  0  0  0  0  0  0  0
    3.1308   -8.6394    2.7200 C   0  0  0  0  0  0  0  0  0  0  0  0
    1.7809   -8.2773    2.5902 C   0  0  0  0  0  0  0  0  0  0  0  0
    1.3987   -7.0350    2.0167 C   0  0  0  0  0  0  0  0  0  0  0  0
    2.4126   -6.1697    1.5614 C   0  0  0  0  0  0  0  0  0  0  0  0
    0.0286   -6.8783    1.9945 N   0  0  0  0  0  0  0  0  0  0  0  0
   -0.3914   -8.0227    2.5402 C   0  0  0  0  0  0  0  0  0  0  0  0
   -1.8430   -8.3133    2.7221 C   0  0  0  0  0  0  0  0  0  0  0  0
    0.5805   -8.8898    2.9161 N   0  0  0  0  0  0  0  0  0  0  0  0
    0.4524  -10.1941    3.5354 C   0  0  0  0  0  0  0  0  0  0  0  0
    3.3641   -2.9633   -1.5243 N   0  0  0  0  0  0  0  0  0  0  0  0
    2.9764   -3.9059    1.8038 H   0  0  0  0  0  0  0  0  0  0  0  0
    4.6170   -4.6778   -5.1507 H   0  0  0  0  0  0  0  0  0  0  0  0
    4.6844   -4.9949   -3.4340 H   0  0  0  0  0  0  0  0  0  0  0  0
    5.8068   -3.8566   -4.1514 H   0  0  0  0  0  0  0  0  0  0  0  0
    3.8571   -2.3144   -4.7082 H   0  0  0  0  0  0  0  0  0  0  0  0
    2.7398   -3.4825   -4.0139 H   0  0  0  0  0  0  0  0  0  0  0  0
    3.9953   -1.3809    1.3462 H   0  0  0  0  0  0  0  0  0  0  0  0
    2.3686   -1.9235    0.9377 H   0  0  0  0  0  0  0  0  0  0  0  0
    6.4068   -6.9949    0.8813 H   0  0  0  0  0  0  0  0  0  0  0  0
    5.1613   -8.0474    2.4085 H   0  0  0  0  0  0  0  0  0  0  0  0
    3.4001   -9.5892    3.1531 H   0  0  0  0  0  0  0  0  0  0  0  0
    2.0875   -5.2688    1.0752 H   0  0  0  0  0  0  0  0  0  0  0  0
   -2.4315   -7.4639    2.3709 H   0  0  0  0  0  0  0  0  0  0  0  0
   -2.0640   -8.4693    3.7804 H   0  0  0  0  0  0  0  0  0  0  0  0
   -2.1213   -9.2010    2.1477 H   0  0  0  0  0  0  0  0  0  0  0  0
   -0.5870  -10.4682    3.6795 H   0  0  0  0  0  0  0  0  0  0  0  0
    0.9406  -10.1877    4.5056 H   0  0  0  0  0  0  0  0  0  0  0  0
    0.9219  -10.9446    2.9060 H   0  0  0  0  0  0  0  0  0  0  0  0
  1  2  1  0
  1 27  1  0
  1 28  1  0
  1 29  1  0
  2  3  1  0
  2 30  1  0
  2 31  1  0
  3 25  1  0
  3  4  1  0
  4  5  2  0
  5  6  1  0
  6  7  1  0
  6 25  2  0
  7 32  1  0
  7 33  1  0
  7  8  1  0
  8  9  1  0
  8 26  1  0
  9 10  2  0
  9 13  1  0
 10 11  1  0
 11 12  2  0
 12 34  1  0
 12 13  1  0
 13 14  1  0
 14 19  1  0
 14 15  2  0
 15 16  1  0
 15 35  1  0
 16 17  2  0
 16 36  1  0
 17 23  1  0
 17 18  1  0
 18 19  2  0
 18 20  1  0
 19 37  1  0
 20 21  2  0
 21 22  1  0
 21 23  1  0
 22 38  1  0
 22 39  1  0
 22 40  1  0
 23 24  1  0
 24 41  1  0
 24 42  1  0
 24 43  1  0
M  END
>  <i_m_ct_stereo_status>  (120) 
1

>  <s_m_source_file>  (120) 
/var/tmp/pbs.5076255.sched01/tmpe2rv0q7i/42k21vmx8r.sdf

>  <i_m_source_file_index>  (120) 
13

>  <i_lp_mmshare_version>  (120) 
48012

>  <i_f3d_flags>  (120) 
0

>  <s_epik_input>  (120) 
W0NIM11bQ0gyXW4xbm5jKG4xKVtDSDJdL049YzJcW25IXW5bY0hdbjItYyhbY0hdW2NIXTMpW2NIXWMoYzM0KW5jKFtDSDNdKW40W0NIM10=

>  <s_epik_cmdline>  (120) 
J2VwaWtfcHl0aG9uJywgJy1waHQnLCAnMi4wJywgJy1waCcsICc3LjAnLCAnLXRuJywgJzgnLCAnLW1hJywgJzIwMCcsICctaW1hZScsICc8aW5maWxlLm1hZT4nLCAnLW9tYWUnLCAnPG91dGZpbGUubWFlPic=

>  <r_lp_tautomer_probability>  (120) 
0.999997

>  <r_epik_Ionization_Penalty>  (120) 
0.0489855

>  <r_epik_Ionization_Penalty_Charging>  (120) 
0

>  <r_epik_Ionization_Penalty_Neutral>  (120) 
0.0489855

>  <r_epik_State_Penalty>  (120) 
0.039748

>  <r_epik_Charging_Adjusted_Penalty>  (120) 
0.039748

>  <i_epik_Tot_Q>  (120) 
0

>  <i_epik_Tot_abs_Q>  (120) 
0

>  <s_lp_Force_Field>  (120) 
OPLS3e

>  <r_lp_Energy>  (120) 
20.182

>  <b_lp_Chiralities_Consistent>  (120) 
1

>  <s_lp_Variant>  (120) 
39:0-1

>  <s_i_glide_gridfile>  (120) 
pfpi4k_grid

>  <i_i_glide_lignum>  (120) 
13

>  <i_i_glide_rotatable_bonds>  (120) 
5

>  <r_i_docking_score>  (120) 
-3.31264

>  <r_i_glide_ligand_efficiency>  (120) 
-0.132506

>  <r_i_glide_ligand_efficiency_sa>  (120) 
-0.387449

>  <r_i_glide_ligand_efficiency_ln>  (120) 
-0.785195

>  <r_i_glide_gscore>  (120) 
-3.31264

>  <r_i_glide_lipo>  (120) 
-0.141473

>  <r_i_glide_hbond>  (120) 
-0.0563942

>  <r_i_glide_metal>  (120) 
-0

>  <r_i_glide_rewards>  (120) 
-1.39245

>  <r_i_glide_evdw>  (120) 
-36.0288

>  <r_i_glide_ecoul>  (120) 
-2.42133

>  <r_i_glide_erotb>  (120) 
0.660682

>  <r_i_glide_esite>  (120) 
-0.218363

>  <r_i_glide_emodel>  (120) 
-45.6693

>  <r_i_glide_energy>  (120) 
-38.4502

>  <r_i_glide_einternal>  (120) 
2.27686

>  <r_i_glide_intrahb_reward>  (120) 
-0

>  <i_i_glide_confnum>  (120) 
4

>  <i_i_glide_posenum>  (120) 
11

>  <r_i_glide_eff_state_penalty>  (120) 
0

>  <ligand_id>  (120) 
39

>  <original_smiles>  (120) 
CCn1nnc(CN=c2[nH]ncn2-c2ccc3c(c2)nc(C)n3C)n1

>  <smiles>  (120) 
[H]c1c(-n2c([H])nnc2N([H])C([H])([H])c2nnn(C([H])([H])C([H])([H])[H])n2)c([H])c2nc(C([H])([H])[H])n(C([H])([H])[H])c2c1[H]

$$$$
39:0:1
     RDKit          3D

 43 46  0  0  1  0  0  0  0  0999 V2000
    4.7439   -6.3781    0.1251 C   0  0  0  0  0  0  0  0  0  0  0  0
    5.9012   -5.4293    0.4734 C   0  0  0  0  0  0  0  0  0  0  0  0
    5.6851   -4.1088   -0.0848 N   0  0  0  0  0  0  0  0  0  0  0  0
    6.6482   -3.4097   -0.7353 N   0  0  0  0  0  0  0  0  0  0  0  0
    6.0713   -2.3271   -1.1609 N   0  0  0  0  0  0  0  0  0  0  0  0
    4.7844   -2.4028   -0.7032 C   0  0  0  0  0  0  0  0  0  0  0  0
    3.8016   -1.2947   -0.8014 C   0  0  0  0  0  0  0  0  0  0  0  0
    3.4622   -0.7363    0.5012 N   0  0  0  0  0  0  0  0  0  0  0  0
    4.2148   -0.5366    1.6590 C   0  0  0  0  0  0  0  0  0  0  0  0
    5.4931   -0.8751    1.7972 N   0  0  0  0  0  0  0  0  0  0  0  0
    5.8171   -0.6151    3.1110 N   0  0  0  0  0  0  0  0  0  0  0  0
    4.7361   -0.0629    3.6488 C   0  0  0  0  0  0  0  0  0  0  0  0
    3.7093    0.0183    2.7916 N   0  0  0  0  0  0  0  0  0  0  0  0
    2.4471    0.5823    3.0753 C   0  0  0  0  0  0  0  0  0  0  0  0
    1.6401    1.1702    2.0680 C   0  0  0  0  0  0  0  0  0  0  0  0
    0.3873    1.7165    2.3766 C   0  0  0  0  0  0  0  0  0  0  0  0
   -0.0587    1.7325    3.7095 C   0  0  0  0  0  0  0  0  0  0  0  0
    0.7343    1.1875    4.7563 C   0  0  0  0  0  0  0  0  0  0  0  0
    1.9790    0.6179    4.4212 C   0  0  0  0  0  0  0  0  0  0  0  0
    0.0982    1.3158    5.9811 N   0  0  0  0  0  0  0  0  0  0  0  0
   -1.0356    1.9309    5.6447 C   0  0  0  0  0  0  0  0  0  0  0  0
   -2.0517    2.2887    6.6677 C   0  0  0  0  0  0  0  0  0  0  0  0
   -1.2041    2.2025    4.3259 N   0  0  0  0  0  0  0  0  0  0  0  0
   -2.3143    2.8429    3.6454 C   0  0  0  0  0  0  0  0  0  0  0  0
    4.4952   -3.4907   -0.0114 N   0  0  0  0  0  0  0  0  0  0  0  0
    2.4754   -0.5212    0.5629 H   0  0  0  0  0  0  0  0  0  0  0  0
    4.9147   -7.3872    0.5032 H   0  0  0  0  0  0  0  0  0  0  0  0
    4.6159   -6.4325   -0.9561 H   0  0  0  0  0  0  0  0  0  0  0  0
    3.8049   -6.0176    0.5470 H   0  0  0  0  0  0  0  0  0  0  0  0
    6.0219   -5.3458    1.5540 H   0  0  0  0  0  0  0  0  0  0  0  0
    6.8373   -5.8257    0.0815 H   0  0  0  0  0  0  0  0  0  0  0  0
    4.2149   -0.4967   -1.4239 H   0  0  0  0  0  0  0  0  0  0  0  0
    2.8956   -1.6689   -1.2909 H   0  0  0  0  0  0  0  0  0  0  0  0
    4.7408    0.2924    4.6659 H   0  0  0  0  0  0  0  0  0  0  0  0
    1.9581    1.2399    1.0376 H   0  0  0  0  0  0  0  0  0  0  0  0
   -0.2065    2.1406    1.5829 H   0  0  0  0  0  0  0  0  0  0  0  0
    2.5714    0.2127    5.2264 H   0  0  0  0  0  0  0  0  0  0  0  0
   -1.6925    1.9714    7.6474 H   0  0  0  0  0  0  0  0  0  0  0  0
   -2.9875    1.7683    6.4678 H   0  0  0  0  0  0  0  0  0  0  0  0
   -2.2129    3.3695    6.6783 H   0  0  0  0  0  0  0  0  0  0  0  0
   -3.0982    3.1343    4.3379 H   0  0  0  0  0  0  0  0  0  0  0  0
   -2.7239    2.1513    2.9127 H   0  0  0  0  0  0  0  0  0  0  0  0
   -1.9532    3.7213    3.1144 H   0  0  0  0  0  0  0  0  0  0  0  0
  1  2  1  0
  1 27  1  0
  1 28  1  0
  1 29  1  0
  2  3  1  0
  2 30  1  0
  2 31  1  0
  3 25  1  0
  3  4  1  0
  4  5  2  0
  5  6  1  0
  6  7  1  0
  6 25  2  0
  7 32  1  0
  7 33  1  0
  7  8  1  0
  8  9  1  0
  8 26  1  0
  9 10  2  0
  9 13  1  0
 10 11  1  0
 11 12  2  0
 12 34  1  0
 12 13  1  0
 13 14  1  0
 14 19  1  0
 14 15  2  0
 15 16  1  0
 15 35  1  0
 16 17  2  0
 16 36  1  0
 17 23  1  0
 17 18  1  0
 18 19  2  0
 18 20  1  0
 19 37  1  0
 20 21  2  0
 21 22  1  0
 21 23  1  0
 22 38  1  0
 22 39  1  0
 22 40  1  0
 23 24  1  0
 24 41  1  0
 24 42  1  0
 24 43  1  0
M  END
>  <i_m_ct_stereo_status>  (121) 
1

>  <s_m_source_file>  (121) 
/var/tmp/pbs.5076255.sched01/tmpe2rv0q7i/42k21vmx8r.sdf

>  <i_m_source_file_index>  (121) 
13

>  <i_lp_mmshare_version>  (121) 
48012

>  <i_f3d_flags>  (121) 
0

>  <s_epik_input>  (121) 
W0NIM11bQ0gyXW4xbm5jKG4xKVtDSDJdL049YzJcW25IXW5bY0hdbjItYyhbY0hdW2NIXTMpW2NIXWMoYzM0KW5jKFtDSDNdKW40W0NIM10=

>  <s_epik_cmdline>  (121) 
J2VwaWtfcHl0aG9uJywgJy1waHQnLCAnMi4wJywgJy1waCcsICc3LjAnLCAnLXRuJywgJzgnLCAnLW1hJywgJzIwMCcsICctaW1hZScsICc8aW5maWxlLm1hZT4nLCAnLW9tYWUnLCAnPG91dGZpbGUubWFlPic=

>  <r_lp_tautomer_probability>  (121) 
0.999997

>  <r_epik_Ionization_Penalty>  (121) 
0.0489855

>  <r_epik_Ionization_Penalty_Charging>  (121) 
0

>  <r_epik_Ionization_Penalty_Neutral>  (121) 
0.0489855

>  <r_epik_State_Penalty>  (121) 
0.039748

>  <r_epik_Charging_Adjusted_Penalty>  (121) 
0.039748

>  <i_epik_Tot_Q>  (121) 
0

>  <i_epik_Tot_abs_Q>  (121) 
0

>  <s_lp_Force_Field>  (121) 
OPLS3e

>  <r_lp_Energy>  (121) 
20.182

>  <b_lp_Chiralities_Consistent>  (121) 
1

>  <s_lp_Variant>  (121) 
39:0-1

>  <s_i_glide_gridfile>  (121) 
pfpi4k_grid

>  <i_i_glide_lignum>  (121) 
13

>  <i_i_glide_rotatable_bonds>  (121) 
5

>  <r_i_docking_score>  (121) 
-3.00943

>  <r_i_glide_ligand_efficiency>  (121) 
-0.120377

>  <r_i_glide_ligand_efficiency_sa>  (121) 
-0.351985

>  <r_i_glide_ligand_efficiency_ln>  (121) 
-0.713325

>  <r_i_glide_gscore>  (121) 
-3.00943

>  <r_i_glide_lipo>  (121) 
-0.241641

>  <r_i_glide_hbond>  (121) 
-0.0452103

>  <r_i_glide_metal>  (121) 
-0

>  <r_i_glide_rewards>  (121) 
-1.40494

>  <r_i_glide_evdw>  (121) 
-29.3185

>  <r_i_glide_ecoul>  (121) 
-2.53791

>  <r_i_glide_erotb>  (121) 
0.660682

>  <r_i_glide_esite>  (121) 
-0.131715

>  <r_i_glide_emodel>  (121) 
-37.7599

>  <r_i_glide_energy>  (121) 
-31.8564

>  <r_i_glide_einternal>  (121) 
2.29966

>  <r_i_glide_intrahb_reward>  (121) 
-0

>  <i_i_glide_confnum>  (121) 
4

>  <i_i_glide_posenum>  (121) 
2

>  <r_i_glide_eff_state_penalty>  (121) 
0

>  <ligand_id>  (121) 
39

>  <original_smiles>  (121) 
CCn1nnc(CN=c2[nH]ncn2-c2ccc3c(c2)nc(C)n3C)n1

>  <smiles>  (121) 
[H]c1c(-n2c([H])nnc2N([H])C([H])([H])c2nnn(C([H])([H])C([H])([H])[H])n2)c([H])c2nc(C([H])([H])[H])n(C([H])([H])[H])c2c1[H]

$$$$
39:0:2
     RDKit          3D

 43 46  0  0  1  0  0  0  0  0999 V2000
    4.9359   -6.5188    0.3069 C   0  0  0  0  0  0  0  0  0  0  0  0
    3.9059   -5.3816    0.3132 C   0  0  0  0  0  0  0  0  0  0  0  0
    2.7295   -5.7429    1.0793 N   0  0  0  0  0  0  0  0  0  0  0  0
    1.5933   -6.2212    0.5209 N   0  0  0  0  0  0  0  0  0  0  0  0
    0.7973   -6.4848    1.5034 N   0  0  0  0  0  0  0  0  0  0  0  0
    1.4866   -6.1495    2.6356 C   0  0  0  0  0  0  0  0  0  0  0  0
    0.9308   -6.2907    4.0063 C   0  0  0  0  0  0  0  0  0  0  0  0
    0.6060   -5.0269    4.6451 N   0  0  0  0  0  0  0  0  0  0  0  0
    0.1365   -4.8075    5.9290 C   0  0  0  0  0  0  0  0  0  0  0  0
   -0.0005   -5.7607    6.8592 N   0  0  0  0  0  0  0  0  0  0  0  0
   -0.5598   -5.1339    7.9668 N   0  0  0  0  0  0  0  0  0  0  0  0
   -0.6929   -3.8553    7.6094 C   0  0  0  0  0  0  0  0  0  0  0  0
   -0.2755   -3.6035    6.3645 N   0  0  0  0  0  0  0  0  0  0  0  0
   -0.3330   -2.3564    5.6981 C   0  0  0  0  0  0  0  0  0  0  0  0
   -1.5540   -1.6413    5.6480 C   0  0  0  0  0  0  0  0  0  0  0  0
   -1.6104   -0.3833    5.0176 C   0  0  0  0  0  0  0  0  0  0  0  0
   -0.4495    0.1541    4.4293 C   0  0  0  0  0  0  0  0  0  0  0  0
    0.7898   -0.5451    4.4672 C   0  0  0  0  0  0  0  0  0  0  0  0
    0.8279   -1.8005    5.1127 C   0  0  0  0  0  0  0  0  0  0  0  0
    1.7878    0.1666    3.8355 N   0  0  0  0  0  0  0  0  0  0  0  0
    1.1455    1.2607    3.4208 C   0  0  0  0  0  0  0  0  0  0  0  0
    1.8511    2.3407    2.6670 C   0  0  0  0  0  0  0  0  0  0  0  0
   -0.1719    1.3269    3.7334 N   0  0  0  0  0  0  0  0  0  0  0  0
   -1.1265    2.3816    3.4285 C   0  0  0  0  0  0  0  0  0  0  0  0
    2.6940   -5.6620    2.4222 N   0  0  0  0  0  0  0  0  0  0  0  0
    0.7032   -4.2085    4.0625 H   0  0  0  0  0  0  0  0  0  0  0  0
    5.8131   -6.2257   -0.2669 H   0  0  0  0  0  0  0  0  0  0  0  0
    4.5196   -7.4197   -0.1431 H   0  0  0  0  0  0  0  0  0  0  0  0
    5.2591   -6.7610    1.3190 H   0  0  0  0  0  0  0  0  0  0  0  0
    4.3459   -4.4828    0.7530 H   0  0  0  0  0  0  0  0  0  0  0  0
    3.6088   -5.1177   -0.7008 H   0  0  0  0  0  0  0  0  0  0  0  0
    0.0168   -6.8864    3.9550 H   0  0  0  0  0  0  0  0  0  0  0  0
    1.6413   -6.8437    4.6264 H   0  0  0  0  0  0  0  0  0  0  0  0
   -1.1062   -3.1023    8.2604 H   0  0  0  0  0  0  0  0  0  0  0  0
   -2.4579   -2.0672    6.0602 H   0  0  0  0  0  0  0  0  0  0  0  0
   -2.5386    0.1607    4.9510 H   0  0  0  0  0  0  0  0  0  0  0  0
    1.7668   -2.3266    5.1673 H   0  0  0  0  0  0  0  0  0  0  0  0
    2.9024    2.0710    2.5439 H   0  0  0  0  0  0  0  0  0  0  0  0
    1.7982    3.2855    3.2132 H   0  0  0  0  0  0  0  0  0  0  0  0
    1.4049    2.4670    1.6781 H   0  0  0  0  0  0  0  0  0  0  0  0
   -0.6691    3.1947    2.8664 H   0  0  0  0  0  0  0  0  0  0  0  0
   -1.5273    2.7838    4.3564 H   0  0  0  0  0  0  0  0  0  0  0  0
   -1.9477    1.9703    2.8445 H   0  0  0  0  0  0  0  0  0  0  0  0
  1  2  1  0
  1 27  1  0
  1 28  1  0
  1 29  1  0
  2  3  1  0
  2 30  1  0
  2 31  1  0
  3 25  1  0
  3  4  1  0
  4  5  2  0
  5  6  1  0
  6  7  1  0
  6 25  2  0
  7 32  1  0
  7 33  1  0
  7  8  1  0
  8  9  1  0
  8 26  1  0
  9 10  2  0
  9 13  1  0
 10 11  1  0
 11 12  2  0
 12 34  1  0
 12 13  1  0
 13 14  1  0
 14 19  1  0
 14 15  2  0
 15 16  1  0
 15 35  1  0
 16 17  2  0
 16 36  1  0
 17 23  1  0
 17 18  1  0
 18 19  2  0
 18 20  1  0
 19 37  1  0
 20 21  2  0
 21 22  1  0
 21 23  1  0
 22 38  1  0
 22 39  1  0
 22 40  1  0
 23 24  1  0
 24 41  1  0
 24 42  1  0
 24 43  1  0
M  END
>  <i_m_ct_stereo_status>  (122) 
1

>  <s_m_source_file>  (122) 
/var/tmp/pbs.5076255.sched01/tmpe2rv0q7i/42k21vmx8r.sdf

>  <i_m_source_file_index>  (122) 
13

>  <i_lp_mmshare_version>  (122) 
48012

>  <i_f3d_flags>  (122) 
0

>  <s_epik_input>  (122) 
W0NIM11bQ0gyXW4xbm5jKG4xKVtDSDJdL049YzJcW25IXW5bY0hdbjItYyhbY0hdW2NIXTMpW2NIXWMoYzM0KW5jKFtDSDNdKW40W0NIM10=

>  <s_epik_cmdline>  (122) 
J2VwaWtfcHl0aG9uJywgJy1waHQnLCAnMi4wJywgJy1waCcsICc3LjAnLCAnLXRuJywgJzgnLCAnLW1hJywgJzIwMCcsICctaW1hZScsICc8aW5maWxlLm1hZT4nLCAnLW9tYWUnLCAnPG91dGZpbGUubWFlPic=

>  <r_lp_tautomer_probability>  (122) 
0.999997

>  <r_epik_Ionization_Penalty>  (122) 
0.0489855

>  <r_epik_Ionization_Penalty_Charging>  (122) 
0

>  <r_epik_Ionization_Penalty_Neutral>  (122) 
0.0489855

>  <r_epik_State_Penalty>  (122) 
0.039748

>  <r_epik_Charging_Adjusted_Penalty>  (122) 
0.039748

>  <i_epik_Tot_Q>  (122) 
0

>  <i_epik_Tot_abs_Q>  (122) 
0

>  <s_lp_Force_Field>  (122) 
OPLS3e

>  <r_lp_Energy>  (122) 
20.182

>  <b_lp_Chiralities_Consistent>  (122) 
1

>  <s_lp_Variant>  (122) 
39:0-1

>  <s_i_glide_gridfile>  (122) 
pfpi4k_grid

>  <i_i_glide_lignum>  (122) 
13

>  <i_i_glide_rotatable_bonds>  (122) 
5

>  <r_i_docking_score>  (122) 
-2.68828

>  <r_i_glide_ligand_efficiency>  (122) 
-0.107531

>  <r_i_glide_ligand_efficiency_sa>  (122) 
-0.314423

>  <r_i_glide_ligand_efficiency_ln>  (122) 
-0.637203

>  <r_i_glide_gscore>  (122) 
-2.68828

>  <r_i_glide_lipo>  (122) 
-0.133567

>  <r_i_glide_hbond>  (122) 
0

>  <r_i_glide_metal>  (122) 
-0

>  <r_i_glide_rewards>  (122) 
-1.10202

>  <r_i_glide_evdw>  (122) 
-26.2391

>  <r_i_glide_ecoul>  (122) 
-3.15251

>  <r_i_glide_erotb>  (122) 
0.660682

>  <r_i_glide_esite>  (122) 
-0.328543

>  <r_i_glide_emodel>  (122) 
-35.823

>  <r_i_glide_energy>  (122) 
-29.3916

>  <r_i_glide_einternal>  (122) 
0.700147

>  <r_i_glide_intrahb_reward>  (122) 
-0

>  <i_i_glide_confnum>  (122) 
2

>  <i_i_glide_posenum>  (122) 
7

>  <r_i_glide_eff_state_penalty>  (122) 
0

>  <ligand_id>  (122) 
39

>  <original_smiles>  (122) 
CCn1nnc(CN=c2[nH]ncn2-c2ccc3c(c2)nc(C)n3C)n1

>  <smiles>  (122) 
[H]c1c(-n2c([H])nnc2N([H])C([H])([H])c2nnn(C([H])([H])C([H])([H])[H])n2)c([H])c2nc(C([H])([H])[H])n(C([H])([H])[H])c2c1[H]

$$$$
39:1:0
     RDKit          3D

 44 47  0  0  1  0  0  0  0  0999 V2000
   -1.0736    2.0602   10.1077 C   0  0  0  0  0  0  0  0  0  0  0  0
   -0.6181    3.0877    9.0618 C   0  0  0  0  0  0  0  0  0  0  0  0
   -1.2843    2.9288    7.7804 N   0  0  0  0  0  0  0  0  0  0  0  0
   -2.6130    3.0792    7.6151 N   0  0  0  0  0  0  0  0  0  0  0  0
   -2.8314    2.9575    6.3442 N   0  0  0  0  0  0  0  0  0  0  0  0
   -1.6176    2.7032    5.7779 C   0  0  0  0  0  0  0  0  0  0  0  0
   -1.4087    2.4179    4.3209 C   0  0  0  0  0  0  0  0  0  0  0  0
   -0.6253    1.2151    4.0743 N   0  0  0  0  0  0  0  0  0  0  0  0
   -0.7577   -0.0481    4.6318 C   0  0  0  0  0  0  0  0  0  0  0  0
   -1.7969   -0.4390    5.3887 N   0  0  0  0  0  0  0  0  0  0  0  0
   -1.5200   -1.7414    5.7789 N   0  0  0  0  0  0  0  0  0  0  0  0
   -0.3292   -2.0216    5.2446 C   0  0  0  0  0  0  0  0  0  0  0  0
    0.1716   -1.0141    4.5171 N   0  0  0  0  0  0  0  0  0  0  0  0
    1.4171   -1.0181    3.8430 C   0  0  0  0  0  0  0  0  0  0  0  0
    2.6239   -1.0888    4.5801 C   0  0  0  0  0  0  0  0  0  0  0  0
    3.8853   -1.1357    3.9400 C   0  0  0  0  0  0  0  0  0  0  0  0
    3.8823   -1.1166    2.5418 C   0  0  0  0  0  0  0  0  0  0  0  0
    2.6808   -1.0695    1.8157 C   0  0  0  0  0  0  0  0  0  0  0  0
    1.4404   -1.0151    2.4309 C   0  0  0  0  0  0  0  0  0  0  0  0
    3.0152   -1.0884    0.4634 N   0  0  0  0  0  0  0  0  0  0  0  0
    4.3663   -1.1155    0.3194 C   0  0  0  0  0  0  0  0  0  0  0  0
    5.1191   -1.1279   -0.9617 C   0  0  0  0  0  0  0  0  0  0  0  0
    4.8922   -1.1327    1.5768 N   0  0  0  0  0  0  0  0  0  0  0  0
    6.2905   -1.1850    1.9927 C   0  0  0  0  0  0  0  0  0  0  0  0
   -0.6118    2.6924    6.6371 N   0  0  0  0  0  0  0  0  0  0  0  0
    0.2206    1.3783    3.5477 H   0  0  0  0  0  0  0  0  0  0  0  0
   -0.5438    2.2084   11.0475 H   0  0  0  0  0  0  0  0  0  0  0  0
   -0.8744    1.0432    9.7743 H   0  0  0  0  0  0  0  0  0  0  0  0
   -2.1375    2.1496   10.3234 H   0  0  0  0  0  0  0  0  0  0  0  0
   -0.8137    4.0993    9.4196 H   0  0  0  0  0  0  0  0  0  0  0  0
    0.4601    3.0067    8.9099 H   0  0  0  0  0  0  0  0  0  0  0  0
   -2.3811    2.2911    3.8451 H   0  0  0  0  0  0  0  0  0  0  0  0
   -0.9272    3.2825    3.8630 H   0  0  0  0  0  0  0  0  0  0  0  0
    0.1591   -2.9722    5.4003 H   0  0  0  0  0  0  0  0  0  0  0  0
    2.5680   -1.1062    5.6606 H   0  0  0  0  0  0  0  0  0  0  0  0
    4.8006   -1.1806    4.5115 H   0  0  0  0  0  0  0  0  0  0  0  0
    0.5405   -0.9786    1.8406 H   0  0  0  0  0  0  0  0  0  0  0  0
    5.7903   -0.2660   -0.9928 H   0  0  0  0  0  0  0  0  0  0  0  0
    4.4405   -1.0828   -1.8208 H   0  0  0  0  0  0  0  0  0  0  0  0
    5.7314   -2.0308   -1.0280 H   0  0  0  0  0  0  0  0  0  0  0  0
    6.9401   -1.2615    1.1185 H   0  0  0  0  0  0  0  0  0  0  0  0
    6.4376   -2.0773    2.5963 H   0  0  0  0  0  0  0  0  0  0  0  0
    6.5502   -0.2822    2.5489 H   0  0  0  0  0  0  0  0  0  0  0  0
    2.2996   -1.0613   -0.2744 H   0  0  0  0  0  0  0  0  0  0  0  0
  1  2  1  0
  1 27  1  0
  1 28  1  0
  1 29  1  0
  2  3  1  0
  2 30  1  0
  2 31  1  0
  3 25  1  0
  3  4  1  0
  4  5  2  0
  5  6  1  0
  6  7  1  0
  6 25  2  0
  7 32  1  0
  7 33  1  0
  7  8  1  0
  8  9  1  0
  8 26  1  0
  9 10  2  0
  9 13  1  0
 10 11  1  0
 11 12  2  0
 12 34  1  0
 12 13  1  0
 13 14  1  0
 14 19  1  0
 14 15  2  0
 15 16  1  0
 15 35  1  0
 16 17  2  0
 16 36  1  0
 17 23  1  0
 17 18  1  0
 18 19  2  0
 18 20  1  0
 19 37  1  0
 20 21  2  0
 20 44  1  0
 21 22  1  0
 21 23  1  0
 22 38  1  0
 22 39  1  0
 22 40  1  0
 23 24  1  0
 24 41  1  0
 24 42  1  0
 24 43  1  0
M  CHG  1  20   1
M  END
>  <i_m_ct_stereo_status>  (123) 
1

>  <s_m_source_file>  (123) 
/var/tmp/pbs.5076255.sched01/tmpe2rv0q7i/42k21vmx8r.sdf

>  <i_m_source_file_index>  (123) 
14

>  <i_lp_mmshare_version>  (123) 
48012

>  <i_f3d_flags>  (123) 
0

>  <s_epik_input>  (123) 
W0NIM11bQ0gyXW4xbm5jKG4xKVtDSDJdL049YzJcW25IXW5bY0hdbjItYyhbY0hdW2NIXTMpW2NIXWMoYzM0KW5jKFtDSDNdKW40W0NIM10=

>  <s_epik_cmdline>  (123) 
J2VwaWtfcHl0aG9uJywgJy1waHQnLCAnMi4wJywgJy1waCcsICc3LjAnLCAnLXRuJywgJzgnLCAnLW1hJywgJzIwMCcsICctaW1hZScsICc8aW5maWxlLm1hZT4nLCAnLW9tYWUnLCAnPG91dGZpbGUubWFlPic=

>  <r_epik_Ionization_Penalty>  (123) 
2.01637

>  <r_epik_Ionization_Penalty_Charging>  (123) 
2.01179

>  <r_epik_Ionization_Penalty_Neutral>  (123) 
0.00458242

>  <r_epik_State_Penalty>  (123) 
1.62725

>  <r_epik_Charging_Adjusted_Penalty>  (123) 
3.63904

>  <i_epik_Tot_Q>  (123) 
1

>  <i_epik_Tot_abs_Q>  (123) 
1

>  <s_lp_Force_Field>  (123) 
OPLS3e

>  <r_lp_Energy>  (123) 
24.0459

>  <b_lp_Chiralities_Consistent>  (123) 
1

>  <s_lp_Variant>  (123) 
39:0-2

>  <s_i_glide_gridfile>  (123) 
pfpi4k_grid

>  <i_i_glide_lignum>  (123) 
14

>  <i_i_glide_rotatable_bonds>  (123) 
5

>  <r_i_docking_score>  (123) 
-4.17417

>  <r_i_glide_ligand_efficiency>  (123) 
-0.166967

>  <r_i_glide_ligand_efficiency_sa>  (123) 
-0.488214

>  <r_i_glide_ligand_efficiency_ln>  (123) 
-0.989403

>  <r_i_glide_gscore>  (123) 
-4.17417

>  <r_i_glide_lipo>  (123) 
-0.125223

>  <r_i_glide_hbond>  (123) 
-0.2

>  <r_i_glide_metal>  (123) 
-0

>  <r_i_glide_rewards>  (123) 
-1.272

>  <r_i_glide_evdw>  (123) 
-25.1258

>  <r_i_glide_ecoul>  (123) 
-11.3444

>  <r_i_glide_erotb>  (123) 
0.657209

>  <r_i_glide_esite>  (123) 
-0.276194

>  <r_i_glide_emodel>  (123) 
-46.8167

>  <r_i_glide_energy>  (123) 
-36.4703

>  <r_i_glide_einternal>  (123) 
1.4312

>  <r_i_glide_intrahb_reward>  (123) 
-0

>  <i_i_glide_confnum>  (123) 
3

>  <i_i_glide_posenum>  (123) 
2

>  <r_i_glide_eff_state_penalty>  (123) 
0

>  <ligand_id>  (123) 
39

>  <original_smiles>  (123) 
CCn1nnc(CN=c2[nH]ncn2-c2ccc3c(c2)nc(C)n3C)n1

>  <smiles>  (123) 
[H]c1c(-n2c([H])nnc2N([H])C([H])([H])c2nnn(C([H])([H])C([H])([H])[H])n2)c([H])c2c(c1[H])n(C([H])([H])[H])c(C([H])([H])[H])[n+]2[H]

$$$$
39:1:1
     RDKit          3D

 44 47  0  0  1  0  0  0  0  0999 V2000
    3.6262   -1.8527   -3.8840 C   0  0  0  0  0  0  0  0  0  0  0  0
    3.6492   -0.9777   -2.6198 C   0  0  0  0  0  0  0  0  0  0  0  0
    4.5479   -1.4873   -1.5973 N   0  0  0  0  0  0  0  0  0  0  0  0
    5.8160   -1.8666   -1.8621 N   0  0  0  0  0  0  0  0  0  0  0  0
    6.3480   -2.1740   -0.7247 N   0  0  0  0  0  0  0  0  0  0  0  0
    5.3707   -1.9680    0.2042 C   0  0  0  0  0  0  0  0  0  0  0  0
    5.5419   -2.2290    1.6615 C   0  0  0  0  0  0  0  0  0  0  0  0
    5.1058   -3.5588    2.0538 N   0  0  0  0  0  0  0  0  0  0  0  0
    5.7095   -4.7848    1.8177 C   0  0  0  0  0  0  0  0  0  0  0  0
    6.9582   -4.9345    1.3556 N   0  0  0  0  0  0  0  0  0  0  0  0
    7.1649   -6.3048    1.2593 N   0  0  0  0  0  0  0  0  0  0  0  0
    6.0189   -6.8630    1.6603 C   0  0  0  0  0  0  0  0  0  0  0  0
    5.0924   -5.9661    2.0240 N   0  0  0  0  0  0  0  0  0  0  0  0
    3.7836   -6.2508    2.5039 C   0  0  0  0  0  0  0  0  0  0  0  0
    3.3161   -5.6514    3.6968 C   0  0  0  0  0  0  0  0  0  0  0  0
    2.0258   -5.9206    4.2145 C   0  0  0  0  0  0  0  0  0  0  0  0
    1.2353   -6.8155    3.4929 C   0  0  0  0  0  0  0  0  0  0  0  0
    1.6980   -7.4274    2.3100 C   0  0  0  0  0  0  0  0  0  0  0  0
    2.9703   -7.1723    1.7975 C   0  0  0  0  0  0  0  0  0  0  0  0
    0.6711   -8.2514    1.8478 N   0  0  0  0  0  0  0  0  0  0  0  0
   -0.3927   -8.1824    2.6936 C   0  0  0  0  0  0  0  0  0  0  0  0
   -1.6744   -8.9262    2.5514 C   0  0  0  0  0  0  0  0  0  0  0  0
   -0.0629   -7.3065    3.6838 N   0  0  0  0  0  0  0  0  0  0  0  0
   -0.8411   -6.8841    4.8501 C   0  0  0  0  0  0  0  0  0  0  0  0
    4.2282   -1.5171   -0.2876 N   0  0  0  0  0  0  0  0  0  0  0  0
    4.1431   -3.5932    2.3501 H   0  0  0  0  0  0  0  0  0  0  0  0
    2.9308   -1.4469   -4.6174 H   0  0  0  0  0  0  0  0  0  0  0  0
    3.3088   -2.8670   -3.6500 H   0  0  0  0  0  0  0  0  0  0  0  0
    4.6080   -1.9004   -4.3480 H   0  0  0  0  0  0  0  0  0  0  0  0
    3.9666    0.0369   -2.8746 H   0  0  0  0  0  0  0  0  0  0  0  0
    2.6424   -0.9075   -2.2047 H   0  0  0  0  0  0  0  0  0  0  0  0
    6.6014   -2.1288    1.9090 H   0  0  0  0  0  0  0  0  0  0  0  0
    5.0024   -1.4652    2.2262 H   0  0  0  0  0  0  0  0  0  0  0  0
    5.8785   -7.9344    1.6834 H   0  0  0  0  0  0  0  0  0  0  0  0
    3.9716   -4.9864    4.2375 H   0  0  0  0  0  0  0  0  0  0  0  0
    1.6827   -5.4548    5.1252 H   0  0  0  0  0  0  0  0  0  0  0  0
    3.3199   -7.6561    0.9000 H   0  0  0  0  0  0  0  0  0  0  0  0
   -1.8330   -9.5484    3.4284 H   0  0  0  0  0  0  0  0  0  0  0  0
   -1.6575   -9.5710    1.6734 H   0  0  0  0  0  0  0  0  0  0  0  0
   -2.5056   -8.2254    2.4719 H   0  0  0  0  0  0  0  0  0  0  0  0
   -1.8381   -7.3252    4.7974 H   0  0  0  0  0  0  0  0  0  0  0  0
   -0.9383   -5.7992    4.8603 H   0  0  0  0  0  0  0  0  0  0  0  0
   -0.3533   -7.2361    5.7603 H   0  0  0  0  0  0  0  0  0  0  0  0
    0.6696   -8.8657    1.0284 H   0  0  0  0  0  0  0  0  0  0  0  0
  1  2  1  0
  1 27  1  0
  1 28  1  0
  1 29  1  0
  2  3  1  0
  2 30  1  0
  2 31  1  0
  3 25  1  0
  3  4  1  0
  4  5  2  0
  5  6  1  0
  6  7  1  0
  6 25  2  0
  7 32  1  0
  7 33  1  0
  7  8  1  0
  8  9  1  0
  8 26  1  0
  9 10  2  0
  9 13  1  0
 10 11  1  0
 11 12  2  0
 12 34  1  0
 12 13  1  0
 13 14  1  0
 14 19  1  0
 14 15  2  0
 15 16  1  0
 15 35  1  0
 16 17  2  0
 16 36  1  0
 17 23  1  0
 17 18  1  0
 18 19  2  0
 18 20  1  0
 19 37  1  0
 20 21  2  0
 20 44  1  0
 21 22  1  0
 21 23  1  0
 22 38  1  0
 22 39  1  0
 22 40  1  0
 23 24  1  0
 24 41  1  0
 24 42  1  0
 24 43  1  0
M  CHG  1  20   1
M  END
>  <i_m_ct_stereo_status>  (124) 
1

>  <s_m_source_file>  (124) 
/var/tmp/pbs.5076255.sched01/tmpe2rv0q7i/42k21vmx8r.sdf

>  <i_m_source_file_index>  (124) 
14

>  <i_lp_mmshare_version>  (124) 
48012

>  <i_f3d_flags>  (124) 
0

>  <s_epik_input>  (124) 
W0NIM11bQ0gyXW4xbm5jKG4xKVtDSDJdL049YzJcW25IXW5bY0hdbjItYyhbY0hdW2NIXTMpW2NIXWMoYzM0KW5jKFtDSDNdKW40W0NIM10=

>  <s_epik_cmdline>  (124) 
J2VwaWtfcHl0aG9uJywgJy1waHQnLCAnMi4wJywgJy1waCcsICc3LjAnLCAnLXRuJywgJzgnLCAnLW1hJywgJzIwMCcsICctaW1hZScsICc8aW5maWxlLm1hZT4nLCAnLW9tYWUnLCAnPG91dGZpbGUubWFlPic=

>  <r_epik_Ionization_Penalty>  (124) 
2.01637

>  <r_epik_Ionization_Penalty_Charging>  (124) 
2.01179

>  <r_epik_Ionization_Penalty_Neutral>  (124) 
0.00458242

>  <r_epik_State_Penalty>  (124) 
1.62725

>  <r_epik_Charging_Adjusted_Penalty>  (124) 
3.63904

>  <i_epik_Tot_Q>  (124) 
1

>  <i_epik_Tot_abs_Q>  (124) 
1

>  <s_lp_Force_Field>  (124) 
OPLS3e

>  <r_lp_Energy>  (124) 
24.0459

>  <b_lp_Chiralities_Consistent>  (124) 
1

>  <s_lp_Variant>  (124) 
39:0-2

>  <s_i_glide_gridfile>  (124) 
pfpi4k_grid

>  <i_i_glide_lignum>  (124) 
14

>  <i_i_glide_rotatable_bonds>  (124) 
5

>  <r_i_docking_score>  (124) 
-3.77675

>  <r_i_glide_ligand_efficiency>  (124) 
-0.15107

>  <r_i_glide_ligand_efficiency_sa>  (124) 
-0.441731

>  <r_i_glide_ligand_efficiency_ln>  (124) 
-0.895203

>  <r_i_glide_gscore>  (124) 
-3.77675

>  <r_i_glide_lipo>  (124) 
-0.35531

>  <r_i_glide_hbond>  (124) 
0

>  <r_i_glide_metal>  (124) 
-0

>  <r_i_glide_rewards>  (124) 
-1.33431

>  <r_i_glide_evdw>  (124) 
-30.269

>  <r_i_glide_ecoul>  (124) 
-6.2928

>  <r_i_glide_erotb>  (124) 
0.657209

>  <r_i_glide_esite>  (124) 
-0.286967

>  <r_i_glide_emodel>  (124) 
-46.1753

>  <r_i_glide_energy>  (124) 
-36.5618

>  <r_i_glide_einternal>  (124) 
1.0643

>  <r_i_glide_intrahb_reward>  (124) 
-0

>  <i_i_glide_confnum>  (124) 
4

>  <i_i_glide_posenum>  (124) 
14

>  <r_i_glide_eff_state_penalty>  (124) 
0

>  <ligand_id>  (124) 
39

>  <original_smiles>  (124) 
CCn1nnc(CN=c2[nH]ncn2-c2ccc3c(c2)nc(C)n3C)n1

>  <smiles>  (124) 
[H]c1c(-n2c([H])nnc2N([H])C([H])([H])c2nnn(C([H])([H])C([H])([H])[H])n2)c([H])c2c(c1[H])n(C([H])([H])[H])c(C([H])([H])[H])[n+]2[H]

$$$$
39:1:2
     RDKit          3D

 44 47  0  0  1  0  0  0  0  0999 V2000
    4.6194   -4.4593   -4.3037 C   0  0  0  0  0  0  0  0  0  0  0  0
    3.4365   -3.5245   -3.9811 C   0  0  0  0  0  0  0  0  0  0  0  0
    3.7445   -2.5849   -2.9200 N   0  0  0  0  0  0  0  0  0  0  0  0
    4.4973   -1.4807   -3.1112 N   0  0  0  0  0  0  0  0  0  0  0  0
    4.5605   -0.8895   -1.9628 N   0  0  0  0  0  0  0  0  0  0  0  0
    3.8103   -1.6527   -1.1123 C   0  0  0  0  0  0  0  0  0  0  0  0
    3.5721   -1.3208    0.3309 C   0  0  0  0  0  0  0  0  0  0  0  0
    3.6376   -2.4840    1.2071 N   0  0  0  0  0  0  0  0  0  0  0  0
    4.6420   -3.4363    1.2961 C   0  0  0  0  0  0  0  0  0  0  0  0
    5.9038   -3.2528    0.8751 N   0  0  0  0  0  0  0  0  0  0  0  0
    6.5625   -4.4556    1.1123 N   0  0  0  0  0  0  0  0  0  0  0  0
    5.6373   -5.2619    1.6446 C   0  0  0  0  0  0  0  0  0  0  0  0
    4.4389   -4.6755    1.7798 N   0  0  0  0  0  0  0  0  0  0  0  0
    3.2613   -5.2781    2.2925 C   0  0  0  0  0  0  0  0  0  0  0  0
    2.7699   -4.8764    3.5569 C   0  0  0  0  0  0  0  0  0  0  0  0
    1.6208   -5.4707    4.1296 C   0  0  0  0  0  0  0  0  0  0  0  0
    0.9896   -6.4690    3.3857 C   0  0  0  0  0  0  0  0  0  0  0  0
    1.4823   -6.8794    2.1273 C   0  0  0  0  0  0  0  0  0  0  0  0
    2.6180   -6.3048    1.5598 C   0  0  0  0  0  0  0  0  0  0  0  0
    0.6263   -7.8928    1.6776 N   0  0  0  0  0  0  0  0  0  0  0  0
   -0.3602   -8.1140    2.5843 C   0  0  0  0  0  0  0  0  0  0  0  0
   -1.4543   -9.1205    2.4625 C   0  0  0  0  0  0  0  0  0  0  0  0
   -0.1495   -7.2490    3.6152 N   0  0  0  0  0  0  0  0  0  0  0  0
   -0.9025   -7.0957    4.8609 C   0  0  0  0  0  0  0  0  0  0  0  0
    3.3037   -2.7457   -1.6612 N   0  0  0  0  0  0  0  0  0  0  0  0
    2.7374   -2.7679    1.5595 H   0  0  0  0  0  0  0  0  0  0  0  0
    4.3695   -5.1852   -5.0735 H   0  0  0  0  0  0  0  0  0  0  0  0
    4.9210   -5.0284   -3.4271 H   0  0  0  0  0  0  0  0  0  0  0  0
    5.4781   -3.8987   -4.6498 H   0  0  0  0  0  0  0  0  0  0  0  0
    3.1496   -2.9499   -4.8591 H   0  0  0  0  0  0  0  0  0  0  0  0
    2.5545   -4.1014   -3.6947 H   0  0  0  0  0  0  0  0  0  0  0  0
    4.3446   -0.6205    0.6468 H   0  0  0  0  0  0  0  0  0  0  0  0
    2.6106   -0.8150    0.4318 H   0  0  0  0  0  0  0  0  0  0  0  0
    5.8621   -6.2777    1.9351 H   0  0  0  0  0  0  0  0  0  0  0  0
    3.3087   -4.1114    4.0983 H   0  0  0  0  0  0  0  0  0  0  0  0
    1.2556   -5.1631    5.1002 H   0  0  0  0  0  0  0  0  0  0  0  0
    3.0071   -6.6303    0.6048 H   0  0  0  0  0  0  0  0  0  0  0  0
   -1.3863   -9.8422    3.2767 H   0  0  0  0  0  0  0  0  0  0  0  0
   -1.3834   -9.6750    1.5247 H   0  0  0  0  0  0  0  0  0  0  0  0
   -2.4219   -8.6162    2.5061 H   0  0  0  0  0  0  0  0  0  0  0  0
   -1.7749   -7.7511    4.8354 H   0  0  0  0  0  0  0  0  0  0  0  0
   -1.2398   -6.0655    4.9693 H   0  0  0  0  0  0  0  0  0  0  0  0
   -0.2773   -7.3936    5.7041 H   0  0  0  0  0  0  0  0  0  0  0  0
    0.6941   -8.4374    0.8165 H   0  0  0  0  0  0  0  0  0  0  0  0
  1  2  1  0
  1 27  1  0
  1 28  1  0
  1 29  1  0
  2  3  1  0
  2 30  1  0
  2 31  1  0
  3 25  1  0
  3  4  1  0
  4  5  2  0
  5  6  1  0
  6  7  1  0
  6 25  2  0
  7 32  1  0
  7 33  1  0
  7  8  1  0
  8  9  1  0
  8 26  1  0
  9 10  2  0
  9 13  1  0
 10 11  1  0
 11 12  2  0
 12 34  1  0
 12 13  1  0
 13 14  1  0
 14 19  1  0
 14 15  2  0
 15 16  1  0
 15 35  1  0
 16 17  2  0
 16 36  1  0
 17 23  1  0
 17 18  1  0
 18 19  2  0
 18 20  1  0
 19 37  1  0
 20 21  2  0
 20 44  1  0
 21 22  1  0
 21 23  1  0
 22 38  1  0
 22 39  1  0
 22 40  1  0
 23 24  1  0
 24 41  1  0
 24 42  1  0
 24 43  1  0
M  CHG  1  20   1
M  END
>  <i_m_ct_stereo_status>  (125) 
1

>  <s_m_source_file>  (125) 
/var/tmp/pbs.5076255.sched01/tmpe2rv0q7i/42k21vmx8r.sdf

>  <i_m_source_file_index>  (125) 
14

>  <i_lp_mmshare_version>  (125) 
48012

>  <i_f3d_flags>  (125) 
0

>  <s_epik_input>  (125) 
W0NIM11bQ0gyXW4xbm5jKG4xKVtDSDJdL049YzJcW25IXW5bY0hdbjItYyhbY0hdW2NIXTMpW2NIXWMoYzM0KW5jKFtDSDNdKW40W0NIM10=

>  <s_epik_cmdline>  (125) 
J2VwaWtfcHl0aG9uJywgJy1waHQnLCAnMi4wJywgJy1waCcsICc3LjAnLCAnLXRuJywgJzgnLCAnLW1hJywgJzIwMCcsICctaW1hZScsICc8aW5maWxlLm1hZT4nLCAnLW9tYWUnLCAnPG91dGZpbGUubWFlPic=

>  <r_epik_Ionization_Penalty>  (125) 
2.01637

>  <r_epik_Ionization_Penalty_Charging>  (125) 
2.01179

>  <r_epik_Ionization_Penalty_Neutral>  (125) 
0.00458242

>  <r_epik_State_Penalty>  (125) 
1.62725

>  <r_epik_Charging_Adjusted_Penalty>  (125) 
3.63904

>  <i_epik_Tot_Q>  (125) 
1

>  <i_epik_Tot_abs_Q>  (125) 
1

>  <s_lp_Force_Field>  (125) 
OPLS3e

>  <r_lp_Energy>  (125) 
24.0459

>  <b_lp_Chiralities_Consistent>  (125) 
1

>  <s_lp_Variant>  (125) 
39:0-2

>  <s_i_glide_gridfile>  (125) 
pfpi4k_grid

>  <i_i_glide_lignum>  (125) 
14

>  <i_i_glide_rotatable_bonds>  (125) 
5

>  <r_i_docking_score>  (125) 
-3.62126

>  <r_i_glide_ligand_efficiency>  (125) 
-0.14485

>  <r_i_glide_ligand_efficiency_sa>  (125) 
-0.423545

>  <r_i_glide_ligand_efficiency_ln>  (125) 
-0.858346

>  <r_i_glide_gscore>  (125) 
-3.62126

>  <r_i_glide_lipo>  (125) 
-0.245048

>  <r_i_glide_hbond>  (125) 
0

>  <r_i_glide_metal>  (125) 
-0

>  <r_i_glide_rewards>  (125) 
-1.30198

>  <r_i_glide_evdw>  (125) 
-31.9287

>  <r_i_glide_ecoul>  (125) 
-5.74027

>  <r_i_glide_erotb>  (125) 
0.657209

>  <r_i_glide_esite>  (125) 
-0.273963

>  <r_i_glide_emodel>  (125) 
-46.17

>  <r_i_glide_energy>  (125) 
-37.669

>  <r_i_glide_einternal>  (125) 
2.20875

>  <r_i_glide_intrahb_reward>  (125) 
-0

>  <i_i_glide_confnum>  (125) 
4

>  <i_i_glide_posenum>  (125) 
28

>  <r_i_glide_eff_state_penalty>  (125) 
0

>  <ligand_id>  (125) 
39

>  <original_smiles>  (125) 
CCn1nnc(CN=c2[nH]ncn2-c2ccc3c(c2)nc(C)n3C)n1

>  <smiles>  (125) 
[H]c1c(-n2c([H])nnc2N([H])C([H])([H])c2nnn(C([H])([H])C([H])([H])[H])n2)c([H])c2c(c1[H])n(C([H])([H])[H])c(C([H])([H])[H])[n+]2[H]

$$$$
40:0:0
     RDKit          3D

 70 75  0  0  1  0  0  0  0  0999 V2000
    4.5117   -0.3903    1.0022 C   0  0  0  0  0  0  0  0  0  0  0  0
    4.0075   -1.8508    1.1396 C   0  0  1  0  0  0  0  0  0  0  0  0
    3.2616   -2.2683   -0.1154 C   0  0  0  0  0  0  0  0  0  0  0  0
    3.7623   -2.9164   -1.1771 C   0  0  0  0  0  0  0  0  0  0  0  0
    5.1662   -3.3102   -1.2310 C   0  0  0  0  0  0  0  0  0  0  0  0
    5.6646   -3.8280   -2.2229 O   0  0  0  0  0  0  0  0  0  0  0  0
    6.0502   -3.0342   -0.0104 C   0  0  0  0  0  0  0  0  0  0  0  0
    5.2609   -2.7390    1.2662 C   0  0  0  0  0  0  0  0  0  0  0  0
    5.6866   -3.2386    2.4564 C   0  0  0  0  0  0  0  0  0  0  0  0
    5.0530   -2.8416    3.7348 C   0  0  0  0  0  0  0  0  0  0  0  0
    5.4697   -3.1997    4.8352 O   0  0  0  0  0  0  0  0  0  0  0  0
    3.9043   -1.9653    3.6194 C   0  0  0  0  0  0  0  0  0  0  0  0
    3.5448   -0.9780    4.4411 C   0  0  0  0  0  0  0  0  0  0  0  0
    2.4379   -0.1896    3.7967 C   0  0  2  0  0  0  0  0  0  0  0  0
    1.3858    0.5919    4.6391 C   0  0  1  0  0  0  0  0  0  0  0  0
    2.1381    1.6926    5.4299 C   0  0  0  0  0  0  0  0  0  0  0  0
    1.3590    2.4958    6.4823 C   0  0  0  0  0  0  0  0  0  0  0  0
    0.1692    3.3188    5.9656 C   0  0  1  0  0  0  0  0  0  0  0  0
    0.0387    4.5974    6.8039 C   0  0  0  0  0  0  0  0  0  0  0  0
    0.2309    3.5229    4.4620 C   0  0  0  0  0  0  0  0  0  0  0  0
    0.7783    4.5597    3.6573 N   0  0  0  0  0  0  0  0  0  0  0  0
   -0.6452    2.3494    4.0835 C   0  0  1  0  0  0  0  0  0  0  0  0
   -1.6522    2.7024    2.9847 C   0  0  0  0  0  0  0  0  0  0  0  0
    0.1732    1.0501    3.7080 C   0  0  1  0  0  0  0  0  0  0  0  0
    0.5533    0.9541    2.1927 C   0  0  0  0  0  0  0  0  0  0  0  0
    1.0966   -0.4107    1.7346 C   0  0  0  0  0  0  0  0  0  0  0  0
    1.8466   -1.2067    2.8014 C   0  0  2  0  0  0  0  0  0  0  0  0
    0.8741   -2.1935    3.5332 C   0  0  0  0  0  0  0  0  0  0  0  0
    3.0783   -2.0869    2.3797 C   0  0  1  0  0  0  0  0  0  0  0  0
   -1.1517    2.5683    5.5600 C   0  0  0  0  0  0  0  0  0  0  0  0
   -1.5048    1.2962    6.3338 C   0  0  0  0  0  0  0  0  0  0  0  0
   -2.4384    3.4054    5.7169 C   0  0  0  0  0  0  0  0  0  0  0  0
    5.1500   -0.2882    0.1211 H   0  0  0  0  0  0  0  0  0  0  0  0
    5.1036   -0.0881    1.8718 H   0  0  0  0  0  0  0  0  0  0  0  0
    3.7151    0.3386    0.8838 H   0  0  0  0  0  0  0  0  0  0  0  0
    2.2150   -2.0505   -0.0922 H   0  0  0  0  0  0  0  0  0  0  0  0
    3.1406   -3.1431   -2.0295 H   0  0  0  0  0  0  0  0  0  0  0  0
    6.6919   -3.8991    0.1526 H   0  0  0  0  0  0  0  0  0  0  0  0
    6.6928   -2.1881   -0.2505 H   0  0  0  0  0  0  0  0  0  0  0  0
    6.5692   -3.8636    2.4779 H   0  0  0  0  0  0  0  0  0  0  0  0
    4.0564   -0.6835    5.3455 H   0  0  0  0  0  0  0  0  0  0  0  0
    2.9816    0.5572    3.2181 H   0  0  0  0  0  0  0  0  0  0  0  0
    1.0002   -0.1132    5.3720 H   0  0  0  0  0  0  0  0  0  0  0  0
    2.9335    1.2051    5.9937 H   0  0  0  0  0  0  0  0  0  0  0  0
    2.6468    2.3675    4.7362 H   0  0  0  0  0  0  0  0  0  0  0  0
    1.0328    1.8344    7.2813 H   0  0  0  0  0  0  0  0  0  0  0  0
    2.0788    3.1558    6.9647 H   0  0  0  0  0  0  0  0  0  0  0  0
   -0.2928    4.3417    7.8089 H   0  0  0  0  0  0  0  0  0  0  0  0
   -0.6888    5.2964    6.3995 H   0  0  0  0  0  0  0  0  0  0  0  0
    0.9811    5.1337    6.9021 H   0  0  0  0  0  0  0  0  0  0  0  0
    1.3153    5.3008    4.0945 H   0  0  0  0  0  0  0  0  0  0  0  0
   -2.3268    1.8730    2.7913 H   0  0  0  0  0  0  0  0  0  0  0  0
   -1.1473    2.9536    2.0685 H   0  0  0  0  0  0  0  0  0  0  0  0
   -2.2664    3.5714    3.1990 H   0  0  0  0  0  0  0  0  0  0  0  0
   -0.5700    0.2636    3.8210 H   0  0  0  0  0  0  0  0  0  0  0  0
   -0.2977    1.1277    1.5363 H   0  0  0  0  0  0  0  0  0  0  0  0
    1.2954    1.7194    1.9593 H   0  0  0  0  0  0  0  0  0  0  0  0
    0.2750   -1.0175    1.3746 H   0  0  0  0  0  0  0  0  0  0  0  0
    1.7447   -0.2196    0.8925 H   0  0  0  0  0  0  0  0  0  0  0  0
    0.5561   -2.9954    2.8781 H   0  0  0  0  0  0  0  0  0  0  0  0
   -0.0323   -1.7396    3.9240 H   0  0  0  0  0  0  0  0  0  0  0  0
    1.3494   -2.6873    4.3824 H   0  0  0  0  0  0  0  0  0  0  0  0
    2.7664   -3.1310    2.3272 H   0  0  0  0  0  0  0  0  0  0  0  0
   -2.3243    0.7481    5.8515 H   0  0  0  0  0  0  0  0  0  0  0  0
   -1.7908    1.5170    7.3680 H   0  0  0  0  0  0  0  0  0  0  0  0
   -0.6662    0.6070    6.3890 H   0  0  0  0  0  0  0  0  0  0  0  0
   -3.3166    2.9266    5.2776 H   0  0  0  0  0  0  0  0  0  0  0  0
   -2.3331    4.3642    5.2164 H   0  0  0  0  0  0  0  0  0  0  0  0
   -2.6691    3.6112    6.7644 H   0  0  0  0  0  0  0  0  0  0  0  0
    0.6369    4.5292    2.6417 H   0  0  0  0  0  0  0  0  0  0  0  0
  2  1  1  6
  1 33  1  0
  1 34  1  0
  1 35  1  0
  2  8  1  0
  2 29  1  0
  2  3  1  0
  3  4  2  0
  3 36  1  0
  4  5  1  0
  4 37  1  0
  5  6  2  0
  5  7  1  0
  7  8  1  0
  7 38  1  0
  7 39  1  0
  8  9  2  0
  9 10  1  0
  9 40  1  0
 10 11  2  0
 10 12  1  0
 12 29  1  0
 12 13  2  0
 13 14  1  0
 13 41  1  0
 14 27  1  0
 14 15  1  0
 14 42  1  6
 15 24  1  0
 15 16  1  0
 15 43  1  1
 16 17  1  0
 16 44  1  0
 16 45  1  0
 17 18  1  0
 17 46  1  0
 17 47  1  0
 18 30  1  0
 18 19  1  1
 18 20  1  0
 19 48  1  0
 19 49  1  0
 19 50  1  0
 20 21  2  3
 20 22  1  0
 21 51  1  0
 21 70  1  0
 22 23  1  6
 22 24  1  0
 22 30  1  0
 23 52  1  0
 23 53  1  0
 23 54  1  0
 24 25  1  0
 24 55  1  6
 25 26  1  0
 25 56  1  0
 25 57  1  0
 26 27  1  0
 26 58  1  0
 26 59  1  0
 27 28  1  1
 27 29  1  0
 28 60  1  0
 28 61  1  0
 28 62  1  0
 29 63  1  6
 30 31  1  0
 30 32  1  0
 31 64  1  0
 31 65  1  0
 31 66  1  0
 32 67  1  0
 32 68  1  0
 32 69  1  0
M  CHG  1  21   1
M  END
>  <i_m_ct_stereo_status>  (126) 
1

>  <s_m_source_file>  (126) 
/var/tmp/pbs.5076255.sched01/tmpe2rv0q7i/42k21vmx8r.sdf

>  <i_m_source_file_index>  (126) 
15

>  <i_lp_mmshare_version>  (126) 
48012

>  <i_f3d_flags>  (126) 
0

>  <s_epik_input>  (126) 
W0NIXTE9W0NIXUMoPU8pW0NIMl1DKFtDQEBdMTJbQ0gzXSk9W0NIXUMoPU8pQz0zW0NASF0yW0NAQF00KFtDSDNdKVtDQEhdKFtDSF0zKVtDQEBIXTVbQ0BIXShbQ0gyXVtDSDJdNClbQ0BdNihbQ0gzXSlDKD1OXFtIXSlcW0NAXShbQ0gzXSkoW0NIMl1bQ0gyXTUpQzYoW0NIM10pW0NIM10=

>  <s_epik_cmdline>  (126) 
J2VwaWtfcHl0aG9uJywgJy1waHQnLCAnMi4wJywgJy1waCcsICc3LjAnLCAnLXRuJywgJzgnLCAnLW1hJywgJzIwMCcsICctaW1hZScsICc8aW5maWxlLm1hZT4nLCAnLW9tYWUnLCAnPG91dGZpbGUubWFlPic=

>  <r_epik_Ionization_Penalty>  (126) 
0.000836981

>  <r_epik_Ionization_Penalty_Charging>  (126) 
0.000836811

>  <r_epik_Ionization_Penalty_Neutral>  (126) 
1.69683e-07

>  <r_epik_State_Penalty>  (126) 
0.00107748

>  <r_epik_Charging_Adjusted_Penalty>  (126) 
0.00191429

>  <i_epik_Tot_Q>  (126) 
1

>  <i_epik_Tot_abs_Q>  (126) 
1

>  <s_epik_Chemistry_Notes>  (126) 
This compound has an imine and may undergo hydrolysis.

>  <s_lp_Force_Field>  (126) 
OPLS3e

>  <r_lp_Energy>  (126) 
96.3774

>  <b_lp_Chiralities_Consistent>  (126) 
1

>  <s_lp_Variant>  (126) 
40:0-1

>  <s_i_glide_gridfile>  (126) 
pfpi4k_grid

>  <i_i_glide_lignum>  (126) 
15

>  <i_i_glide_rotatable_bonds>  (126) 
0

>  <r_i_docking_score>  (126) 
-3.20346

>  <r_i_glide_ligand_efficiency>  (126) 
-0.100108

>  <r_i_glide_ligand_efficiency_sa>  (126) 
-0.317824

>  <r_i_glide_ligand_efficiency_ln>  (126) 
-0.717342

>  <r_i_glide_gscore>  (126) 
-3.20346

>  <r_i_glide_lipo>  (126) 
-0.310429

>  <r_i_glide_hbond>  (126) 
-0.2

>  <r_i_glide_metal>  (126) 
-0

>  <r_i_glide_rewards>  (126) 
-0.627009

>  <r_i_glide_evdw>  (126) 
-19.0629

>  <r_i_glide_ecoul>  (126) 
-6.57118

>  <r_i_glide_erotb>  (126) 
0

>  <r_i_glide_esite>  (126) 
-0.1272

>  <r_i_glide_emodel>  (126) 
-31.742

>  <r_i_glide_energy>  (126) 
-25.6341

>  <r_i_glide_einternal>  (126) 
0

>  <r_i_glide_intrahb_reward>  (126) 
-0

>  <i_i_glide_confnum>  (126) 
2

>  <i_i_glide_posenum>  (126) 
18

>  <r_i_glide_eff_state_penalty>  (126) 
0

>  <ligand_id>  (126) 
40

>  <original_smiles>  (126) 
CC12C=CC(=O)CC1=CC(=O)C1=CC3C4CCC5(C)C(=N)C(C)(C4CCC3(C)C12)C5(C)C

>  <smiles>  (126) 
[H]C1=C([H])C2(C([H])([H])[H])C(=C([H])C(=O)C3=C([H])C4([H])C5([H])C([H])([H])C([H])([H])C6(C([H])([H])[H])C(=[N+]([H])[H])C(C([H])([H])[H])(C5([H])C([H])([H])C([H])([H])C4(C([H])([H])[H])C32[H])C6(C([H])([H])[H])C([H])([H])[H])C([H])([H])C1=O

$$$$
40:0:1
     RDKit          3D

 70 75  0  0  1  0  0  0  0  0999 V2000
    4.6179   -1.6758    2.5217 C   0  0  0  0  0  0  0  0  0  0  0  0
    3.9762   -3.0128    2.9696 C   0  0  1  0  0  0  0  0  0  0  0  0
    3.3302   -3.6932    1.7656 C   0  0  0  0  0  0  0  0  0  0  0  0
    3.8864   -4.6589    1.0112 C   0  0  0  0  0  0  0  0  0  0  0  0
    5.2429   -5.1360    1.2724 C   0  0  0  0  0  0  0  0  0  0  0  0
    5.8013   -5.9649    0.5516 O   0  0  0  0  0  0  0  0  0  0  0  0
    6.0234   -4.5710    2.4496 C   0  0  0  0  0  0  0  0  0  0  0  0
    5.1348   -3.8969    3.4957 C   0  0  0  0  0  0  0  0  0  0  0  0
    5.4237   -4.0526    4.8080 C   0  0  0  0  0  0  0  0  0  0  0  0
    4.7386   -3.2694    5.8565 C   0  0  0  0  0  0  0  0  0  0  0  0
    5.0783   -3.3007    7.0268 O   0  0  0  0  0  0  0  0  0  0  0  0
    3.6435   -2.4301    5.3722 C   0  0  0  0  0  0  0  0  0  0  0  0
    3.2733   -1.2386    5.8482 C   0  0  0  0  0  0  0  0  0  0  0  0
    2.2990   -0.6085    4.8811 C   0  0  2  0  0  0  0  0  0  0  0  0
    1.2334    0.4330    5.3428 C   0  0  1  0  0  0  0  0  0  0  0  0
    1.9890    1.6720    5.8965 C   0  0  0  0  0  0  0  0  0  0  0  0
    1.1763    2.7700    6.5966 C   0  0  0  0  0  0  0  0  0  0  0  0
    0.1256    3.4753    5.7201 C   0  0  1  0  0  0  0  0  0  0  0  0
    0.0069    4.9428    6.1677 C   0  0  0  0  0  0  0  0  0  0  0  0
    0.3596    3.2551    4.2349 C   0  0  0  0  0  0  0  0  0  0  0  0
    1.0452    4.0409    3.2702 N   0  0  0  0  0  0  0  0  0  0  0  0
   -0.5642    2.0715    4.0723 C   0  0  1  0  0  0  0  0  0  0  0  0
   -1.4096    2.1624    2.7894 C   0  0  0  0  0  0  0  0  0  0  0  0
    0.1669    0.6706    4.1776 C   0  0  1  0  0  0  0  0  0  0  0  0
    0.6868    0.1330    2.8040 C   0  0  0  0  0  0  0  0  0  0  0  0
    1.1576   -1.3376    2.7909 C   0  0  0  0  0  0  0  0  0  0  0  0
    1.7344   -1.8296    4.1277 C   0  0  2  0  0  0  0  0  0  0  0  0
    0.6089   -2.5225    4.9680 C   0  0  0  0  0  0  0  0  0  0  0  0
    2.9301   -2.8492    4.1219 C   0  0  1  0  0  0  0  0  0  0  0  0
   -1.2050    2.7095    5.3697 C   0  0  0  0  0  0  0  0  0  0  0  0
   -1.7493    1.7278    6.4173 C   0  0  0  0  0  0  0  0  0  0  0  0
   -2.4342    3.6115    5.1453 C   0  0  0  0  0  0  0  0  0  0  0  0
    5.3553   -1.8598    1.7360 H   0  0  0  0  0  0  0  0  0  0  0  0
    5.1427   -1.1772    3.3435 H   0  0  0  0  0  0  0  0  0  0  0  0
    3.9005   -0.9712    2.1097 H   0  0  0  0  0  0  0  0  0  0  0  0
    2.3377   -3.3678    1.5123 H   0  0  0  0  0  0  0  0  0  0  0  0
    3.3675   -5.0714    0.1626 H   0  0  0  0  0  0  0  0  0  0  0  0
    6.5838   -5.3736    2.9194 H   0  0  0  0  0  0  0  0  0  0  0  0
    6.7500   -3.8564    2.0627 H   0  0  0  0  0  0  0  0  0  0  0  0
    6.2520   -4.6705    5.1326 H   0  0  0  0  0  0  0  0  0  0  0  0
    3.7075   -0.7212    6.6884 H   0  0  0  0  0  0  0  0  0  0  0  0
    2.9565   -0.0774    4.1950 H   0  0  0  0  0  0  0  0  0  0  0  0
    0.7167   -0.0156    6.1884 H   0  0  0  0  0  0  0  0  0  0  0  0
    2.6789    1.3221    6.6617 H   0  0  0  0  0  0  0  0  0  0  0  0
    2.6187    2.1039    5.1115 H   0  0  0  0  0  0  0  0  0  0  0  0
    0.7163    2.3758    7.4992 H   0  0  0  0  0  0  0  0  0  0  0  0
    1.8920    3.5073    6.9619 H   0  0  0  0  0  0  0  0  0  0  0  0
   -0.4485    5.0030    7.1543 H   0  0  0  0  0  0  0  0  0  0  0  0
   -0.6102    5.5343    5.4964 H   0  0  0  0  0  0  0  0  0  0  0  0
    0.9748    5.4374    6.2282 H   0  0  0  0  0  0  0  0  0  0  0  0
    1.5942    4.8284    3.5756 H   0  0  0  0  0  0  0  0  0  0  0  0
   -2.1392    1.3569    2.7516 H   0  0  0  0  0  0  0  0  0  0  0  0
   -0.8146    2.1397    1.8792 H   0  0  0  0  0  0  0  0  0  0  0  0
   -1.9732    3.0832    2.7069 H   0  0  0  0  0  0  0  0  0  0  0  0
   -0.6487   -0.0076    4.4141 H   0  0  0  0  0  0  0  0  0  0  0  0
   -0.0736    0.1732    2.0274 H   0  0  0  0  0  0  0  0  0  0  0  0
    1.5130    0.7630    2.4732 H   0  0  0  0  0  0  0  0  0  0  0  0
    0.3257   -1.9898    2.5594 H   0  0  0  0  0  0  0  0  0  0  0  0
    1.8534   -1.4379    1.9628 H   0  0  0  0  0  0  0  0  0  0  0  0
    0.2762   -3.4511    4.5054 H   0  0  0  0  0  0  0  0  0  0  0  0
   -0.2871   -1.9263    5.1167 H   0  0  0  0  0  0  0  0  0  0  0  0
    0.9514   -2.7892    5.9667 H   0  0  0  0  0  0  0  0  0  0  0  0
    2.5401   -3.8471    4.3207 H   0  0  0  0  0  0  0  0  0  0  0  0
   -2.5656    1.1109    6.0158 H   0  0  0  0  0  0  0  0  0  0  0  0
   -2.1224    2.2435    7.3148 H   0  0  0  0  0  0  0  0  0  0  0  0
   -0.9813    1.0412    6.7625 H   0  0  0  0  0  0  0  0  0  0  0  0
   -3.2938    3.0511    4.7636 H   0  0  0  0  0  0  0  0  0  0  0  0
   -2.2191    4.4005    4.4281 H   0  0  0  0  0  0  0  0  0  0  0  0
   -2.7549    4.1007    6.0692 H   0  0  0  0  0  0  0  0  0  0  0  0
    0.9181    3.8405    2.2630 H   0  0  0  0  0  0  0  0  0  0  0  0
  2  1  1  6
  1 33  1  0
  1 34  1  0
  1 35  1  0
  2  8  1  0
  2 29  1  0
  2  3  1  0
  3  4  2  0
  3 36  1  0
  4  5  1  0
  4 37  1  0
  5  6  2  0
  5  7  1  0
  7  8  1  0
  7 38  1  0
  7 39  1  0
  8  9  2  0
  9 10  1  0
  9 40  1  0
 10 11  2  0
 10 12  1  0
 12 29  1  0
 12 13  2  0
 13 14  1  0
 13 41  1  0
 14 27  1  0
 14 15  1  0
 14 42  1  6
 15 24  1  0
 15 16  1  0
 15 43  1  1
 16 17  1  0
 16 44  1  0
 16 45  1  0
 17 18  1  0
 17 46  1  0
 17 47  1  0
 18 30  1  0
 18 19  1  6
 18 20  1  0
 19 48  1  0
 19 49  1  0
 19 50  1  0
 20 21  2  3
 20 22  1  0
 21 51  1  0
 21 70  1  0
 22 23  1  6
 22 24  1  0
 22 30  1  0
 23 52  1  0
 23 53  1  0
 23 54  1  0
 24 25  1  0
 24 55  1  1
 25 26  1  0
 25 56  1  0
 25 57  1  0
 26 27  1  0
 26 58  1  0
 26 59  1  0
 27 28  1  1
 27 29  1  0
 28 60  1  0
 28 61  1  0
 28 62  1  0
 29 63  1  1
 30 31  1  0
 30 32  1  0
 31 64  1  0
 31 65  1  0
 31 66  1  0
 32 67  1  0
 32 68  1  0
 32 69  1  0
M  CHG  1  21   1
M  END
>  <i_m_ct_stereo_status>  (127) 
1

>  <s_m_source_file>  (127) 
/var/tmp/pbs.5076255.sched01/tmpe2rv0q7i/42k21vmx8r.sdf

>  <i_m_source_file_index>  (127) 
15

>  <i_lp_mmshare_version>  (127) 
48012

>  <i_f3d_flags>  (127) 
0

>  <s_epik_input>  (127) 
W0NIXTE9W0NIXUMoPU8pW0NIMl1DKFtDQEBdMTJbQ0gzXSk9W0NIXUMoPU8pQz0zW0NASF0yW0NAQF00KFtDSDNdKVtDQEhdKFtDSF0zKVtDQEBIXTVbQ0BIXShbQ0gyXVtDSDJdNClbQ0BdNihbQ0gzXSlDKD1OXFtIXSlcW0NAXShbQ0gzXSkoW0NIMl1bQ0gyXTUpQzYoW0NIM10pW0NIM10=

>  <s_epik_cmdline>  (127) 
J2VwaWtfcHl0aG9uJywgJy1waHQnLCAnMi4wJywgJy1waCcsICc3LjAnLCAnLXRuJywgJzgnLCAnLW1hJywgJzIwMCcsICctaW1hZScsICc8aW5maWxlLm1hZT4nLCAnLW9tYWUnLCAnPG91dGZpbGUubWFlPic=

>  <r_epik_Ionization_Penalty>  (127) 
0.000836981

>  <r_epik_Ionization_Penalty_Charging>  (127) 
0.000836811

>  <r_epik_Ionization_Penalty_Neutral>  (127) 
1.69683e-07

>  <r_epik_State_Penalty>  (127) 
0.00107748

>  <r_epik_Charging_Adjusted_Penalty>  (127) 
0.00191429

>  <i_epik_Tot_Q>  (127) 
1

>  <i_epik_Tot_abs_Q>  (127) 
1

>  <s_epik_Chemistry_Notes>  (127) 
This compound has an imine and may undergo hydrolysis.

>  <s_lp_Force_Field>  (127) 
OPLS3e

>  <r_lp_Energy>  (127) 
96.3774

>  <b_lp_Chiralities_Consistent>  (127) 
1

>  <s_lp_Variant>  (127) 
40:0-1

>  <s_i_glide_gridfile>  (127) 
pfpi4k_grid

>  <i_i_glide_lignum>  (127) 
15

>  <i_i_glide_rotatable_bonds>  (127) 
0

>  <r_i_docking_score>  (127) 
-3.04266

>  <r_i_glide_ligand_efficiency>  (127) 
-0.0950832

>  <r_i_glide_ligand_efficiency_sa>  (127) 
-0.30187

>  <r_i_glide_ligand_efficiency_ln>  (127) 
-0.681335

>  <r_i_glide_gscore>  (127) 
-3.04266

>  <r_i_glide_lipo>  (127) 
-0.132817

>  <r_i_glide_hbond>  (127) 
-0.182276

>  <r_i_glide_metal>  (127) 
-0

>  <r_i_glide_rewards>  (127) 
-0.539787

>  <r_i_glide_evdw>  (127) 
-18.1546

>  <r_i_glide_ecoul>  (127) 
-7.61089

>  <r_i_glide_erotb>  (127) 
0

>  <r_i_glide_esite>  (127) 
-0.138421

>  <r_i_glide_emodel>  (127) 
-31.7086

>  <r_i_glide_energy>  (127) 
-25.7655

>  <r_i_glide_einternal>  (127) 
0

>  <r_i_glide_intrahb_reward>  (127) 
-0

>  <i_i_glide_confnum>  (127) 
2

>  <i_i_glide_posenum>  (127) 
2

>  <r_i_glide_eff_state_penalty>  (127) 
0

>  <ligand_id>  (127) 
40

>  <original_smiles>  (127) 
CC12C=CC(=O)CC1=CC(=O)C1=CC3C4CCC5(C)C(=N)C(C)(C4CCC3(C)C12)C5(C)C

>  <smiles>  (127) 
[H]C1=C([H])C2(C([H])([H])[H])C(=C([H])C(=O)C3=C([H])C4([H])C5([H])C([H])([H])C([H])([H])C6(C([H])([H])[H])C(=[N+]([H])[H])C(C([H])([H])[H])(C5([H])C([H])([H])C([H])([H])C4(C([H])([H])[H])C32[H])C6(C([H])([H])[H])C([H])([H])[H])C([H])([H])C1=O

$$$$
40:0:2
     RDKit          3D

 70 75  0  0  1  0  0  0  0  0999 V2000
    4.0060   -2.0271    2.2147 C   0  0  0  0  0  0  0  0  0  0  0  0
    3.5250   -3.2958    2.9617 C   0  0  1  0  0  0  0  0  0  0  0  0
    2.5783   -4.0712    2.0582 C   0  0  0  0  0  0  0  0  0  0  0  0
    2.8977   -5.1187    1.2766 C   0  0  0  0  0  0  0  0  0  0  0  0
    4.2728   -5.6157    1.2232 C   0  0  0  0  0  0  0  0  0  0  0  0
    4.6158   -6.5301    0.4762 O   0  0  0  0  0  0  0  0  0  0  0  0
    5.3530   -4.9493    2.0744 C   0  0  0  0  0  0  0  0  0  0  0  0
    4.7863   -4.1386    3.2307 C   0  0  0  0  0  0  0  0  0  0  0  0
    5.4065   -4.1873    4.4401 C   0  0  0  0  0  0  0  0  0  0  0  0
    5.0239   -3.2714    5.5373 C   0  0  0  0  0  0  0  0  0  0  0  0
    5.6739   -3.1957    6.5746 O   0  0  0  0  0  0  0  0  0  0  0  0
    3.8391   -2.4556    5.2973 C   0  0  0  0  0  0  0  0  0  0  0  0
    3.6073   -1.2058    5.7206 C   0  0  0  0  0  0  0  0  0  0  0  0
    2.4091   -0.6565    4.9899 C   0  0  2  0  0  0  0  0  0  0  0  0
    1.5157    0.4623    5.6093 C   0  0  1  0  0  0  0  0  0  0  0  0
    2.3879    1.7260    5.7997 C   0  0  0  0  0  0  0  0  0  0  0  0
    1.7904    2.9163    6.5664 C   0  0  0  0  0  0  0  0  0  0  0  0
    0.5371    3.5540    5.9616 C   0  0  1  0  0  0  0  0  0  0  0  0
    0.5470    5.0624    6.2499 C   0  0  0  0  0  0  0  0  0  0  0  0
    0.3758    3.1712    4.5060 C   0  0  0  0  0  0  0  0  0  0  0  0
    0.8115    3.8491    3.3134 N   0  0  0  0  0  0  0  0  0  0  0  0
   -0.5679    2.0076    4.7046 C   0  0  1  0  0  0  0  0  0  0  0  0
   -1.7341    1.9975    3.7056 C   0  0  0  0  0  0  0  0  0  0  0  0
    0.1754    0.6172    4.7526 C   0  0  1  0  0  0  0  0  0  0  0  0
    0.2940   -0.0876    3.3668 C   0  0  0  0  0  0  0  0  0  0  0  0
    0.7387   -1.5661    3.3787 C   0  0  0  0  0  0  0  0  0  0  0  0
    1.6600   -1.9327    4.5535 C   0  0  2  0  0  0  0  0  0  0  0  0
    0.8107   -2.5041    5.7383 C   0  0  0  0  0  0  0  0  0  0  0  0
    2.8212   -2.9785    4.3311 C   0  0  1  0  0  0  0  0  0  0  0  0
   -0.8295    2.7962    6.0466 C   0  0  0  0  0  0  0  0  0  0  0  0
   -1.0653    1.9429    7.2931 C   0  0  0  0  0  0  0  0  0  0  0  0
   -2.0722    3.7081    6.0701 C   0  0  0  0  0  0  0  0  0  0  0  0
    4.4988   -2.3077    1.2830 H   0  0  0  0  0  0  0  0  0  0  0  0
    4.7355   -1.4560    2.7984 H   0  0  0  0  0  0  0  0  0  0  0  0
    3.2018   -1.3467    1.9320 H   0  0  0  0  0  0  0  0  0  0  0  0
    1.5577   -3.7538    2.0865 H   0  0  0  0  0  0  0  0  0  0  0  0
    2.1686   -5.6076    0.6525 H   0  0  0  0  0  0  0  0  0  0  0  0
    6.0129   -5.7308    2.4621 H   0  0  0  0  0  0  0  0  0  0  0  0
    5.9473   -4.2948    1.4388 H   0  0  0  0  0  0  0  0  0  0  0  0
    6.2970   -4.7795    4.5877 H   0  0  0  0  0  0  0  0  0  0  0  0
    4.2627   -0.6249    6.3430 H   0  0  0  0  0  0  0  0  0  0  0  0
    2.8597   -0.2219    4.0963 H   0  0  0  0  0  0  0  0  0  0  0  0
    1.2482    0.1059    6.6025 H   0  0  0  0  0  0  0  0  0  0  0  0
    3.2589    1.4350    6.3881 H   0  0  0  0  0  0  0  0  0  0  0  0
    2.7873    2.0528    4.8403 H   0  0  0  0  0  0  0  0  0  0  0  0
    1.5896    2.6281    7.5970 H   0  0  0  0  0  0  0  0  0  0  0  0
    2.5805    3.6601    6.6490 H   0  0  0  0  0  0  0  0  0  0  0  0
    0.3790    5.2272    7.3108 H   0  0  0  0  0  0  0  0  0  0  0  0
   -0.2334    5.6083    5.7262 H   0  0  0  0  0  0  0  0  0  0  0  0
    1.4929    5.5384    6.0008 H   0  0  0  0  0  0  0  0  0  0  0  0
    1.4252    4.6737    3.3865 H   0  0  0  0  0  0  0  0  0  0  0  0
   -2.4361    1.2258    4.0083 H   0  0  0  0  0  0  0  0  0  0  0  0
   -1.4451    1.8341    2.6695 H   0  0  0  0  0  0  0  0  0  0  0  0
   -2.3097    2.9177    3.6786 H   0  0  0  0  0  0  0  0  0  0  0  0
   -0.5439   -0.0101    5.2694 H   0  0  0  0  0  0  0  0  0  0  0  0
   -0.6466   -0.0853    2.8268 H   0  0  0  0  0  0  0  0  0  0  0  0
    1.0028    0.4721    2.7582 H   0  0  0  0  0  0  0  0  0  0  0  0
   -0.1375   -2.2083    3.4403 H   0  0  0  0  0  0  0  0  0  0  0  0
    1.1902   -1.7692    2.4152 H   0  0  0  0  0  0  0  0  0  0  0  0
    0.3663   -3.4656    5.4841 H   0  0  0  0  0  0  0  0  0  0  0  0
   -0.0077   -1.8680    6.0557 H   0  0  0  0  0  0  0  0  0  0  0  0
    1.4147   -2.6762    6.6314 H   0  0  0  0  0  0  0  0  0  0  0  0
    2.4953   -3.9415    4.7244 H   0  0  0  0  0  0  0  0  0  0  0  0
   -1.9600    1.3105    7.1976 H   0  0  0  0  0  0  0  0  0  0  0  0
   -1.1732    2.5471    8.2010 H   0  0  0  0  0  0  0  0  0  0  0  0
   -0.2358    1.2696    7.4935 H   0  0  0  0  0  0  0  0  0  0  0  0
   -3.0112    3.1448    5.9960 H   0  0  0  0  0  0  0  0  0  0  0  0
   -2.0658    4.4147    5.2426 H   0  0  0  0  0  0  0  0  0  0  0  0
   -2.1263    4.2887    6.9916 H   0  0  0  0  0  0  0  0  0  0  0  0
    0.5348    3.5761    2.3452 H   0  0  0  0  0  0  0  0  0  0  0  0
  2  1  1  6
  1 33  1  0
  1 34  1  0
  1 35  1  0
  2  8  1  0
  2 29  1  0
  2  3  1  0
  3  4  2  0
  3 36  1  0
  4  5  1  0
  4 37  1  0
  5  6  2  0
  5  7  1  0
  7  8  1  0
  7 38  1  0
  7 39  1  0
  8  9  2  0
  9 10  1  0
  9 40  1  0
 10 11  2  0
 10 12  1  0
 12 29  1  0
 12 13  2  0
 13 14  1  0
 13 41  1  0
 14 27  1  0
 14 15  1  0
 14 42  1  6
 15 24  1  0
 15 16  1  0
 15 43  1  1
 16 17  1  0
 16 44  1  0
 16 45  1  0
 17 18  1  0
 17 46  1  0
 17 47  1  0
 18 30  1  0
 18 19  1  6
 18 20  1  0
 19 48  1  0
 19 49  1  0
 19 50  1  0
 20 21  2  3
 20 22  1  0
 21 51  1  0
 21 70  1  0
 22 23  1  6
 22 24  1  0
 22 30  1  0
 23 52  1  0
 23 53  1  0
 23 54  1  0
 24 25  1  0
 24 55  1  1
 25 26  1  0
 25 56  1  0
 25 57  1  0
 26 27  1  0
 26 58  1  0
 26 59  1  0
 27 28  1  1
 27 29  1  0
 28 60  1  0
 28 61  1  0
 28 62  1  0
 29 63  1  1
 30 31  1  0
 30 32  1  0
 31 64  1  0
 31 65  1  0
 31 66  1  0
 32 67  1  0
 32 68  1  0
 32 69  1  0
M  CHG  1  21   1
M  END
>  <i_m_ct_stereo_status>  (128) 
1

>  <s_m_source_file>  (128) 
/var/tmp/pbs.5076255.sched01/tmpe2rv0q7i/42k21vmx8r.sdf

>  <i_m_source_file_index>  (128) 
15

>  <i_lp_mmshare_version>  (128) 
48012

>  <i_f3d_flags>  (128) 
0

>  <s_epik_input>  (128) 
W0NIXTE9W0NIXUMoPU8pW0NIMl1DKFtDQEBdMTJbQ0gzXSk9W0NIXUMoPU8pQz0zW0NASF0yW0NAQF00KFtDSDNdKVtDQEhdKFtDSF0zKVtDQEBIXTVbQ0BIXShbQ0gyXVtDSDJdNClbQ0BdNihbQ0gzXSlDKD1OXFtIXSlcW0NAXShbQ0gzXSkoW0NIMl1bQ0gyXTUpQzYoW0NIM10pW0NIM10=

>  <s_epik_cmdline>  (128) 
J2VwaWtfcHl0aG9uJywgJy1waHQnLCAnMi4wJywgJy1waCcsICc3LjAnLCAnLXRuJywgJzgnLCAnLW1hJywgJzIwMCcsICctaW1hZScsICc8aW5maWxlLm1hZT4nLCAnLW9tYWUnLCAnPG91dGZpbGUubWFlPic=

>  <r_epik_Ionization_Penalty>  (128) 
0.000836981

>  <r_epik_Ionization_Penalty_Charging>  (128) 
0.000836811

>  <r_epik_Ionization_Penalty_Neutral>  (128) 
1.69683e-07

>  <r_epik_State_Penalty>  (128) 
0.00107748

>  <r_epik_Charging_Adjusted_Penalty>  (128) 
0.00191429

>  <i_epik_Tot_Q>  (128) 
1

>  <i_epik_Tot_abs_Q>  (128) 
1

>  <s_epik_Chemistry_Notes>  (128) 
This compound has an imine and may undergo hydrolysis.

>  <s_lp_Force_Field>  (128) 
OPLS3e

>  <r_lp_Energy>  (128) 
96.3774

>  <b_lp_Chiralities_Consistent>  (128) 
1

>  <s_lp_Variant>  (128) 
40:0-1

>  <s_i_glide_gridfile>  (128) 
pfpi4k_grid

>  <i_i_glide_lignum>  (128) 
15

>  <i_i_glide_rotatable_bonds>  (128) 
0

>  <r_i_docking_score>  (128) 
-2.88357

>  <r_i_glide_ligand_efficiency>  (128) 
-0.0901115

>  <r_i_glide_ligand_efficiency_sa>  (128) 
-0.286086

>  <r_i_glide_ligand_efficiency_ln>  (128) 
-0.645709

>  <r_i_glide_gscore>  (128) 
-2.88357

>  <r_i_glide_lipo>  (128) 
-0.0738296

>  <r_i_glide_hbond>  (128) 
-0.160553

>  <r_i_glide_metal>  (128) 
-0

>  <r_i_glide_rewards>  (128) 
-0.538499

>  <r_i_glide_evdw>  (128) 
-17.4024

>  <r_i_glide_ecoul>  (128) 
-7.44135

>  <r_i_glide_erotb>  (128) 
0

>  <r_i_glide_esite>  (128) 
-0.124364

>  <r_i_glide_emodel>  (128) 
-30.2699

>  <r_i_glide_energy>  (128) 
-24.8438

>  <r_i_glide_einternal>  (128) 
0

>  <r_i_glide_intrahb_reward>  (128) 
-0

>  <i_i_glide_confnum>  (128) 
2

>  <i_i_glide_posenum>  (128) 
11

>  <r_i_glide_eff_state_penalty>  (128) 
0

>  <ligand_id>  (128) 
40

>  <original_smiles>  (128) 
CC12C=CC(=O)CC1=CC(=O)C1=CC3C4CCC5(C)C(=N)C(C)(C4CCC3(C)C12)C5(C)C

>  <smiles>  (128) 
[H]C1=C([H])C2(C([H])([H])[H])C(=C([H])C(=O)C3=C([H])C4([H])C5([H])C([H])([H])C([H])([H])C6(C([H])([H])[H])C(=[N+]([H])[H])C(C([H])([H])[H])(C5([H])C([H])([H])C([H])([H])C4(C([H])([H])[H])C32[H])C6(C([H])([H])[H])C([H])([H])[H])C([H])([H])C1=O

$$$$
41:0:0
     RDKit          3D

 69 77  0  0  1  0  0  0  0  0999 V2000
    5.7636  -11.4445    3.0829 C   0  0  0  0  0  0  0  0  0  0  0  0
    5.1061  -10.2877    3.5796 O   0  0  0  0  0  0  0  0  0  0  0  0
    3.7372  -10.3268    3.7695 C   0  0  0  0  0  0  0  0  0  0  0  0
    2.9434  -11.4831    3.5127 C   0  0  0  0  0  0  0  0  0  0  0  0
    1.5522  -11.4554    3.7328 C   0  0  0  0  0  0  0  0  0  0  0  0
    0.9388  -10.2968    4.2152 C   0  0  0  0  0  0  0  0  0  0  0  0
    1.7126   -9.1508    4.4704 C   0  0  0  0  0  0  0  0  0  0  0  0
    1.1797   -7.5833    5.0800 S   0  0  0  0  0  0  0  0  0  0  0  0
    2.8632   -7.0513    4.9943 C   0  0  0  0  0  0  0  0  0  0  0  0
    3.2434   -5.7432    5.3125 N   0  0  0  0  0  0  0  0  0  0  0  0
    2.4521   -5.0135    6.0676 N   0  0  0  0  0  0  0  0  0  0  0  0
    2.6786   -3.7120    6.1550 C   0  0  0  0  0  0  0  0  0  0  0  0
    3.7718   -3.0222    5.3945 C   0  0  0  0  0  0  0  0  0  0  0  0
    3.4121   -1.5699    5.0977 C   0  0  1  0  0  0  0  0  0  0  0  0
    2.4414   -1.4524    4.0329 O   0  0  0  0  0  0  0  0  0  0  0  0
    1.3069   -0.6156    4.3574 C   0  0  2  0  0  0  0  0  0  0  0  0
    0.4662   -1.3061    5.4459 C   0  0  2  0  0  0  0  0  0  0  0  0
   -0.0927   -2.6665    4.9025 C   0  0  0  0  0  0  0  0  0  0  0  0
   -0.8046   -0.4201    5.6944 C   0  0  0  0  0  0  0  0  0  0  0  0
   -1.4610    0.0889    4.3853 C   0  0  0  0  0  0  0  0  0  0  0  0
   -0.5463    0.9273    3.4344 C   0  0  1  0  0  0  0  0  0  0  0  0
   -0.7279    2.4500    3.6137 C   0  0  0  0  0  0  0  0  0  0  0  0
   -2.0843    3.0959    3.4944 C   0  0  0  0  0  0  0  0  0  0  0  0
   -1.8142    4.4862    3.6578 O   0  0  0  0  0  0  0  0  0  0  0  0
   -0.5018    4.7176    3.8451 C   0  0  0  0  0  0  0  0  0  0  0  0
    0.0300    5.8050    4.0626 O   0  0  0  0  0  0  0  0  0  0  0  0
    0.1835    3.4384    3.7816 C   0  0  0  0  0  0  0  0  0  0  0  0
    1.5053    3.4013    3.8004 O   0  0  0  0  0  0  0  0  0  0  0  0
    0.8971    0.4148    3.4384 C   0  0  2  0  0  0  0  0  0  0  0  0
    1.5507    0.5119    2.0763 C   0  0  0  0  0  0  0  0  0  0  0  0
    1.7980    0.8419    4.6139 C   0  0  1  0  0  0  0  0  0  0  0  0
    1.4807    1.2394    5.9380 O   0  0  0  0  0  0  0  0  0  0  0  0
    2.7443    0.5644    5.7099 C   0  0  1  0  0  0  0  0  0  0  0  0
    2.8641   -0.8104    6.3121 C   0  0  1  0  0  0  0  0  0  0  0  0
    1.4724   -1.4642    6.7035 C   0  0  1  0  0  0  0  0  0  0  0  0
    0.9189   -0.8017    7.9985 C   0  0  0  0  0  0  0  0  0  0  0  0
    1.7856   -2.9538    7.0467 C   0  0  0  0  0  0  0  0  0  0  0  0
    1.2802   -3.4641    8.0483 O   0  0  0  0  0  0  0  0  0  0  0  0
    3.7538   -7.9181    4.5303 N   0  0  0  0  0  0  0  0  0  0  0  0
    3.1233   -9.1400    4.2477 C   0  0  0  0  0  0  0  0  0  0  0  0
    6.8271  -11.2312    2.9921 H   0  0  0  0  0  0  0  0  0  0  0  0
    5.4085  -11.7140    2.0921 H   0  0  0  0  0  0  0  0  0  0  0  0
    5.6534  -12.3015    3.7493 H   0  0  0  0  0  0  0  0  0  0  0  0
    3.3768  -12.4038    3.1472 H   0  0  0  0  0  0  0  0  0  0  0  0
    0.9534  -12.3390    3.5511 H   0  0  0  0  0  0  0  0  0  0  0  0
   -0.1241  -10.2750    4.4048 H   0  0  0  0  0  0  0  0  0  0  0  0
    4.6812   -3.0460    5.9898 H   0  0  0  0  0  0  0  0  0  0  0  0
    3.9969   -3.4931    4.4401 H   0  0  0  0  0  0  0  0  0  0  0  0
    4.3218   -1.0815    4.7555 H   0  0  0  0  0  0  0  0  0  0  0  0
   -0.6333   -3.2300    5.6531 H   0  0  0  0  0  0  0  0  0  0  0  0
    0.6650   -3.3224    4.4806 H   0  0  0  0  0  0  0  0  0  0  0  0
   -0.7858   -2.5254    4.0865 H   0  0  0  0  0  0  0  0  0  0  0  0
   -1.5337   -0.9831    6.2576 H   0  0  0  0  0  0  0  0  0  0  0  0
   -0.6159    0.4611    6.2998 H   0  0  0  0  0  0  0  0  0  0  0  0
   -1.8893   -0.7430    3.8290 H   0  0  0  0  0  0  0  0  0  0  0  0
   -2.3500    0.6439    4.6448 H   0  0  0  0  0  0  0  0  0  0  0  0
   -0.9316    0.7355    2.4248 H   0  0  0  0  0  0  0  0  0  0  0  0
   -2.5185    2.8990    2.5119 H   0  0  0  0  0  0  0  0  0  0  0  0
   -2.7653    2.7499    4.2729 H   0  0  0  0  0  0  0  0  0  0  0  0
    1.8063    4.2993    3.8672 H   0  0  0  0  0  0  0  0  0  0  0  0
    1.4052    1.5108    1.6423 H   0  0  0  0  0  0  0  0  0  0  0  0
    1.1464   -0.2375    1.3921 H   0  0  0  0  0  0  0  0  0  0  0  0
    2.6276    0.3572    2.1625 H   0  0  0  0  0  0  0  0  0  0  0  0
    3.6288    1.1722    5.6660 H   0  0  0  0  0  0  0  0  0  0  0  0
    3.5652   -0.7783    7.1511 H   0  0  0  0  0  0  0  0  0  0  0  0
    0.8338    0.2805    7.9449 H   0  0  0  0  0  0  0  0  0  0  0  0
    1.5645   -0.9911    8.8513 H   0  0  0  0  0  0  0  0  0  0  0  0
   -0.0714   -1.1821    8.2483 H   0  0  0  0  0  0  0  0  0  0  0  0
    4.1366   -5.4300    4.9580 H   0  0  0  0  0  0  0  0  0  0  0  0
  1  2  1  0
  1 41  1  0
  1 42  1  0
  1 43  1  0
  2  3  1  0
  3 40  2  0
  3  4  1  0
  4  5  2  0
  4 44  1  0
  5  6  1  0
  5 45  1  0
  6  7  2  0
  6 46  1  0
  7 40  1  0
  7  8  1  0
  8  9  1  0
  9 10  1  0
  9 39  2  0
 10 11  1  0
 10 69  1  0
 11 12  2  3
 12 37  1  0
 12 13  1  0
 13 14  1  0
 13 47  1  0
 13 48  1  0
 14 34  1  0
 14 15  1  0
 14 49  1  6
 16 15  1  6
 16 29  1  0
 16 31  1  0
 16 17  1  0
 17 35  1  0
 17 18  1  6
 17 19  1  0
 18 50  1  0
 18 51  1  0
 18 52  1  0
 19 20  1  0
 19 53  1  0
 19 54  1  0
 20 21  1  0
 20 55  1  0
 20 56  1  0
 21 29  1  0
 21 57  1  6
 21 22  1  0
 22 23  1  0
 22 27  2  0
 23 58  1  0
 23 59  1  0
 23 24  1  0
 24 25  1  0
 25 26  2  0
 25 27  1  0
 27 28  1  0
 28 60  1  0
 29 30  1  6
 29 31  1  0
 30 61  1  0
 30 62  1  0
 30 63  1  0
 31 33  1  0
 31 32  1  1
 32 33  1  0
 33 34  1  0
 33 64  1  6
 34 35  1  0
 34 65  1  1
 35 36  1  1
 35 37  1  0
 36 66  1  0
 36 67  1  0
 36 68  1  0
 37 38  2  0
 39 40  1  0
M  END
>  <i_m_ct_stereo_status>  (129) 
1

>  <s_m_source_file>  (129) 
/var/tmp/pbs.5076255.sched01/tmpe2rv0q7i/42k21vmx8r.sdf

>  <i_m_source_file_index>  (129) 
16

>  <i_lp_mmshare_version>  (129) 
48012

>  <i_f3d_flags>  (129) 
0

>  <s_epik_input>  (129) 
W2NIXTFbY0hdW2NIXWMoT1tDSDNdKWMoYzEyKVtuSF1jKFxzMik9TlxOPUMoQzM9TykvW0NIMl1bQ0BASF0oTzQpW0NAQEhdKFtDQEBIXTVPNilbQ0BAXTMoW0NIM10pW0NAQF03KFtDSDNdKVtDSDJdW0NIMl1bQ0BIXShbQ0BAXTgoW0NIM10pW0NAQF01NltDQEBdNDc4KWM5W2NIXW9jKFtPSF0pYzlbT0hd

>  <s_epik_cmdline>  (129) 
J2VwaWtfcHl0aG9uJywgJy1waHQnLCAnMi4wJywgJy1waCcsICc3LjAnLCAnLXRuJywgJzgnLCAnLW1hJywgJzIwMCcsICctaW1hZScsICc8aW5maWxlLm1hZT4nLCAnLW9tYWUnLCAnPG91dGZpbGUubWFlPic=

>  <r_lp_tautomer_probability>  (129) 
0.98983

>  <r_epik_Ionization_Penalty>  (129) 
0.0828998

>  <r_epik_Ionization_Penalty_Charging>  (129) 
0

>  <r_epik_Ionization_Penalty_Neutral>  (129) 
0.0828998

>  <r_epik_State_Penalty>  (129) 
0.0685922

>  <r_epik_Charging_Adjusted_Penalty>  (129) 
0.0685922

>  <i_epik_Tot_Q>  (129) 
0

>  <i_epik_Tot_abs_Q>  (129) 
0

>  <s_epik_Chemistry_Notes>  (129) 
This compound has an ester and may undergo hydrolysis at high or low pH. This compound has an imine and may undergo hydrolysis.

>  <s_lp_Force_Field>  (129) 
OPLS3e

>  <r_lp_Energy>  (129) 
154.391

>  <b_lp_Chiralities_Consistent>  (129) 
1

>  <s_lp_Variant>  (129) 
41:0-1

>  <s_i_glide_gridfile>  (129) 
pfpi4k_grid

>  <i_i_glide_lignum>  (129) 
16

>  <i_i_glide_rotatable_bonds>  (129) 
5

>  <r_i_docking_score>  (129) 
-2.26101

>  <r_i_glide_ligand_efficiency>  (129) 
-0.0565254

>  <r_i_glide_ligand_efficiency_sa>  (129) 
-0.193314

>  <r_i_glide_ligand_efficiency_ln>  (129) 
-0.482208

>  <r_i_glide_gscore>  (129) 
-2.26101

>  <r_i_glide_lipo>  (129) 
-0.120283

>  <r_i_glide_hbond>  (129) 
-0.16

>  <r_i_glide_metal>  (129) 
-0

>  <r_i_glide_rewards>  (129) 
0

>  <r_i_glide_evdw>  (129) 
-28.2335

>  <r_i_glide_ecoul>  (129) 
-3.87691

>  <r_i_glide_erotb>  (129) 
0.113159

>  <r_i_glide_esite>  (129) 
-0.100677

>  <r_i_glide_emodel>  (129) 
-30.5516

>  <r_i_glide_energy>  (129) 
-32.1104

>  <r_i_glide_einternal>  (129) 
4.97791

>  <r_i_glide_intrahb_reward>  (129) 
-0

>  <i_i_glide_confnum>  (129) 
2

>  <i_i_glide_posenum>  (129) 
8

>  <r_i_glide_eff_state_penalty>  (129) 
0

>  <ligand_id>  (129) 
41

>  <original_smiles>  (129) 
COc1cccc2sc(=NN=C3CC4OC56C7(C)CCC(c8coc(O)c8O)C5(C)C65OC5C4C7(C)C3=O)[nH]c12

>  <smiles>  (129) 
[H]OC1=C(C2([H])C([H])([H])C([H])([H])C3(C([H])([H])[H])C45OC6([H])C([H])([H])C(=NN([H])c7nc8c(OC([H])([H])[H])c([H])c([H])c([H])c8s7)C(=O)C3(C([H])([H])[H])C6([H])C3([H])OC34C25C([H])([H])[H])C([H])([H])OC1=O

$$$$
41:0:1
     RDKit          3D

 69 77  0  0  1  0  0  0  0  0999 V2000
   -0.0661   -9.6371    6.4915 C   0  0  0  0  0  0  0  0  0  0  0  0
    0.8826   -8.5858    6.5335 O   0  0  0  0  0  0  0  0  0  0  0  0
    1.7827   -8.5362    7.5754 C   0  0  0  0  0  0  0  0  0  0  0  0
    1.7637   -9.4500    8.6614 C   0  0  0  0  0  0  0  0  0  0  0  0
    2.7145   -9.3671    9.6997 C   0  0  0  0  0  0  0  0  0  0  0  0
    3.6744   -8.3494    9.6608 C   0  0  0  0  0  0  0  0  0  0  0  0
    3.6929   -7.4274    8.6011 C   0  0  0  0  0  0  0  0  0  0  0  0
    4.7757   -6.0512    8.3519 S   0  0  0  0  0  0  0  0  0  0  0  0
    3.9226   -5.7276    6.8482 C   0  0  0  0  0  0  0  0  0  0  0  0
    4.3144   -4.6876    5.9943 N   0  0  0  0  0  0  0  0  0  0  0  0
    4.6808   -3.5325    6.5435 N   0  0  0  0  0  0  0  0  0  0  0  0
    4.5766   -2.4234    5.8361 C   0  0  0  0  0  0  0  0  0  0  0  0
    3.9735   -2.3789    4.4566 C   0  0  0  0  0  0  0  0  0  0  0  0
    3.3592   -1.0135    4.1598 C   0  0  1  0  0  0  0  0  0  0  0  0
    2.0900   -0.8104    4.8318 O   0  0  0  0  0  0  0  0  0  0  0  0
    2.0063    0.4402    5.5640 C   0  0  2  0  0  0  0  0  0  0  0  0
    2.9831    0.3776    6.7670 C   0  0  2  0  0  0  0  0  0  0  0  0
    2.5579   -0.7793    7.7388 C   0  0  0  0  0  0  0  0  0  0  0  0
    2.7893    1.6928    7.5969 C   0  0  0  0  0  0  0  0  0  0  0  0
    1.2941    2.0652    7.8019 C   0  0  0  0  0  0  0  0  0  0  0  0
    0.4495    2.2570    6.5017 C   0  0  1  0  0  0  0  0  0  0  0  0
    0.3388    3.7399    6.0887 C   0  0  0  0  0  0  0  0  0  0  0  0
   -0.0869    4.8001    7.0675 C   0  0  0  0  0  0  0  0  0  0  0  0
   -0.1421    5.9846    6.2806 O   0  0  0  0  0  0  0  0  0  0  0  0
    0.2127    5.7453    4.9961 C   0  0  0  0  0  0  0  0  0  0  0  0
    0.2481    6.5418    4.0773 O   0  0  0  0  0  0  0  0  0  0  0  0
    0.4793    4.3203    4.8747 C   0  0  0  0  0  0  0  0  0  0  0  0
    0.6918    3.7866    3.6831 O   0  0  0  0  0  0  0  0  0  0  0  0
    0.8656    1.2789    5.3991 C   0  0  2  0  0  0  0  0  0  0  0  0
   -0.3102    0.7925    4.5838 C   0  0  0  0  0  0  0  0  0  0  0  0
    2.1241    1.6338    4.5832 C   0  0  1  0  0  0  0  0  0  0  0  0
    3.2499    2.4299    4.8928 O   0  0  0  0  0  0  0  0  0  0  0  0
    3.4323    1.3080    3.9830 C   0  0  1  0  0  0  0  0  0  0  0  0
    4.2651    0.1764    4.5182 C   0  0  1  0  0  0  0  0  0  0  0  0
    4.4516    0.1707    6.1009 C   0  0  1  0  0  0  0  0  0  0  0  0
    5.4549    1.2850    6.5118 C   0  0  0  0  0  0  0  0  0  0  0  0
    5.0907   -1.1975    6.4572 C   0  0  0  0  0  0  0  0  0  0  0  0
    6.0516   -1.2332    7.2427 O   0  0  0  0  0  0  0  0  0  0  0  0
    2.9196   -6.5350    6.5234 N   0  0  0  0  0  0  0  0  0  0  0  0
    2.7595   -7.5043    7.5232 C   0  0  0  0  0  0  0  0  0  0  0  0
   -0.6440   -9.4526    5.5915 H   0  0  0  0  0  0  0  0  0  0  0  0
   -0.7533   -9.6206    7.3396 H   0  0  0  0  0  0  0  0  0  0  0  0
    0.3888  -10.6274    6.4127 H   0  0  0  0  0  0  0  0  0  0  0  0
    1.0405  -10.2469    8.7051 H   0  0  0  0  0  0  0  0  0  0  0  0
    2.7081  -10.0827   10.5047 H   0  0  0  0  0  0  0  0  0  0  0  0
    4.4120   -8.2626   10.4419 H   0  0  0  0  0  0  0  0  0  0  0  0
    4.7551   -2.5821    3.7315 H   0  0  0  0  0  0  0  0  0  0  0  0
    3.1913   -3.1187    4.3124 H   0  0  0  0  0  0  0  0  0  0  0  0
    3.1545   -0.9875    3.0934 H   0  0  0  0  0  0  0  0  0  0  0  0
    3.2492   -0.9016    8.5532 H   0  0  0  0  0  0  0  0  0  0  0  0
    2.4475   -1.7445    7.2554 H   0  0  0  0  0  0  0  0  0  0  0  0
    1.5921   -0.6120    8.1938 H   0  0  0  0  0  0  0  0  0  0  0  0
    3.2646    1.5882    8.5549 H   0  0  0  0  0  0  0  0  0  0  0  0
    3.2664    2.5657    7.1604 H   0  0  0  0  0  0  0  0  0  0  0  0
    0.7997    1.3287    8.4395 H   0  0  0  0  0  0  0  0  0  0  0  0
    1.2605    2.9466    8.4251 H   0  0  0  0  0  0  0  0  0  0  0  0
   -0.5790    1.9801    6.7835 H   0  0  0  0  0  0  0  0  0  0  0  0
   -1.0677    4.5746    7.4860 H   0  0  0  0  0  0  0  0  0  0  0  0
    0.6405    4.9238    7.8663 H   0  0  0  0  0  0  0  0  0  0  0  0
    0.6834    4.4809    3.0253 H   0  0  0  0  0  0  0  0  0  0  0  0
   -0.9302    1.6406    4.2464 H   0  0  0  0  0  0  0  0  0  0  0  0
   -0.9292    0.0945    5.1624 H   0  0  0  0  0  0  0  0  0  0  0  0
    0.0460    0.2885    3.6825 H   0  0  0  0  0  0  0  0  0  0  0  0
    3.4800    1.5231    2.9402 H   0  0  0  0  0  0  0  0  0  0  0  0
    5.2298    0.1494    3.9886 H   0  0  0  0  0  0  0  0  0  0  0  0
    5.2012    2.2772    6.1489 H   0  0  0  0  0  0  0  0  0  0  0  0
    6.4494    1.0884    6.1262 H   0  0  0  0  0  0  0  0  0  0  0  0
    5.5334    1.3610    7.5968 H   0  0  0  0  0  0  0  0  0  0  0  0
    4.0078   -4.7593    5.0334 H   0  0  0  0  0  0  0  0  0  0  0  0
  1  2  1  0
  1 41  1  0
  1 42  1  0
  1 43  1  0
  2  3  1  0
  3 40  2  0
  3  4  1  0
  4  5  2  0
  4 44  1  0
  5  6  1  0
  5 45  1  0
  6  7  2  0
  6 46  1  0
  7 40  1  0
  7  8  1  0
  8  9  1  0
  9 10  1  0
  9 39  2  0
 10 11  1  0
 10 69  1  0
 11 12  2  3
 12 37  1  0
 12 13  1  0
 13 14  1  0
 13 47  1  0
 13 48  1  0
 14 34  1  0
 14 15  1  0
 14 49  1  6
 16 15  1  6
 16 29  1  0
 16 31  1  0
 16 17  1  0
 17 35  1  0
 17 18  1  1
 17 19  1  0
 18 50  1  0
 18 51  1  0
 18 52  1  0
 19 20  1  0
 19 53  1  0
 19 54  1  0
 20 21  1  0
 20 55  1  0
 20 56  1  0
 21 29  1  0
 21 57  1  1
 21 22  1  0
 22 23  1  0
 22 27  2  0
 23 58  1  0
 23 59  1  0
 23 24  1  0
 24 25  1  0
 25 26  2  0
 25 27  1  0
 27 28  1  0
 28 60  1  0
 29 30  1  6
 29 31  1  0
 30 61  1  0
 30 62  1  0
 30 63  1  0
 31 33  1  0
 31 32  1  1
 32 33  1  0
 33 34  1  0
 33 64  1  6
 34 35  1  0
 34 65  1  6
 35 36  1  6
 35 37  1  0
 36 66  1  0
 36 67  1  0
 36 68  1  0
 37 38  2  0
 39 40  1  0
M  END
>  <i_m_ct_stereo_status>  (130) 
1

>  <s_m_source_file>  (130) 
/var/tmp/pbs.5076255.sched01/tmpe2rv0q7i/42k21vmx8r.sdf

>  <i_m_source_file_index>  (130) 
16

>  <i_lp_mmshare_version>  (130) 
48012

>  <i_f3d_flags>  (130) 
0

>  <s_epik_input>  (130) 
W2NIXTFbY0hdW2NIXWMoT1tDSDNdKWMoYzEyKVtuSF1jKFxzMik9TlxOPUMoQzM9TykvW0NIMl1bQ0BASF0oTzQpW0NAQEhdKFtDQEBIXTVPNilbQ0BAXTMoW0NIM10pW0NAQF03KFtDSDNdKVtDSDJdW0NIMl1bQ0BIXShbQ0BAXTgoW0NIM10pW0NAQF01NltDQEBdNDc4KWM5W2NIXW9jKFtPSF0pYzlbT0hd

>  <s_epik_cmdline>  (130) 
J2VwaWtfcHl0aG9uJywgJy1waHQnLCAnMi4wJywgJy1waCcsICc3LjAnLCAnLXRuJywgJzgnLCAnLW1hJywgJzIwMCcsICctaW1hZScsICc8aW5maWxlLm1hZT4nLCAnLW9tYWUnLCAnPG91dGZpbGUubWFlPic=

>  <r_lp_tautomer_probability>  (130) 
0.98983

>  <r_epik_Ionization_Penalty>  (130) 
0.0828998

>  <r_epik_Ionization_Penalty_Charging>  (130) 
0

>  <r_epik_Ionization_Penalty_Neutral>  (130) 
0.0828998

>  <r_epik_State_Penalty>  (130) 
0.0685922

>  <r_epik_Charging_Adjusted_Penalty>  (130) 
0.0685922

>  <i_epik_Tot_Q>  (130) 
0

>  <i_epik_Tot_abs_Q>  (130) 
0

>  <s_epik_Chemistry_Notes>  (130) 
This compound has an ester and may undergo hydrolysis at high or low pH. This compound has an imine and may undergo hydrolysis.

>  <s_lp_Force_Field>  (130) 
OPLS3e

>  <r_lp_Energy>  (130) 
154.391

>  <b_lp_Chiralities_Consistent>  (130) 
1

>  <s_lp_Variant>  (130) 
41:0-1

>  <s_i_glide_gridfile>  (130) 
pfpi4k_grid

>  <i_i_glide_lignum>  (130) 
16

>  <i_i_glide_rotatable_bonds>  (130) 
5

>  <r_i_docking_score>  (130) 
-1.22959

>  <r_i_glide_ligand_efficiency>  (130) 
-0.0307399

>  <r_i_glide_ligand_efficiency_sa>  (130) 
-0.105129

>  <r_i_glide_ligand_efficiency_ln>  (130) 
-0.262236

>  <r_i_glide_gscore>  (130) 
-1.22959

>  <r_i_glide_lipo>  (130) 
-0.0419029

>  <r_i_glide_hbond>  (130) 
0

>  <r_i_glide_metal>  (130) 
-0

>  <r_i_glide_rewards>  (130) 
-0.0104314

>  <r_i_glide_evdw>  (130) 
-18.3036

>  <r_i_glide_ecoul>  (130) 
-2.18924

>  <r_i_glide_erotb>  (130) 
0.113159

>  <r_i_glide_esite>  (130) 
-0.0468546

>  <r_i_glide_emodel>  (130) 
-16.0293

>  <r_i_glide_energy>  (130) 
-20.4928

>  <r_i_glide_einternal>  (130) 
6.79484

>  <r_i_glide_intrahb_reward>  (130) 
-0

>  <i_i_glide_confnum>  (130) 
2

>  <i_i_glide_posenum>  (130) 
35

>  <r_i_glide_eff_state_penalty>  (130) 
0

>  <ligand_id>  (130) 
41

>  <original_smiles>  (130) 
COc1cccc2sc(=NN=C3CC4OC56C7(C)CCC(c8coc(O)c8O)C5(C)C65OC5C4C7(C)C3=O)[nH]c12

>  <smiles>  (130) 
[H]OC1=C(C2([H])C([H])([H])C([H])([H])C3(C([H])([H])[H])C45OC6([H])C([H])([H])C(=NN([H])c7nc8c(OC([H])([H])[H])c([H])c([H])c([H])c8s7)C(=O)C3(C([H])([H])[H])C6([H])C3([H])OC34C25C([H])([H])[H])C([H])([H])OC1=O

$$$$
41:0:2
     RDKit          3D

 69 77  0  0  1  0  0  0  0  0999 V2000
    2.2058   -9.7322    2.2104 C   0  0  0  0  0  0  0  0  0  0  0  0
    2.3820   -8.7308    3.2115 O   0  0  0  0  0  0  0  0  0  0  0  0
    1.7290   -8.8954    4.4193 C   0  0  0  0  0  0  0  0  0  0  0  0
    1.0035  -10.0635    4.7646 C   0  0  0  0  0  0  0  0  0  0  0  0
    0.3734  -10.1729    6.0086 C   0  0  0  0  0  0  0  0  0  0  0  0
    0.4242   -9.1205    6.9248 C   0  0  0  0  0  0  0  0  0  0  0  0
    1.1255   -7.9496    6.6063 C   0  0  0  0  0  0  0  0  0  0  0  0
    1.3305   -6.4866    7.5639 S   0  0  0  0  0  0  0  0  0  0  0  0
    2.3459   -5.8607    6.2742 C   0  0  0  0  0  0  0  0  0  0  0  0
    2.9375   -4.6001    6.3817 N   0  0  0  0  0  0  0  0  0  0  0  0
    2.2758   -3.6096    6.9564 N   0  0  0  0  0  0  0  0  0  0  0  0
    2.4649   -2.3976    6.5770 C   0  0  0  0  0  0  0  0  0  0  0  0
    3.3580   -2.0107    5.4089 C   0  0  0  0  0  0  0  0  0  0  0  0
    2.8880   -0.7192    4.7388 C   0  0  1  0  0  0  0  0  0  0  0  0
    1.7089   -0.8788    3.9101 O   0  0  0  0  0  0  0  0  0  0  0  0
    0.6835    0.0745    4.2156 C   0  0  2  0  0  0  0  0  0  0  0  0
    0.1076   -0.1911    5.5984 C   0  0  2  0  0  0  0  0  0  0  0  0
   -0.5316   -1.6178    5.6496 C   0  0  0  0  0  0  0  0  0  0  0  0
   -1.0891    0.7893    5.8469 C   0  0  0  0  0  0  0  0  0  0  0  0
   -2.0005    0.9404    4.6321 C   0  0  0  0  0  0  0  0  0  0  0  0
   -1.3610    1.3376    3.2835 C   0  0  1  0  0  0  0  0  0  0  0  0
   -1.5294    2.8526    3.0722 C   0  0  0  0  0  0  0  0  0  0  0  0
   -0.5167    3.8747    3.4607 C   0  0  0  0  0  0  0  0  0  0  0  0
   -1.0894    5.1204    3.0985 O   0  0  0  0  0  0  0  0  0  0  0  0
   -2.2745    4.9476    2.5260 C   0  0  0  0  0  0  0  0  0  0  0  0
   -2.9886    5.8300    2.0753 O   0  0  0  0  0  0  0  0  0  0  0  0
   -2.5931    3.5283    2.5756 C   0  0  0  0  0  0  0  0  0  0  0  0
   -3.7565    3.1031    2.1252 O   0  0  0  0  0  0  0  0  0  0  0  0
    0.0513    0.7903    3.1384 C   0  0  2  0  0  0  0  0  0  0  0  0
    0.3734    0.4623    1.6979 C   0  0  0  0  0  0  0  0  0  0  0  0
    1.2102    1.5113    3.8794 C   0  0  1  0  0  0  0  0  0  0  0  0
    1.1756    2.3277    5.0691 O   0  0  0  0  0  0  0  0  0  0  0  0
    2.3506    1.5535    4.8422 C   0  0  1  0  0  0  0  0  0  0  0  0
    2.6319    0.4056    5.7658 C   0  0  1  0  0  0  0  0  0  0  0  0
    1.3538   -0.0074    6.6132 C   0  0  1  0  0  0  0  0  0  0  0  0
    1.0926    1.0405    7.7455 C   0  0  0  0  0  0  0  0  0  0  0  0
    1.7588   -1.3311    7.3400 C   0  0  0  0  0  0  0  0  0  0  0  0
    1.5033   -1.5013    8.5425 O   0  0  0  0  0  0  0  0  0  0  0  0
    2.5003   -6.6353    5.1892 N   0  0  0  0  0  0  0  0  0  0  0  0
    1.8073   -7.8309    5.3558 C   0  0  0  0  0  0  0  0  0  0  0  0
    2.7881   -9.4458    1.3361 H   0  0  0  0  0  0  0  0  0  0  0  0
    1.1635   -9.8079    1.8950 H   0  0  0  0  0  0  0  0  0  0  0  0
    2.5622  -10.7168    2.5202 H   0  0  0  0  0  0  0  0  0  0  0  0
    0.9179  -10.9066    4.0991 H   0  0  0  0  0  0  0  0  0  0  0  0
   -0.1582  -11.0786    6.2698 H   0  0  0  0  0  0  0  0  0  0  0  0
   -0.0547   -9.2077    7.8744 H   0  0  0  0  0  0  0  0  0  0  0  0
    4.3811   -1.8826    5.7825 H   0  0  0  0  0  0  0  0  0  0  0  0
    3.3744   -2.7801    4.6276 H   0  0  0  0  0  0  0  0  0  0  0  0
    3.7007   -0.4129    4.0858 H   0  0  0  0  0  0  0  0  0  0  0  0
   -0.8749   -1.9073    6.6452 H   0  0  0  0  0  0  0  0  0  0  0  0
    0.1282   -2.4162    5.3256 H   0  0  0  0  0  0  0  0  0  0  0  0
   -1.3943   -1.7184    5.0113 H   0  0  0  0  0  0  0  0  0  0  0  0
   -1.6718    0.4651    6.7094 H   0  0  0  0  0  0  0  0  0  0  0  0
   -0.7951    1.7925    6.1215 H   0  0  0  0  0  0  0  0  0  0  0  0
   -2.6242    0.0580    4.4903 H   0  0  0  0  0  0  0  0  0  0  0  0
   -2.6133    1.7992    4.8599 H   0  0  0  0  0  0  0  0  0  0  0  0
   -1.9339    0.9056    2.4836 H   0  0  0  0  0  0  0  0  0  0  0  0
   -0.3500    3.8415    4.5351 H   0  0  0  0  0  0  0  0  0  0  0  0
    0.3790    3.6917    2.8856 H   0  0  0  0  0  0  0  0  0  0  0  0
   -4.1803    3.8558    1.7155 H   0  0  0  0  0  0  0  0  0  0  0  0
    0.1081    1.3095    1.0536 H   0  0  0  0  0  0  0  0  0  0  0  0
   -0.1663   -0.4370    1.4314 H   0  0  0  0  0  0  0  0  0  0  0  0
    1.4494    0.2800    1.6375 H   0  0  0  0  0  0  0  0  0  0  0  0
    3.2251    2.0623    4.4199 H   0  0  0  0  0  0  0  0  0  0  0  0
    3.4946    0.6704    6.3686 H   0  0  0  0  0  0  0  0  0  0  0  0
    0.9613    2.0607    7.3974 H   0  0  0  0  0  0  0  0  0  0  0  0
    1.9160    1.0999    8.4571 H   0  0  0  0  0  0  0  0  0  0  0  0
    0.1923    0.8023    8.3065 H   0  0  0  0  0  0  0  0  0  0  0  0
    3.6832   -4.4217    5.7185 H   0  0  0  0  0  0  0  0  0  0  0  0
  1  2  1  0
  1 41  1  0
  1 42  1  0
  1 43  1  0
  2  3  1  0
  3 40  2  0
  3  4  1  0
  4  5  2  0
  4 44  1  0
  5  6  1  0
  5 45  1  0
  6  7  2  0
  6 46  1  0
  7 40  1  0
  7  8  1  0
  8  9  1  0
  9 10  1  0
  9 39  2  0
 10 11  1  0
 10 69  1  0
 11 12  2  3
 12 37  1  0
 12 13  1  0
 13 14  1  0
 13 47  1  0
 13 48  1  0
 14 34  1  0
 14 15  1  0
 14 49  1  6
 16 15  1  6
 16 29  1  0
 16 31  1  0
 16 17  1  0
 17 35  1  0
 17 18  1  6
 17 19  1  0
 18 50  1  0
 18 51  1  0
 18 52  1  0
 19 20  1  0
 19 53  1  0
 19 54  1  0
 20 21  1  0
 20 55  1  0
 20 56  1  0
 21 29  1  0
 21 57  1  6
 21 22  1  0
 22 23  1  0
 22 27  2  0
 23 58  1  0
 23 59  1  0
 23 24  1  0
 24 25  1  0
 25 26  2  0
 25 27  1  0
 27 28  1  0
 28 60  1  0
 29 30  1  6
 29 31  1  0
 30 61  1  0
 30 62  1  0
 30 63  1  0
 31 33  1  0
 31 32  1  1
 32 33  1  0
 33 34  1  0
 33 64  1  6
 34 35  1  0
 34 65  1  1
 35 36  1  1
 35 37  1  0
 36 66  1  0
 36 67  1  0
 36 68  1  0
 37 38  2  0
 39 40  1  0
M  END
>  <i_m_ct_stereo_status>  (131) 
1

>  <s_m_source_file>  (131) 
/var/tmp/pbs.5076255.sched01/tmpe2rv0q7i/42k21vmx8r.sdf

>  <i_m_source_file_index>  (131) 
16

>  <i_lp_mmshare_version>  (131) 
48012

>  <i_f3d_flags>  (131) 
0

>  <s_epik_input>  (131) 
W2NIXTFbY0hdW2NIXWMoT1tDSDNdKWMoYzEyKVtuSF1jKFxzMik9TlxOPUMoQzM9TykvW0NIMl1bQ0BASF0oTzQpW0NAQEhdKFtDQEBIXTVPNilbQ0BAXTMoW0NIM10pW0NAQF03KFtDSDNdKVtDSDJdW0NIMl1bQ0BIXShbQ0BAXTgoW0NIM10pW0NAQF01NltDQEBdNDc4KWM5W2NIXW9jKFtPSF0pYzlbT0hd

>  <s_epik_cmdline>  (131) 
J2VwaWtfcHl0aG9uJywgJy1waHQnLCAnMi4wJywgJy1waCcsICc3LjAnLCAnLXRuJywgJzgnLCAnLW1hJywgJzIwMCcsICctaW1hZScsICc8aW5maWxlLm1hZT4nLCAnLW9tYWUnLCAnPG91dGZpbGUubWFlPic=

>  <r_lp_tautomer_probability>  (131) 
0.98983

>  <r_epik_Ionization_Penalty>  (131) 
0.0828998

>  <r_epik_Ionization_Penalty_Charging>  (131) 
0

>  <r_epik_Ionization_Penalty_Neutral>  (131) 
0.0828998

>  <r_epik_State_Penalty>  (131) 
0.0685922

>  <r_epik_Charging_Adjusted_Penalty>  (131) 
0.0685922

>  <i_epik_Tot_Q>  (131) 
0

>  <i_epik_Tot_abs_Q>  (131) 
0

>  <s_epik_Chemistry_Notes>  (131) 
This compound has an ester and may undergo hydrolysis at high or low pH. This compound has an imine and may undergo hydrolysis.

>  <s_lp_Force_Field>  (131) 
OPLS3e

>  <r_lp_Energy>  (131) 
154.391

>  <b_lp_Chiralities_Consistent>  (131) 
1

>  <s_lp_Variant>  (131) 
41:0-1

>  <s_i_glide_gridfile>  (131) 
pfpi4k_grid

>  <i_i_glide_lignum>  (131) 
16

>  <i_i_glide_rotatable_bonds>  (131) 
5

>  <r_i_docking_score>  (131) 
-1.00831

>  <r_i_glide_ligand_efficiency>  (131) 
-0.0252078

>  <r_i_glide_ligand_efficiency_sa>  (131) 
-0.0862093

>  <r_i_glide_ligand_efficiency_ln>  (131) 
-0.215043

>  <r_i_glide_gscore>  (131) 
-1.00831

>  <r_i_glide_lipo>  (131) 
-0.0558667

>  <r_i_glide_hbond>  (131) 
-0.256159

>  <r_i_glide_metal>  (131) 
-0

>  <r_i_glide_rewards>  (131) 
0

>  <r_i_glide_evdw>  (131) 
-15.0812

>  <r_i_glide_ecoul>  (131) 
-1.54551

>  <r_i_glide_erotb>  (131) 
0.113159

>  <r_i_glide_esite>  (131) 
-0.102627

>  <r_i_glide_emodel>  (131) 
-9.01491

>  <r_i_glide_energy>  (131) 
-16.6267

>  <r_i_glide_einternal>  (131) 
10.5189

>  <r_i_glide_intrahb_reward>  (131) 
-0

>  <i_i_glide_confnum>  (131) 
2

>  <i_i_glide_posenum>  (131) 
17

>  <r_i_glide_eff_state_penalty>  (131) 
0

>  <ligand_id>  (131) 
41

>  <original_smiles>  (131) 
COc1cccc2sc(=NN=C3CC4OC56C7(C)CCC(c8coc(O)c8O)C5(C)C65OC5C4C7(C)C3=O)[nH]c12

>  <smiles>  (131) 
[H]OC1=C(C2([H])C([H])([H])C([H])([H])C3(C([H])([H])[H])C45OC6([H])C([H])([H])C(=NN([H])c7nc8c(OC([H])([H])[H])c([H])c([H])c([H])c8s7)C(=O)C3(C([H])([H])[H])C6([H])C3([H])OC34C25C([H])([H])[H])C([H])([H])OC1=O

$$$$
41:3:0
     RDKit          3D

 68 76  0  0  1  0  0  0  0  0999 V2000
    1.0736   -6.0560    0.4035 C   0  0  0  0  0  0  0  0  0  0  0  0
    1.4341   -5.8047    1.7516 O   0  0  0  0  0  0  0  0  0  0  0  0
    0.8915   -6.5941    2.7487 C   0  0  0  0  0  0  0  0  0  0  0  0
    0.0304   -7.6949    2.5013 C   0  0  0  0  0  0  0  0  0  0  0  0
   -0.4956   -8.4535    3.5657 C   0  0  0  0  0  0  0  0  0  0  0  0
   -0.1574   -8.1274    4.8852 C   0  0  0  0  0  0  0  0  0  0  0  0
    0.6956   -7.0467    5.1370 C   0  0  0  0  0  0  0  0  0  0  0  0
    1.2638   -6.4423    6.6911 S   0  0  0  0  0  0  0  0  0  0  0  0
    2.2122   -5.2124    5.8474 C   0  0  0  0  0  0  0  0  0  0  0  0
    2.9900   -4.3726    6.5377 N   0  0  0  0  0  0  0  0  0  0  0  0
    3.7751   -3.4684    5.7614 N   0  0  0  0  0  0  0  0  0  0  0  0
    3.5928   -2.2266    5.8743 C   0  0  0  0  0  0  0  0  0  0  0  0
    4.4104   -1.3639    4.9126 C   0  0  0  0  0  0  0  0  0  0  0  0
    3.6565   -0.1264    4.4366 C   0  0  1  0  0  0  0  0  0  0  0  0
    2.5560   -0.4128    3.5314 O   0  0  0  0  0  0  0  0  0  0  0  0
    1.2951    0.1958    3.9080 C   0  0  2  0  0  0  0  0  0  0  0  0
    0.7821   -0.4732    5.1950 C   0  0  2  0  0  0  0  0  0  0  0  0
    0.5084   -2.0083    4.9694 C   0  0  0  0  0  0  0  0  0  0  0  0
   -0.6339    0.1264    5.5253 C   0  0  0  0  0  0  0  0  0  0  0  0
   -1.5608    0.2253    4.2862 C   0  0  0  0  0  0  0  0  0  0  0  0
   -1.0046    1.0455    3.0847 C   0  0  1  0  0  0  0  0  0  0  0  0
   -1.5078    2.5058    3.1205 C   0  0  0  0  0  0  0  0  0  0  0  0
   -0.7807    3.5995    3.8384 C   0  0  0  0  0  0  0  0  0  0  0  0
   -1.5376    4.7648    3.6090 O   0  0  0  0  0  0  0  0  0  0  0  0
   -2.5809    4.4978    2.8603 C   0  0  0  0  0  0  0  0  0  0  0  0
   -3.3961    5.3404    2.4811 O   0  0  0  0  0  0  0  0  0  0  0  0
   -2.5896    3.0755    2.5594 C   0  0  0  0  0  0  0  0  0  0  0  0
   -3.5447    2.5580    1.7890 O   0  0  0  0  0  0  0  0  0  0  0  0
    0.5232    0.8992    2.9286 C   0  0  2  0  0  0  0  0  0  0  0  0
    0.9927    0.9422    1.4978 C   0  0  0  0  0  0  0  0  0  0  0  0
    1.4314    1.7284    3.9086 C   0  0  1  0  0  0  0  0  0  0  0  0
    1.2513    2.2882    5.1985 O   0  0  0  0  0  0  0  0  0  0  0  0
    2.5853    1.8824    4.8398 C   0  0  1  0  0  0  0  0  0  0  0  0
    3.0918    0.6956    5.6001 C   0  0  1  0  0  0  0  0  0  0  0  0
    1.9479   -0.1721    6.2959 C   0  0  1  0  0  0  0  0  0  0  0  0
    1.4005    0.5705    7.5604 C   0  0  0  0  0  0  0  0  0  0  0  0
    2.6750   -1.4473    6.8283 C   0  0  0  0  0  0  0  0  0  0  0  0
    2.5218   -1.7951    8.0010 O   0  0  0  0  0  0  0  0  0  0  0  0
    2.0641   -5.2322    4.5076 N   0  0  0  0  0  0  0  0  0  0  0  0
    1.2392   -6.2636    4.0889 C   0  0  0  0  0  0  0  0  0  0  0  0
    1.6141   -5.3708   -0.2480 H   0  0  0  0  0  0  0  0  0  0  0  0
    0.0075   -5.9190    0.2361 H   0  0  0  0  0  0  0  0  0  0  0  0
    1.3358   -7.0612    0.1009 H   0  0  0  0  0  0  0  0  0  0  0  0
   -0.2398   -7.9939    1.4970 H   0  0  0  0  0  0  0  0  0  0  0  0
   -1.1435   -9.3026    3.3945 H   0  0  0  0  0  0  0  0  0  0  0  0
   -0.5311   -8.7064    5.7157 H   0  0  0  0  0  0  0  0  0  0  0  0
    5.3260   -1.0679    5.4236 H   0  0  0  0  0  0  0  0  0  0  0  0
    4.6932   -1.9417    4.0345 H   0  0  0  0  0  0  0  0  0  0  0  0
    4.3710    0.4883    3.8950 H   0  0  0  0  0  0  0  0  0  0  0  0
    0.2564   -2.5386    5.8833 H   0  0  0  0  0  0  0  0  0  0  0  0
    1.3451   -2.5315    4.5191 H   0  0  0  0  0  0  0  0  0  0  0  0
   -0.3058   -2.2052    4.2842 H   0  0  0  0  0  0  0  0  0  0  0  0
   -1.1148   -0.4654    6.2940 H   0  0  0  0  0  0  0  0  0  0  0  0
   -0.5818    1.1240    5.9510 H   0  0  0  0  0  0  0  0  0  0  0  0
   -1.8123   -0.7759    3.9431 H   0  0  0  0  0  0  0  0  0  0  0  0
   -2.5211    0.6236    4.5941 H   0  0  0  0  0  0  0  0  0  0  0  0
   -1.4583    0.6041    2.1927 H   0  0  0  0  0  0  0  0  0  0  0  0
   -0.7494    3.3885    4.9051 H   0  0  0  0  0  0  0  0  0  0  0  0
    0.2122    3.7562    3.4182 H   0  0  0  0  0  0  0  0  0  0  0  0
   -4.1097    3.2793    1.5381 H   0  0  0  0  0  0  0  0  0  0  0  0
    0.5280    1.7663    0.9476 H   0  0  0  0  0  0  0  0  0  0  0  0
    0.7177    0.0088    1.0360 H   0  0  0  0  0  0  0  0  0  0  0  0
    2.0800    1.0414    1.4416 H   0  0  0  0  0  0  0  0  0  0  0  0
    3.2902    2.6515    4.5545 H   0  0  0  0  0  0  0  0  0  0  0  0
    3.8502    1.0243    6.3162 H   0  0  0  0  0  0  0  0  0  0  0  0
    1.0283    1.5725    7.3758 H   0  0  0  0  0  0  0  0  0  0  0  0
    2.1681    0.6986    8.3201 H   0  0  0  0  0  0  0  0  0  0  0  0
    0.5807    0.0179    8.0227 H   0  0  0  0  0  0  0  0  0  0  0  0
  1  2  1  0
  1 41  1  0
  1 42  1  0
  1 43  1  0
  2  3  1  0
  3 40  2  0
  3  4  1  0
  4  5  2  0
  4 44  1  0
  5  6  1  0
  5 45  1  0
  6  7  2  0
  6 46  1  0
  7 40  1  0
  7  8  1  0
  8  9  1  0
  9 10  1  0
  9 39  2  0
 10 11  1  0
 11 12  2  3
 12 37  1  0
 12 13  1  0
 13 14  1  0
 13 47  1  0
 13 48  1  0
 14 34  1  0
 14 15  1  0
 14 49  1  6
 16 15  1  6
 16 29  1  0
 16 31  1  0
 16 17  1  0
 17 35  1  0
 17 18  1  6
 17 19  1  0
 18 50  1  0
 18 51  1  0
 18 52  1  0
 19 20  1  0
 19 53  1  0
 19 54  1  0
 20 21  1  0
 20 55  1  0
 20 56  1  0
 21 29  1  0
 21 57  1  6
 21 22  1  0
 22 23  1  0
 22 27  2  0
 23 58  1  0
 23 59  1  0
 23 24  1  0
 24 25  1  0
 25 26  2  0
 25 27  1  0
 27 28  1  0
 28 60  1  0
 29 30  1  6
 29 31  1  0
 30 61  1  0
 30 62  1  0
 30 63  1  0
 31 33  1  0
 31 32  1  1
 32 33  1  0
 33 34  1  0
 33 64  1  6
 34 35  1  0
 34 65  1  1
 35 36  1  1
 35 37  1  0
 36 66  1  0
 36 67  1  0
 36 68  1  0
 37 38  2  0
 39 40  1  0
M  CHG  1  10  -1
M  END
>  <i_m_ct_stereo_status>  (132) 
1

>  <s_m_source_file>  (132) 
/var/tmp/pbs.5076255.sched01/tmpe2rv0q7i/42k21vmx8r.sdf

>  <i_m_source_file_index>  (132) 
19

>  <i_lp_mmshare_version>  (132) 
48012

>  <i_f3d_flags>  (132) 
0

>  <s_epik_input>  (132) 
W2NIXTFbY0hdW2NIXWMoT1tDSDNdKWMoYzEyKVtuSF1jKFxzMik9TlxOPUMoQzM9TykvW0NIMl1bQ0BASF0oTzQpW0NAQEhdKFtDQEBIXTVPNilbQ0BAXTMoW0NIM10pW0NAQF03KFtDSDNdKVtDSDJdW0NIMl1bQ0BIXShbQ0BAXTgoW0NIM10pW0NAQF01NltDQEBdNDc4KWM5W2NIXW9jKFtPSF0pYzlbT0hd

>  <s_epik_cmdline>  (132) 
J2VwaWtfcHl0aG9uJywgJy1waHQnLCAnMi4wJywgJy1waCcsICc3LjAnLCAnLXRuJywgJzgnLCAnLW1hJywgJzIwMCcsICctaW1hZScsICc8aW5maWxlLm1hZT4nLCAnLW9tYWUnLCAnPG91dGZpbGUubWFlPic=

>  <r_lp_tautomer_probability>  (132) 
0.98983

>  <r_epik_Ionization_Penalty>  (132) 
1.45626

>  <r_epik_Ionization_Penalty_Charging>  (132) 
1.42154

>  <r_epik_Ionization_Penalty_Neutral>  (132) 
0.0347175

>  <r_epik_State_Penalty>  (132) 
1.52532

>  <r_epik_Charging_Adjusted_Penalty>  (132) 
2.94686

>  <i_epik_Tot_Q>  (132) 
-1

>  <i_epik_Tot_abs_Q>  (132) 
1

>  <s_epik_Chemistry_Notes>  (132) 
This compound has an ester and may undergo hydrolysis at high or low pH. This compound has an imine and may undergo hydrolysis.

>  <s_lp_Force_Field>  (132) 
OPLS3e

>  <r_lp_Energy>  (132) 
163.852

>  <b_lp_Chiralities_Consistent>  (132) 
1

>  <s_lp_Variant>  (132) 
41:0-4

>  <s_i_glide_gridfile>  (132) 
pfpi4k_grid

>  <i_i_glide_lignum>  (132) 
19

>  <i_i_glide_rotatable_bonds>  (132) 
5

>  <r_i_docking_score>  (132) 
-1.1207

>  <r_i_glide_ligand_efficiency>  (132) 
-0.0280175

>  <r_i_glide_ligand_efficiency_sa>  (132) 
-0.0958185

>  <r_i_glide_ligand_efficiency_ln>  (132) 
-0.239012

>  <r_i_glide_gscore>  (132) 
-1.1207

>  <r_i_glide_lipo>  (132) 
-0.0134435

>  <r_i_glide_hbond>  (132) 
-0.341849

>  <r_i_glide_metal>  (132) 
-0

>  <r_i_glide_rewards>  (132) 
0

>  <r_i_glide_evdw>  (132) 
-16.4861

>  <r_i_glide_ecoul>  (132) 
-1.55904

>  <r_i_glide_erotb>  (132) 
0.114859

>  <r_i_glide_esite>  (132) 
-0.1

>  <r_i_glide_emodel>  (132) 
-11.3945

>  <r_i_glide_energy>  (132) 
-18.0452

>  <r_i_glide_einternal>  (132) 
6.93235

>  <r_i_glide_intrahb_reward>  (132) 
-0

>  <i_i_glide_confnum>  (132) 
2

>  <i_i_glide_posenum>  (132) 
2

>  <r_i_glide_eff_state_penalty>  (132) 
0

>  <ligand_id>  (132) 
41

>  <original_smiles>  (132) 
COc1cccc2sc(=NN=C3CC4OC56C7(C)CCC(c8coc(O)c8O)C5(C)C65OC5C4C7(C)C3=O)[nH]c12

>  <smiles>  (132) 
[H]OC1=C(C2([H])C([H])([H])C([H])([H])C3(C([H])([H])[H])C45OC6([H])C([H])([H])C(=N[N-]c7nc8c(OC([H])([H])[H])c([H])c([H])c([H])c8s7)C(=O)C3(C([H])([H])[H])C6([H])C3([H])OC34C25C([H])([H])[H])C([H])([H])OC1=O

$$$$
41:4:0
     RDKit          3D

 68 76  0  0  1  0  0  0  0  0999 V2000
    3.8435   -9.2913    0.8511 C   0  0  0  0  0  0  0  0  0  0  0  0
    3.1896   -8.2368    1.5415 O   0  0  0  0  0  0  0  0  0  0  0  0
    2.1666   -8.5575    2.4118 C   0  0  0  0  0  0  0  0  0  0  0  0
    1.6728   -9.8690    2.6097 C   0  0  0  0  0  0  0  0  0  0  0  0
    0.6221  -10.1215    3.5086 C   0  0  0  0  0  0  0  0  0  0  0  0
    0.0558   -9.0575    4.2320 C   0  0  0  0  0  0  0  0  0  0  0  0
    0.5369   -7.7563    4.0535 C   0  0  0  0  0  0  0  0  0  0  0  0
    0.0135   -6.2715    4.8388 S   0  0  0  0  0  0  0  0  0  0  0  0
    1.2227   -5.4080    3.8847 C   0  0  0  0  0  0  0  0  0  0  0  0
    1.3899   -4.0287    4.0052 N   0  0  0  0  0  0  0  0  0  0  0  0
    0.7927   -3.3763    4.9875 N   0  0  0  0  0  0  0  0  0  0  0  0
    1.3029   -2.2579    5.4285 C   0  0  0  0  0  0  0  0  0  0  0  0
    2.6339   -1.7075    4.9656 C   0  0  0  0  0  0  0  0  0  0  0  0
    2.7159   -0.1826    5.1151 C   0  0  1  0  0  0  0  0  0  0  0  0
    1.9851    0.5256    4.0887 O   0  0  0  0  0  0  0  0  0  0  0  0
    1.0857    1.5302    4.5925 C   0  0  2  0  0  0  0  0  0  0  0  0
   -0.0684    0.8222    5.3256 C   0  0  2  0  0  0  0  0  0  0  0  0
   -0.8784   -0.1290    4.3627 C   0  0  0  0  0  0  0  0  0  0  0  0
   -1.1134    1.9047    5.7568 C   0  0  0  0  0  0  0  0  0  0  0  0
   -1.4345    2.9278    4.6405 C   0  0  0  0  0  0  0  0  0  0  0  0
   -0.2152    3.6950    4.0568 C   0  0  1  0  0  0  0  0  0  0  0  0
    0.0414    5.0662    4.7269 C   0  0  0  0  0  0  0  0  0  0  0  0
    0.6358    6.1956    3.9231 C   0  0  0  0  0  0  0  0  0  0  0  0
    0.7376    7.2396    4.8710 O   0  0  0  0  0  0  0  0  0  0  0  0
    0.2718    6.8945    6.0800 C   0  0  0  0  0  0  0  0  0  0  0  0
    0.2202    7.6179    7.0607 O   0  0  0  0  0  0  0  0  0  0  0  0
   -0.1993    5.4641    6.0162 C   0  0  0  0  0  0  0  0  0  0  0  0
   -0.6599    4.9814    7.0756 O   0  0  0  0  0  0  0  0  0  0  0  0
    1.0452    2.8137    3.9715 C   0  0  2  0  0  0  0  0  0  0  0  0
    1.9195    3.0748    2.7490 C   0  0  0  0  0  0  0  0  0  0  0  0
    1.8899    2.6650    5.3007 C   0  0  1  0  0  0  0  0  0  0  0  0
    1.5283    2.7441    6.6853 O   0  0  0  0  0  0  0  0  0  0  0  0
    2.5474    1.8060    6.3430 C   0  0  1  0  0  0  0  0  0  0  0  0
    2.2139    0.3291    6.4718 C   0  0  1  0  0  0  0  0  0  0  0  0
    0.6567    0.0304    6.5438 C   0  0  1  0  0  0  0  0  0  0  0  0
    0.1151    0.4312    7.9498 C   0  0  0  0  0  0  0  0  0  0  0  0
    0.5280   -1.5285    6.4543 C   0  0  0  0  0  0  0  0  0  0  0  0
   -0.2302   -2.1506    7.2318 O   0  0  0  0  0  0  0  0  0  0  0  0
    1.9582   -6.1371    3.0477 N   0  0  0  0  0  0  0  0  0  0  0  0
    1.5951   -7.4830    3.1367 C   0  0  0  0  0  0  0  0  0  0  0  0
    4.6063   -8.8708    0.1971 H   0  0  0  0  0  0  0  0  0  0  0  0
    3.1412   -9.8104    0.2007 H   0  0  0  0  0  0  0  0  0  0  0  0
    4.3390   -9.9890    1.5339 H   0  0  0  0  0  0  0  0  0  0  0  0
    2.0868  -10.7028    2.0631 H   0  0  0  0  0  0  0  0  0  0  0  0
    0.2389  -11.1235    3.6596 H   0  0  0  0  0  0  0  0  0  0  0  0
   -0.7487   -9.2499    4.9266 H   0  0  0  0  0  0  0  0  0  0  0  0
    3.4101   -2.1703    5.5821 H   0  0  0  0  0  0  0  0  0  0  0  0
    2.8718   -1.9604    3.9299 H   0  0  0  0  0  0  0  0  0  0  0  0
    3.7692    0.0814    5.0048 H   0  0  0  0  0  0  0  0  0  0  0  0
   -1.6625   -0.7016    4.8751 H   0  0  0  0  0  0  0  0  0  0  0  0
   -0.2664   -0.8502    3.8238 H   0  0  0  0  0  0  0  0  0  0  0  0
   -1.3941    0.3999    3.5682 H   0  0  0  0  0  0  0  0  0  0  0  0
   -2.0396    1.4394    6.1057 H   0  0  0  0  0  0  0  0  0  0  0  0
   -0.7698    2.4681    6.6138 H   0  0  0  0  0  0  0  0  0  0  0  0
   -1.9372    2.4249    3.8200 H   0  0  0  0  0  0  0  0  0  0  0  0
   -2.1844    3.6252    4.9972 H   0  0  0  0  0  0  0  0  0  0  0  0
   -0.4905    3.9374    3.0355 H   0  0  0  0  0  0  0  0  0  0  0  0
    1.6243    5.9680    3.5355 H   0  0  0  0  0  0  0  0  0  0  0  0
   -0.0062    6.4978    3.0965 H   0  0  0  0  0  0  0  0  0  0  0  0
    2.0957    4.1374    2.6037 H   0  0  0  0  0  0  0  0  0  0  0  0
    1.4558    2.6624    1.8617 H   0  0  0  0  0  0  0  0  0  0  0  0
    2.9024    2.6119    2.8776 H   0  0  0  0  0  0  0  0  0  0  0  0
    3.5837    2.0981    6.4992 H   0  0  0  0  0  0  0  0  0  0  0  0
    2.7634   -0.0894    7.3143 H   0  0  0  0  0  0  0  0  0  0  0  0
    0.3271    1.4602    8.2223 H   0  0  0  0  0  0  0  0  0  0  0  0
    0.5563   -0.1676    8.7520 H   0  0  0  0  0  0  0  0  0  0  0  0
   -0.9670    0.3151    8.0139 H   0  0  0  0  0  0  0  0  0  0  0  0
    2.0562   -3.5875    3.3937 H   0  0  0  0  0  0  0  0  0  0  0  0
  1  2  1  0
  1 41  1  0
  1 42  1  0
  1 43  1  0
  2  3  1  0
  3 40  2  0
  3  4  1  0
  4  5  2  0
  4 44  1  0
  5  6  1  0
  5 45  1  0
  6  7  2  0
  6 46  1  0
  7 40  1  0
  7  8  1  0
  8  9  1  0
  9 10  1  0
  9 39  2  0
 10 11  1  0
 10 68  1  0
 11 12  2  3
 12 37  1  0
 12 13  1  0
 13 14  1  0
 13 47  1  0
 13 48  1  0
 14 34  1  0
 14 15  1  0
 14 49  1  6
 16 15  1  6
 16 29  1  0
 16 31  1  0
 16 17  1  0
 17 35  1  0
 17 18  1  6
 17 19  1  0
 18 50  1  0
 18 51  1  0
 18 52  1  0
 19 20  1  0
 19 53  1  0
 19 54  1  0
 20 21  1  0
 20 55  1  0
 20 56  1  0
 21 29  1  0
 21 57  1  6
 21 22  1  0
 22 23  1  0
 22 27  2  0
 23 58  1  0
 23 59  1  0
 23 24  1  0
 24 25  1  0
 25 26  2  0
 25 27  1  0
 27 28  1  0
 29 30  1  6
 29 31  1  0
 30 60  1  0
 30 61  1  0
 30 62  1  0
 31 33  1  0
 31 32  1  1
 32 33  1  0
 33 34  1  0
 33 63  1  1
 34 35  1  0
 34 64  1  1
 35 36  1  1
 35 37  1  0
 36 65  1  0
 36 66  1  0
 36 67  1  0
 37 38  2  0
 39 40  1  0
M  CHG  1  28  -1
M  END
>  <i_m_ct_stereo_status>  (133) 
1

>  <s_m_source_file>  (133) 
/var/tmp/pbs.5076255.sched01/tmpe2rv0q7i/42k21vmx8r.sdf

>  <i_m_source_file_index>  (133) 
20

>  <i_lp_mmshare_version>  (133) 
48012

>  <i_f3d_flags>  (133) 
0

>  <s_epik_input>  (133) 
W2NIXTFbY0hdW2NIXWMoT1tDSDNdKWMoYzEyKVtuSF1jKFxzMik9TlxOPUMoQzM9TykvW0NIMl1bQ0BASF0oTzQpW0NAQEhdKFtDQEBIXTVPNilbQ0BAXTMoW0NIM10pW0NAQF03KFtDSDNdKVtDSDJdW0NIMl1bQ0BIXShbQ0BAXTgoW0NIM10pW0NAQF01NltDQEBdNDc4KWM5W2NIXW9jKFtPSF0pYzlbT0hd

>  <s_epik_cmdline>  (133) 
J2VwaWtfcHl0aG9uJywgJy1waHQnLCAnMi4wJywgJy1waCcsICc3LjAnLCAnLXRuJywgJzgnLCAnLW1hJywgJzIwMCcsICctaW1hZScsICc8aW5maWxlLm1hZT4nLCAnLW9tYWUnLCAnPG91dGZpbGUubWFlPic=

>  <r_epik_Ionization_Penalty>  (133) 
1.91061

>  <r_epik_Ionization_Penalty_Charging>  (133) 
1.8542

>  <r_epik_Ionization_Penalty_Neutral>  (133) 
0.0564017

>  <r_epik_State_Penalty>  (133) 
2.0189

>  <r_epik_Charging_Adjusted_Penalty>  (133) 
3.87311

>  <i_epik_Tot_Q>  (133) 
-1

>  <i_epik_Tot_abs_Q>  (133) 
1

>  <s_epik_Chemistry_Notes>  (133) 
This compound has an ester and may undergo hydrolysis at high or low pH. This compound has an imine and may undergo hydrolysis.

>  <s_lp_Force_Field>  (133) 
OPLS3e

>  <r_lp_Energy>  (133) 
161.862

>  <b_lp_Chiralities_Consistent>  (133) 
1

>  <s_lp_Variant>  (133) 
41:0-5

>  <s_i_glide_gridfile>  (133) 
pfpi4k_grid

>  <i_i_glide_lignum>  (133) 
20

>  <i_i_glide_rotatable_bonds>  (133) 
4

>  <r_i_docking_score>  (133) 
-1.91343

>  <r_i_glide_ligand_efficiency>  (133) 
-0.0478358

>  <r_i_glide_ligand_efficiency_sa>  (133) 
-0.163596

>  <r_i_glide_ligand_efficiency_ln>  (133) 
-0.408078

>  <r_i_glide_gscore>  (133) 
-1.91343

>  <r_i_glide_lipo>  (133) 
-0.0900662

>  <r_i_glide_hbond>  (133) 
-0.0150651

>  <r_i_glide_metal>  (133) 
-0

>  <r_i_glide_rewards>  (133) 
0

>  <r_i_glide_evdw>  (133) 
-31.0453

>  <r_i_glide_ecoul>  (133) 
-2.14121

>  <r_i_glide_erotb>  (133) 
0.114859

>  <r_i_glide_esite>  (133) 
-0.0497092

>  <r_i_glide_emodel>  (133) 
-32.9151

>  <r_i_glide_energy>  (133) 
-33.1865

>  <r_i_glide_einternal>  (133) 
3.60455

>  <r_i_glide_intrahb_reward>  (133) 
-0

>  <i_i_glide_confnum>  (133) 
2

>  <i_i_glide_posenum>  (133) 
15

>  <r_i_glide_eff_state_penalty>  (133) 
0

>  <ligand_id>  (133) 
41

>  <original_smiles>  (133) 
COc1cccc2sc(=NN=C3CC4OC56C7(C)CCC(c8coc(O)c8O)C5(C)C65OC5C4C7(C)C3=O)[nH]c12

>  <smiles>  (133) 
[H]c1c([H])c([H])c2sc(N([H])N=C3C(=O)C4(C([H])([H])[H])C5([H])C([H])(OC67C8(OC58[H])C6(C([H])([H])[H])C([H])(C5=C([O-])C(=O)OC5([H])[H])C([H])([H])C([H])([H])C74C([H])([H])[H])C3([H])[H])nc2c1OC([H])([H])[H]

$$$$
41:4:1
     RDKit          3D

 68 76  0  0  1  0  0  0  0  0999 V2000
    3.6471  -11.5429    5.1082 C   0  0  0  0  0  0  0  0  0  0  0  0
    4.0826  -10.2414    4.7472 O   0  0  0  0  0  0  0  0  0  0  0  0
    4.9118  -10.0924    3.6531 C   0  0  0  0  0  0  0  0  0  0  0  0
    5.4292  -11.1679    2.8907 C   0  0  0  0  0  0  0  0  0  0  0  0
    6.2779  -10.9275    1.7927 C   0  0  0  0  0  0  0  0  0  0  0  0
    6.6082   -9.6114    1.4292 C   0  0  0  0  0  0  0  0  0  0  0  0
    6.0986   -8.5413    2.1832 C   0  0  0  0  0  0  0  0  0  0  0  0
    6.3557   -6.8141    1.9609 S   0  0  0  0  0  0  0  0  0  0  0  0
    5.3276   -6.5270    3.3630 C   0  0  0  0  0  0  0  0  0  0  0  0
    5.1053   -5.2154    3.7658 N   0  0  0  0  0  0  0  0  0  0  0  0
    4.4063   -4.9228    4.8585 N   0  0  0  0  0  0  0  0  0  0  0  0
    4.2213   -3.6774    5.1683 C   0  0  0  0  0  0  0  0  0  0  0  0
    4.7832   -2.5155    4.3692 C   0  0  0  0  0  0  0  0  0  0  0  0
    3.9371   -1.2411    4.5029 C   0  0  1  0  0  0  0  0  0  0  0  0
    2.7159   -1.2940    3.7323 O   0  0  0  0  0  0  0  0  0  0  0  0
    1.5291   -0.9637    4.4817 C   0  0  2  0  0  0  0  0  0  0  0  0
    1.2662   -2.0792    5.5047 C   0  0  2  0  0  0  0  0  0  0  0  0
    1.0205   -3.4682    4.7963 C   0  0  0  0  0  0  0  0  0  0  0  0
   -0.0899   -1.7678    6.2279 C   0  0  0  0  0  0  0  0  0  0  0  0
   -1.2147   -1.3474    5.2524 C   0  0  0  0  0  0  0  0  0  0  0  0
   -0.9119   -0.1048    4.3624 C   0  0  1  0  0  0  0  0  0  0  0  0
   -1.3894    1.2322    4.9307 C   0  0  0  0  0  0  0  0  0  0  0  0
   -1.5230    2.4544    4.0653 C   0  0  0  0  0  0  0  0  0  0  0  0
   -1.9975    3.4540    4.9419 O   0  0  0  0  0  0  0  0  0  0  0  0
   -2.1697    2.9729    6.1855 C   0  0  0  0  0  0  0  0  0  0  0  0
   -2.5862    3.6382    7.1486 O   0  0  0  0  0  0  0  0  0  0  0  0
   -1.7949    1.5321    6.2159 C   0  0  0  0  0  0  0  0  0  0  0  0
   -1.9209    0.8988    7.2833 O   0  0  0  0  0  0  0  0  0  0  0  0
    0.5633   -0.0701    3.9085 C   0  0  2  0  0  0  0  0  0  0  0  0
    0.7780    0.4507    2.4864 C   0  0  0  0  0  0  0  0  0  0  0  0
    1.5906    0.5296    4.9492 C   0  0  1  0  0  0  0  0  0  0  0  0
    1.5852    0.6280    6.3783 O   0  0  0  0  0  0  0  0  0  0  0  0
    2.8577    0.4316    5.7476 C   0  0  1  0  0  0  0  0  0  0  0  0
    3.5511   -0.9095    5.9513 C   0  0  1  0  0  0  0  0  0  0  0  0
    2.5812   -2.0619    6.4541 C   0  0  1  0  0  0  0  0  0  0  0  0
    2.2478   -1.8340    7.9608 C   0  0  0  0  0  0  0  0  0  0  0  0
    3.4263   -3.3863    6.3902 C   0  0  0  0  0  0  0  0  0  0  0  0
    3.4399   -4.1774    7.3405 O   0  0  0  0  0  0  0  0  0  0  0  0
    4.8218   -7.6108    3.9590 N   0  0  0  0  0  0  0  0  0  0  0  0
    5.2446   -8.7612    3.3057 C   0  0  0  0  0  0  0  0  0  0  0  0
    3.0172  -11.4678    5.9955 H   0  0  0  0  0  0  0  0  0  0  0  0
    4.4852  -12.1948    5.3570 H   0  0  0  0  0  0  0  0  0  0  0  0
    3.0491  -11.9969    4.3169 H   0  0  0  0  0  0  0  0  0  0  0  0
    5.1784  -12.1915    3.1211 H   0  0  0  0  0  0  0  0  0  0  0  0
    6.6382  -11.7656    1.2110 H   0  0  0  0  0  0  0  0  0  0  0  0
    7.2438   -9.4264    0.5778 H   0  0  0  0  0  0  0  0  0  0  0  0
    5.7948   -2.3141    4.7303 H   0  0  0  0  0  0  0  0  0  0  0  0
    4.8757   -2.7421    3.3059 H   0  0  0  0  0  0  0  0  0  0  0  0
    4.5351   -0.4215    4.0981 H   0  0  0  0  0  0  0  0  0  0  0  0
    0.9052   -4.2970    5.5067 H   0  0  0  0  0  0  0  0  0  0  0  0
    1.8049   -3.7573    4.0994 H   0  0  0  0  0  0  0  0  0  0  0  0
    0.1272   -3.4949    4.1818 H   0  0  0  0  0  0  0  0  0  0  0  0
   -0.4170   -2.6269    6.8217 H   0  0  0  0  0  0  0  0  0  0  0  0
    0.0072   -0.9648    6.9478 H   0  0  0  0  0  0  0  0  0  0  0  0
   -1.4286   -2.1833    4.6029 H   0  0  0  0  0  0  0  0  0  0  0  0
   -2.1451   -1.2124    5.7966 H   0  0  0  0  0  0  0  0  0  0  0  0
   -1.5116   -0.2466    3.4659 H   0  0  0  0  0  0  0  0  0  0  0  0
   -0.5587    2.7575    3.6563 H   0  0  0  0  0  0  0  0  0  0  0  0
   -2.2374    2.3080    3.2493 H   0  0  0  0  0  0  0  0  0  0  0  0
    0.2232    1.3669    2.3004 H   0  0  0  0  0  0  0  0  0  0  0  0
    0.4839   -0.2867    1.7495 H   0  0  0  0  0  0  0  0  0  0  0  0
    1.8312    0.6967    2.3225 H   0  0  0  0  0  0  0  0  0  0  0  0
    3.4921    1.3042    5.5936 H   0  0  0  0  0  0  0  0  0  0  0  0
    4.4183   -0.7783    6.5958 H   0  0  0  0  0  0  0  0  0  0  0  0
    1.8328   -0.8528    8.1714 H   0  0  0  0  0  0  0  0  0  0  0  0
    3.1334   -1.9087    8.5959 H   0  0  0  0  0  0  0  0  0  0  0  0
    1.5268   -2.5656    8.3293 H   0  0  0  0  0  0  0  0  0  0  0  0
    5.4880   -4.4825    3.1896 H   0  0  0  0  0  0  0  0  0  0  0  0
  1  2  1  0
  1 41  1  0
  1 42  1  0
  1 43  1  0
  2  3  1  0
  3 40  2  0
  3  4  1  0
  4  5  2  0
  4 44  1  0
  5  6  1  0
  5 45  1  0
  6  7  2  0
  6 46  1  0
  7 40  1  0
  7  8  1  0
  8  9  1  0
  9 10  1  0
  9 39  2  0
 10 11  1  0
 10 68  1  0
 11 12  2  3
 12 37  1  0
 12 13  1  0
 13 14  1  0
 13 47  1  0
 13 48  1  0
 14 34  1  0
 14 15  1  0
 14 49  1  6
 16 15  1  6
 16 29  1  0
 16 31  1  0
 16 17  1  0
 17 35  1  0
 17 18  1  6
 17 19  1  0
 18 50  1  0
 18 51  1  0
 18 52  1  0
 19 20  1  0
 19 53  1  0
 19 54  1  0
 20 21  1  0
 20 55  1  0
 20 56  1  0
 21 29  1  0
 21 57  1  6
 21 22  1  0
 22 23  1  0
 22 27  2  0
 23 58  1  0
 23 59  1  0
 23 24  1  0
 24 25  1  0
 25 26  2  0
 25 27  1  0
 27 28  1  0
 29 30  1  6
 29 31  1  0
 30 60  1  0
 30 61  1  0
 30 62  1  0
 31 33  1  0
 31 32  1  1
 32 33  1  0
 33 34  1  0
 33 63  1  6
 34 35  1  0
 34 64  1  1
 35 36  1  1
 35 37  1  0
 36 65  1  0
 36 66  1  0
 36 67  1  0
 37 38  2  0
 39 40  1  0
M  CHG  1  28  -1
M  END
>  <i_m_ct_stereo_status>  (134) 
1

>  <s_m_source_file>  (134) 
/var/tmp/pbs.5076255.sched01/tmpe2rv0q7i/42k21vmx8r.sdf

>  <i_m_source_file_index>  (134) 
20

>  <i_lp_mmshare_version>  (134) 
48012

>  <i_f3d_flags>  (134) 
0

>  <s_epik_input>  (134) 
W2NIXTFbY0hdW2NIXWMoT1tDSDNdKWMoYzEyKVtuSF1jKFxzMik9TlxOPUMoQzM9TykvW0NIMl1bQ0BASF0oTzQpW0NAQEhdKFtDQEBIXTVPNilbQ0BAXTMoW0NIM10pW0NAQF03KFtDSDNdKVtDSDJdW0NIMl1bQ0BIXShbQ0BAXTgoW0NIM10pW0NAQF01NltDQEBdNDc4KWM5W2NIXW9jKFtPSF0pYzlbT0hd

>  <s_epik_cmdline>  (134) 
J2VwaWtfcHl0aG9uJywgJy1waHQnLCAnMi4wJywgJy1waCcsICc3LjAnLCAnLXRuJywgJzgnLCAnLW1hJywgJzIwMCcsICctaW1hZScsICc8aW5maWxlLm1hZT4nLCAnLW9tYWUnLCAnPG91dGZpbGUubWFlPic=

>  <r_epik_Ionization_Penalty>  (134) 
1.91061

>  <r_epik_Ionization_Penalty_Charging>  (134) 
1.8542

>  <r_epik_Ionization_Penalty_Neutral>  (134) 
0.0564017

>  <r_epik_State_Penalty>  (134) 
2.0189

>  <r_epik_Charging_Adjusted_Penalty>  (134) 
3.87311

>  <i_epik_Tot_Q>  (134) 
-1

>  <i_epik_Tot_abs_Q>  (134) 
1

>  <s_epik_Chemistry_Notes>  (134) 
This compound has an ester and may undergo hydrolysis at high or low pH. This compound has an imine and may undergo hydrolysis.

>  <s_lp_Force_Field>  (134) 
OPLS3e

>  <r_lp_Energy>  (134) 
161.862

>  <b_lp_Chiralities_Consistent>  (134) 
1

>  <s_lp_Variant>  (134) 
41:0-5

>  <s_i_glide_gridfile>  (134) 
pfpi4k_grid

>  <i_i_glide_lignum>  (134) 
20

>  <i_i_glide_rotatable_bonds>  (134) 
4

>  <r_i_docking_score>  (134) 
-1.77833

>  <r_i_glide_ligand_efficiency>  (134) 
-0.0444582

>  <r_i_glide_ligand_efficiency_sa>  (134) 
-0.152045

>  <r_i_glide_ligand_efficiency_ln>  (134) 
-0.379265

>  <r_i_glide_gscore>  (134) 
-1.77833

>  <r_i_glide_lipo>  (134) 
-0.138656

>  <r_i_glide_hbond>  (134) 
-0.2

>  <r_i_glide_metal>  (134) 
-0

>  <r_i_glide_rewards>  (134) 
-0.114292

>  <r_i_glide_evdw>  (134) 
-26.5223

>  <r_i_glide_ecoul>  (134) 
-0.760847

>  <r_i_glide_erotb>  (134) 
0.114859

>  <r_i_glide_esite>  (134) 
0

>  <r_i_glide_emodel>  (134) 
-28.054

>  <r_i_glide_energy>  (134) 
-27.2831

>  <r_i_glide_einternal>  (134) 
0.0785142

>  <r_i_glide_intrahb_reward>  (134) 
-0

>  <i_i_glide_confnum>  (134) 
2

>  <i_i_glide_posenum>  (134) 
10

>  <r_i_glide_eff_state_penalty>  (134) 
0

>  <ligand_id>  (134) 
41

>  <original_smiles>  (134) 
COc1cccc2sc(=NN=C3CC4OC56C7(C)CCC(c8coc(O)c8O)C5(C)C65OC5C4C7(C)C3=O)[nH]c12

>  <smiles>  (134) 
[H]c1c([H])c([H])c2sc(N([H])N=C3C(=O)C4(C([H])([H])[H])C5([H])C([H])(OC67C8(OC58[H])C6(C([H])([H])[H])C([H])(C5=C([O-])C(=O)OC5([H])[H])C([H])([H])C([H])([H])C74C([H])([H])[H])C3([H])[H])nc2c1OC([H])([H])[H]

$$$$
41:4:2
     RDKit          3D

 68 76  0  0  1  0  0  0  0  0999 V2000
    6.0583   -9.3231    3.9533 C   0  0  0  0  0  0  0  0  0  0  0  0
    5.6761   -8.0900    4.5468 O   0  0  0  0  0  0  0  0  0  0  0  0
    4.7480   -8.1050    5.5713 C   0  0  0  0  0  0  0  0  0  0  0  0
    4.1766   -9.2950    6.1002 C   0  0  0  0  0  0  0  0  0  0  0  0
    3.2333   -9.2406    7.1459 C   0  0  0  0  0  0  0  0  0  0  0  0
    2.8511   -7.9956    7.6720 C   0  0  0  0  0  0  0  0  0  0  0  0
    3.4082   -6.8144    7.1575 C   0  0  0  0  0  0  0  0  0  0  0  0
    3.0955   -5.1473    7.6358 S   0  0  0  0  0  0  0  0  0  0  0  0
    4.2683   -4.6327    6.4223 C   0  0  0  0  0  0  0  0  0  0  0  0
    4.5602   -3.2829    6.2157 N   0  0  0  0  0  0  0  0  0  0  0  0
    3.8693   -2.3517    6.8414 N   0  0  0  0  0  0  0  0  0  0  0  0
    3.7976   -1.1501    6.3369 C   0  0  0  0  0  0  0  0  0  0  0  0
    4.4231   -0.7630    5.0172 C   0  0  0  0  0  0  0  0  0  0  0  0
    3.6572    0.3709    4.3392 C   0  0  1  0  0  0  0  0  0  0  0  0
    2.4070   -0.0558    3.7440 O   0  0  0  0  0  0  0  0  0  0  0  0
    1.2716    0.7477    4.1218 C   0  0  2  0  0  0  0  0  0  0  0  0
    0.9630    0.5094    5.5971 C   0  0  2  0  0  0  0  0  0  0  0  0
    0.6058   -1.0035    5.8718 C   0  0  0  0  0  0  0  0  0  0  0  0
   -0.3551    1.2831    5.9688 C   0  0  0  0  0  0  0  0  0  0  0  0
   -1.4804    1.1062    4.9207 C   0  0  0  0  0  0  0  0  0  0  0  0
   -1.1249    1.5398    3.4780 C   0  0  1  0  0  0  0  0  0  0  0  0
   -1.5608    2.9942    3.1788 C   0  0  0  0  0  0  0  0  0  0  0  0
   -0.6814    4.1676    3.4588 C   0  0  0  0  0  0  0  0  0  0  0  0
   -1.3954    5.2724    2.9750 O   0  0  0  0  0  0  0  0  0  0  0  0
   -2.5872    4.9215    2.4874 C   0  0  0  0  0  0  0  0  0  0  0  0
   -3.4362    5.7093    2.0820 O   0  0  0  0  0  0  0  0  0  0  0  0
   -2.7553    3.4186    2.5934 C   0  0  0  0  0  0  0  0  0  0  0  0
   -3.7953    2.9602    2.1592 O   0  0  0  0  0  0  0  0  0  0  0  0
    0.3452    1.1989    3.1174 C   0  0  2  0  0  0  0  0  0  0  0  0
    0.5422    0.7561    1.6806 C   0  0  0  0  0  0  0  0  0  0  0  0
    1.4680    2.2013    3.6040 C   0  0  1  0  0  0  0  0  0  0  0  0
    1.5288    3.1091    4.7175 O   0  0  0  0  0  0  0  0  0  0  0  0
    2.7594    2.5032    4.3162 C   0  0  1  0  0  0  0  0  0  0  0  0
    3.3468    1.5309    5.2898 C   0  0  1  0  0  0  0  0  0  0  0  0
    2.3018    1.0034    6.3697 C   0  0  1  0  0  0  0  0  0  0  0  0
    2.0206    2.1123    7.4336 C   0  0  0  0  0  0  0  0  0  0  0  0
    3.0511   -0.1428    7.1322 C   0  0  0  0  0  0  0  0  0  0  0  0
    3.0353   -0.2093    8.3622 O   0  0  0  0  0  0  0  0  0  0  0  0
    4.8393   -5.6009    5.6991 N   0  0  0  0  0  0  0  0  0  0  0  0
    4.3651   -6.8496    6.1045 C   0  0  0  0  0  0  0  0  0  0  0  0
    6.7794   -9.1193    3.1612 H   0  0  0  0  0  0  0  0  0  0  0  0
    5.2091   -9.8366    3.4962 H   0  0  0  0  0  0  0  0  0  0  0  0
    6.5442   -9.9872    4.6717 H   0  0  0  0  0  0  0  0  0  0  0  0
    4.4408  -10.2680    5.7248 H   0  0  0  0  0  0  0  0  0  0  0  0
    2.7960  -10.1521    7.5433 H   0  0  0  0  0  0  0  0  0  0  0  0
    2.1326   -7.9388    8.4683 H   0  0  0  0  0  0  0  0  0  0  0  0
    5.4536   -0.4432    5.2001 H   0  0  0  0  0  0  0  0  0  0  0  0
    4.4590   -1.5916    4.3097 H   0  0  0  0  0  0  0  0  0  0  0  0
    4.2895    0.7457    3.5325 H   0  0  0  0  0  0  0  0  0  0  0  0
    0.4589   -1.2303    6.9333 H   0  0  0  0  0  0  0  0  0  0  0  0
    1.3491   -1.7084    5.5029 H   0  0  0  0  0  0  0  0  0  0  0  0
   -0.3056   -1.3288    5.3818 H   0  0  0  0  0  0  0  0  0  0  0  0
   -0.7211    0.9783    6.9523 H   0  0  0  0  0  0  0  0  0  0  0  0
   -0.1966    2.3523    6.0649 H   0  0  0  0  0  0  0  0  0  0  0  0
   -1.8146    0.0722    4.8934 H   0  0  0  0  0  0  0  0  0  0  0  0
   -2.3580    1.6470    5.2514 H   0  0  0  0  0  0  0  0  0  0  0  0
   -1.7524    0.9411    2.8282 H   0  0  0  0  0  0  0  0  0  0  0  0
   -0.4741    4.2738    4.5224 H   0  0  0  0  0  0  0  0  0  0  0  0
    0.2623    4.1456    2.9285 H   0  0  0  0  0  0  0  0  0  0  0  0
    0.0329    1.4294    0.9903 H   0  0  0  0  0  0  0  0  0  0  0  0
    0.1835   -0.2555    1.5465 H   0  0  0  0  0  0  0  0  0  0  0  0
    1.6022    0.7724    1.4113 H   0  0  0  0  0  0  0  0  0  0  0  0
    3.4282    3.0932    3.6890 H   0  0  0  0  0  0  0  0  0  0  0  0
    4.2308    1.9871    5.7414 H   0  0  0  0  0  0  0  0  0  0  0  0
    1.6690    3.0517    7.0188 H   0  0  0  0  0  0  0  0  0  0  0  0
    2.9152    2.3798    8.0006 H   0  0  0  0  0  0  0  0  0  0  0  0
    1.2622    1.7997    8.1557 H   0  0  0  0  0  0  0  0  0  0  0  0
    5.2237   -3.0639    5.4855 H   0  0  0  0  0  0  0  0  0  0  0  0
  1  2  1  0
  1 41  1  0
  1 42  1  0
  1 43  1  0
  2  3  1  0
  3 40  2  0
  3  4  1  0
  4  5  2  0
  4 44  1  0
  5  6  1  0
  5 45  1  0
  6  7  2  0
  6 46  1  0
  7 40  1  0
  7  8  1  0
  8  9  1  0
  9 10  1  0
  9 39  2  0
 10 11  1  0
 10 68  1  0
 11 12  2  3
 12 37  1  0
 12 13  1  0
 13 14  1  0
 13 47  1  0
 13 48  1  0
 14 34  1  0
 14 15  1  0
 14 49  1  6
 16 15  1  6
 16 29  1  0
 16 31  1  0
 16 17  1  0
 17 35  1  0
 17 18  1  6
 17 19  1  0
 18 50  1  0
 18 51  1  0
 18 52  1  0
 19 20  1  0
 19 53  1  0
 19 54  1  0
 20 21  1  0
 20 55  1  0
 20 56  1  0
 21 29  1  0
 21 57  1  6
 21 22  1  0
 22 23  1  0
 22 27  2  0
 23 58  1  0
 23 59  1  0
 23 24  1  0
 24 25  1  0
 25 26  2  0
 25 27  1  0
 27 28  1  0
 29 30  1  6
 29 31  1  0
 30 60  1  0
 30 61  1  0
 30 62  1  0
 31 33  1  0
 31 32  1  1
 32 33  1  0
 33 34  1  0
 33 63  1  6
 34 35  1  0
 34 64  1  1
 35 36  1  1
 35 37  1  0
 36 65  1  0
 36 66  1  0
 36 67  1  0
 37 38  2  0
 39 40  1  0
M  CHG  1  28  -1
M  END
>  <i_m_ct_stereo_status>  (135) 
1

>  <s_m_source_file>  (135) 
/var/tmp/pbs.5076255.sched01/tmpe2rv0q7i/42k21vmx8r.sdf

>  <i_m_source_file_index>  (135) 
20

>  <i_lp_mmshare_version>  (135) 
48012

>  <i_f3d_flags>  (135) 
0

>  <s_epik_input>  (135) 
W2NIXTFbY0hdW2NIXWMoT1tDSDNdKWMoYzEyKVtuSF1jKFxzMik9TlxOPUMoQzM9TykvW0NIMl1bQ0BASF0oTzQpW0NAQEhdKFtDQEBIXTVPNilbQ0BAXTMoW0NIM10pW0NAQF03KFtDSDNdKVtDSDJdW0NIMl1bQ0BIXShbQ0BAXTgoW0NIM10pW0NAQF01NltDQEBdNDc4KWM5W2NIXW9jKFtPSF0pYzlbT0hd

>  <s_epik_cmdline>  (135) 
J2VwaWtfcHl0aG9uJywgJy1waHQnLCAnMi4wJywgJy1waCcsICc3LjAnLCAnLXRuJywgJzgnLCAnLW1hJywgJzIwMCcsICctaW1hZScsICc8aW5maWxlLm1hZT4nLCAnLW9tYWUnLCAnPG91dGZpbGUubWFlPic=

>  <r_epik_Ionization_Penalty>  (135) 
1.91061

>  <r_epik_Ionization_Penalty_Charging>  (135) 
1.8542

>  <r_epik_Ionization_Penalty_Neutral>  (135) 
0.0564017

>  <r_epik_State_Penalty>  (135) 
2.0189

>  <r_epik_Charging_Adjusted_Penalty>  (135) 
3.87311

>  <i_epik_Tot_Q>  (135) 
-1

>  <i_epik_Tot_abs_Q>  (135) 
1

>  <s_epik_Chemistry_Notes>  (135) 
This compound has an ester and may undergo hydrolysis at high or low pH. This compound has an imine and may undergo hydrolysis.

>  <s_lp_Force_Field>  (135) 
OPLS3e

>  <r_lp_Energy>  (135) 
161.862

>  <b_lp_Chiralities_Consistent>  (135) 
1

>  <s_lp_Variant>  (135) 
41:0-5

>  <s_i_glide_gridfile>  (135) 
pfpi4k_grid

>  <i_i_glide_lignum>  (135) 
20

>  <i_i_glide_rotatable_bonds>  (135) 
4

>  <r_i_docking_score>  (135) 
-0.915246

>  <r_i_glide_ligand_efficiency>  (135) 
-0.0228811

>  <r_i_glide_ligand_efficiency_sa>  (135) 
-0.0782524

>  <r_i_glide_ligand_efficiency_ln>  (135) 
-0.195195

>  <r_i_glide_gscore>  (135) 
-0.915246

>  <r_i_glide_lipo>  (135) 
-0.0176833

>  <r_i_glide_hbond>  (135) 
-0.22578

>  <r_i_glide_metal>  (135) 
-0

>  <r_i_glide_rewards>  (135) 
0

>  <r_i_glide_evdw>  (135) 
-13.2847

>  <r_i_glide_ecoul>  (135) 
-1.09304

>  <r_i_glide_erotb>  (135) 
0.114859

>  <r_i_glide_esite>  (135) 
-0.1

>  <r_i_glide_emodel>  (135) 
-9.98155

>  <r_i_glide_energy>  (135) 
-14.3778

>  <r_i_glide_einternal>  (135) 
5.31746

>  <r_i_glide_intrahb_reward>  (135) 
-0

>  <i_i_glide_confnum>  (135) 
2

>  <i_i_glide_posenum>  (135) 
1

>  <r_i_glide_eff_state_penalty>  (135) 
0

>  <ligand_id>  (135) 
41

>  <original_smiles>  (135) 
COc1cccc2sc(=NN=C3CC4OC56C7(C)CCC(c8coc(O)c8O)C5(C)C65OC5C4C7(C)C3=O)[nH]c12

>  <smiles>  (135) 
[H]c1c([H])c([H])c2sc(N([H])N=C3C(=O)C4(C([H])([H])[H])C5([H])C([H])(OC67C8(OC58[H])C6(C([H])([H])[H])C([H])(C5=C([O-])C(=O)OC5([H])[H])C([H])([H])C([H])([H])C74C([H])([H])[H])C3([H])[H])nc2c1OC([H])([H])[H]

$$$$
42:0:0
     RDKit          3D

 71 79  0  0  1  0  0  0  0  0999 V2000
    2.5225   -5.1117    0.0969 C   0  0  0  0  0  0  0  0  0  0  0  0
    2.0665   -6.0130    1.2390 C   0  0  0  0  0  0  0  0  0  0  0  0
    2.6995   -7.0809    1.7567 C   0  0  0  0  0  0  0  0  0  0  0  0
    4.0773   -7.5946    1.3955 C   0  0  0  0  0  0  0  0  0  0  0  0
    4.7660   -7.5293    2.7828 C   0  0  2  0  0  0  0  0  0  0  0  0
    5.2352   -5.9899    2.7971 C   0  0  0  0  0  0  0  0  0  0  0  0
    6.4009   -5.7311    1.8916 C   0  0  0  0  0  0  0  0  0  0  0  0
    7.2829   -6.7217    1.5712 C   0  0  0  0  0  0  0  0  0  0  0  0
    8.2565   -6.2187    0.7242 N   0  0  0  0  0  0  0  0  0  0  0  0
    8.0218   -4.8695    0.4860 C   0  0  0  0  0  0  0  0  0  0  0  0
    8.7063   -3.9101   -0.2841 C   0  0  0  0  0  0  0  0  0  0  0  0
    8.2490   -2.5814   -0.3173 C   0  0  0  0  0  0  0  0  0  0  0  0
    7.0869   -2.2257    0.3898 C   0  0  0  0  0  0  0  0  0  0  0  0
    6.3900   -3.1999    1.1397 C   0  0  0  0  0  0  0  0  0  0  0  0
    6.8497   -4.5419    1.2184 C   0  0  0  0  0  0  0  0  0  0  0  0
    7.1689   -8.1319    2.0194 C   0  0  0  0  0  0  0  0  0  0  0  0
    6.0588   -8.3406    3.0931 C   0  0  1  0  0  0  0  0  0  0  0  0
    6.5122   -7.9223    4.4786 N   0  0  2  0  0  0  0  0  0  0  0  0
    7.6206   -8.7511    5.0158 C   0  0  0  0  0  0  0  0  0  0  0  0
    5.4342   -7.7575    5.5282 C   0  0  0  0  0  0  0  0  0  0  0  0
    4.0424   -7.2233    5.0634 C   0  0  0  0  0  0  0  0  0  0  0  0
    3.6277   -8.0239    3.8198 C   0  0  2  0  0  0  0  0  0  0  0  0
    3.4733   -9.5888    4.2050 C   0  0  2  0  0  0  0  0  0  0  0  0
    2.9427  -10.1654    2.9040 C   0  0  0  0  0  0  0  0  0  0  0  0
    1.7607   -9.1924    2.6741 C   0  0  1  0  0  0  0  0  0  0  0  0
    0.5975   -9.6512    3.5527 C   0  0  2  0  0  0  0  0  0  0  0  0
    0.1698   -9.2227    4.9747 C   0  0  1  0  0  0  0  0  0  0  0  0
    0.8494   -8.5782    6.1228 C   0  0  0  0  0  0  0  0  0  0  0  0
    2.0230   -9.1553    6.4011 C   0  0  0  0  0  0  0  0  0  0  0  0
    2.8032   -9.0081    7.7000 C   0  0  0  0  0  0  0  0  0  0  0  0
    3.0166  -10.2585    8.3126 O   0  0  0  0  0  0  0  0  0  0  0  0
    2.4504  -10.1215    5.3301 C   0  0  1  0  0  0  0  0  0  0  0  0
    1.0599  -10.4049    4.7578 C   0  0  2  0  0  0  0  0  0  0  0  0
    2.2884   -7.7725    3.0414 C   0  0  2  0  0  0  0  0  0  0  0  0
    9.0279   -6.7824    0.3849 H   0  0  0  0  0  0  0  0  0  0  0  0
    1.7869   -5.0994   -0.7085 H   0  0  0  0  0  0  0  0  0  0  0  0
    3.4822   -5.4064   -0.3224 H   0  0  0  0  0  0  0  0  0  0  0  0
    2.6308   -4.0814    0.4399 H   0  0  0  0  0  0  0  0  0  0  0  0
    1.1556   -5.6995    1.7170 H   0  0  0  0  0  0  0  0  0  0  0  0
    4.0082   -8.5858    0.9644 H   0  0  0  0  0  0  0  0  0  0  0  0
    4.5543   -6.9967    0.6174 H   0  0  0  0  0  0  0  0  0  0  0  0
    4.4300   -5.2967    2.5679 H   0  0  0  0  0  0  0  0  0  0  0  0
    5.6079   -5.6523    3.7593 H   0  0  0  0  0  0  0  0  0  0  0  0
    9.5656   -4.1663   -0.8661 H   0  0  0  0  0  0  0  0  0  0  0  0
    8.8225   -1.8611   -0.8912 H   0  0  0  0  0  0  0  0  0  0  0  0
    6.7225   -1.2035    0.3729 H   0  0  0  0  0  0  0  0  0  0  0  0
    5.5068   -2.9176    1.6831 H   0  0  0  0  0  0  0  0  0  0  0  0
    6.9107   -8.7291    1.1491 H   0  0  0  0  0  0  0  0  0  0  0  0
    8.1456   -8.4814    2.3414 H   0  0  0  0  0  0  0  0  0  0  0  0
    5.8625   -9.4079    3.0934 H   0  0  0  0  0  0  0  0  0  0  0  0
    7.3353   -9.7978    5.0563 H   0  0  0  0  0  0  0  0  0  0  0  0
    7.8707   -8.4401    6.0261 H   0  0  0  0  0  0  0  0  0  0  0  0
    8.5289   -8.6610    4.4314 H   0  0  0  0  0  0  0  0  0  0  0  0
    5.2964   -8.7322    5.9850 H   0  0  0  0  0  0  0  0  0  0  0  0
    5.8137   -7.1198    6.3228 H   0  0  0  0  0  0  0  0  0  0  0  0
    3.3179   -7.2442    5.8552 H   0  0  0  0  0  0  0  0  0  0  0  0
    4.0338   -6.1537    4.8966 H   0  0  0  0  0  0  0  0  0  0  0  0
    4.4238  -10.0504    4.4521 H   0  0  0  0  0  0  0  0  0  0  0  0
    3.6960  -10.1832    2.1284 H   0  0  0  0  0  0  0  0  0  0  0  0
    2.6482  -11.2155    2.9986 H   0  0  0  0  0  0  0  0  0  0  0  0
    1.4273   -9.2646    1.6356 H   0  0  0  0  0  0  0  0  0  0  0  0
   -0.1842  -10.1604    2.9848 H   0  0  0  0  0  0  0  0  0  0  0  0
   -0.8518   -9.4493    5.2290 H   0  0  0  0  0  0  0  0  0  0  0  0
    0.3227   -7.8787    6.7603 H   0  0  0  0  0  0  0  0  0  0  0  0
    3.7850   -8.5816    7.5304 H   0  0  0  0  0  0  0  0  0  0  0  0
    2.2888   -8.3217    8.3770 H   0  0  0  0  0  0  0  0  0  0  0  0
    2.3143  -10.8781    8.0772 H   0  0  0  0  0  0  0  0  0  0  0  0
    2.8186  -11.0443    5.7898 H   0  0  0  0  0  0  0  0  0  0  0  0
    0.6404  -11.3855    4.9671 H   0  0  0  0  0  0  0  0  0  0  0  0
    1.5577   -7.1810    3.6064 H   0  0  0  0  0  0  0  0  0  0  0  0
    6.8918   -6.9917    4.3497 H   0  0  0  0  0  0  0  0  0  0  0  0
  1  2  1  0
  1 36  1  0
  1 37  1  0
  1 38  1  0
  2  3  2  3
  2 39  1  0
  3 34  1  0
  3  4  1  0
  5  4  1  6
  4 40  1  0
  4 41  1  0
  5 17  1  0
  5 22  1  0
  5  6  1  0
  6  7  1  0
  6 42  1  0
  6 43  1  0
  7 15  1  0
  7  8  2  0
  8  9  1  0
  8 16  1  0
  9 35  1  0
  9 10  1  0
 10 15  2  0
 10 11  1  0
 11 12  2  0
 11 44  1  0
 12 13  1  0
 12 45  1  0
 13 14  2  0
 13 46  1  0
 14 15  1  0
 14 47  1  0
 16 17  1  0
 16 48  1  0
 16 49  1  0
 17 18  1  0
 17 50  1  1
 18 19  1  0
 18 20  1  0
 18 71  1  6
 19 51  1  0
 19 52  1  0
 19 53  1  0
 20 21  1  0
 20 54  1  0
 20 55  1  0
 22 21  1  1
 21 56  1  0
 21 57  1  0
 22 34  1  0
 22 23  1  0
 23 32  1  0
 23 24  1  0
 23 58  1  1
 24 25  1  0
 24 59  1  0
 24 60  1  0
 25 26  1  0
 25 34  1  0
 25 61  1  6
 26 33  1  0
 26 27  1  0
 26 62  1  6
 27 33  1  0
 27 28  1  0
 27 63  1  6
 28 29  2  0
 28 64  1  0
 29 30  1  0
 29 32  1  0
 30 31  1  0
 30 65  1  0
 30 66  1  0
 31 67  1  0
 32 33  1  0
 32 68  1  1
 33 69  1  6
 34 70  1  1
M  CHG  1  18   1
M  END
>  <i_m_ct_stereo_status>  (136) 
1

>  <s_m_source_file>  (136) 
/var/tmp/pbs.5076255.sched01/tmpe2rv0q7i/42k21vmx8r.sdf

>  <i_m_source_file_index>  (136) 
22

>  <i_lp_mmshare_version>  (136) 
48012

>  <i_f3d_flags>  (136) 
0

>  <s_epik_input>  (136) 
W0NIM10vW0NIXT1DKFxbQ0gyXTEpW0NASF0yW0NAQEhdKFtDSDJdMylbQ0BIXShbQ0BASF00W0NIXT1DNVtDSDJdW09IXSlbQ0BIXTRbQ0hdNVtDQEBIXTNbQ0BdMihbQ0BAXTE2NylbQ0gyXVtDSDJdTihbQ0gzXSlbQ0BASF03W0NIMl1jOGMoW0NIMl02KWM5YyhbbkhdOClbY0hdW2NIXVtjSF1bY0hdOQ==

>  <s_epik_cmdline>  (136) 
J2VwaWtfcHl0aG9uJywgJy1waHQnLCAnMi4wJywgJy1waCcsICc3LjAnLCAnLXRuJywgJzgnLCAnLW1hJywgJzIwMCcsICctaW1hZScsICc8aW5maWxlLm1hZT4nLCAnLW9tYWUnLCAnPG91dGZpbGUubWFlPic=

>  <r_epik_Ionization_Penalty>  (136) 
0.00338504

>  <r_epik_Ionization_Penalty_Charging>  (136) 
0.00338458

>  <r_epik_Ionization_Penalty_Neutral>  (136) 
4.58586e-07

>  <r_epik_State_Penalty>  (136) 
0.00239595

>  <r_epik_Charging_Adjusted_Penalty>  (136) 
0.00578052

>  <i_epik_Tot_Q>  (136) 
1

>  <i_epik_Tot_abs_Q>  (136) 
1

>  <s_lp_Force_Field>  (136) 
OPLS3e

>  <r_lp_Energy>  (136) 
134.054

>  <b_lp_Chiralities_Consistent>  (136) 
1

>  <s_lp_Variant>  (136) 
42:0-1

>  <s_i_glide_gridfile>  (136) 
pfpi4k_grid

>  <i_i_glide_lignum>  (136) 
22

>  <i_i_glide_rotatable_bonds>  (136) 
2

>  <r_i_docking_score>  (136) 
-3.22473

>  <r_i_glide_ligand_efficiency>  (136) 
-0.0948451

>  <r_i_glide_ligand_efficiency_sa>  (136) 
-0.307261

>  <r_i_glide_ligand_efficiency_ln>  (136) 
-0.712434

>  <r_i_glide_gscore>  (136) 
-3.22473

>  <r_i_glide_lipo>  (136) 
-0.716495

>  <r_i_glide_hbond>  (136) 
-0.21106

>  <r_i_glide_metal>  (136) 
-0

>  <r_i_glide_rewards>  (136) 
-0.316103

>  <r_i_glide_evdw>  (136) 
-25.6965

>  <r_i_glide_ecoul>  (136) 
-5.03697

>  <r_i_glide_erotb>  (136) 
0.0975507

>  <r_i_glide_esite>  (136) 
-0.0382527

>  <r_i_glide_emodel>  (136) 
-36.7365

>  <r_i_glide_energy>  (136) 
-30.7335

>  <r_i_glide_einternal>  (136) 
0.919031

>  <r_i_glide_intrahb_reward>  (136) 
-0

>  <i_i_glide_confnum>  (136) 
2

>  <i_i_glide_posenum>  (136) 
39

>  <r_i_glide_eff_state_penalty>  (136) 
0

>  <ligand_id>  (136) 
42

>  <original_smiles>  (136) 
CC=C1CC23Cc4c([nH]c5ccccc45)CC2N(C)CCC32C3CC(C4C5C=C(CO)C3C54)C12

>  <smiles>  (136) 
[H]OC([H])([H])C1=C([H])C2([H])C3([H])C1([H])C1([H])C([H])([H])C([H])(C4([H])C(=C([H])C([H])([H])[H])C([H])([H])C56C([H])([H])c7c(n([H])c8c([H])c([H])c([H])c([H])c78)C([H])([H])C5([H])[N+]([H])(C([H])([H])[H])C([H])([H])C([H])([H])C416)C23[H]

$$$$
42:0:1
     RDKit          3D

 71 79  0  0  1  0  0  0  0  0999 V2000
    1.9561   -4.8538   -0.4048 C   0  0  0  0  0  0  0  0  0  0  0  0
    1.5841   -5.9599    0.5769 C   0  0  0  0  0  0  0  0  0  0  0  0
    2.4132   -6.8320    1.1861 C   0  0  0  0  0  0  0  0  0  0  0  0
    3.9183   -6.8815    1.0856 C   0  0  0  0  0  0  0  0  0  0  0  0
    4.2855   -6.7582    2.5836 C   0  0  2  0  0  0  0  0  0  0  0  0
    4.2400   -5.1580    2.7626 C   0  0  0  0  0  0  0  0  0  0  0  0
    5.4066   -4.4786    2.1089 C   0  0  0  0  0  0  0  0  0  0  0  0
    6.5894   -5.1256    1.9186 C   0  0  0  0  0  0  0  0  0  0  0  0
    7.4794   -4.2788    1.2768 N   0  0  0  0  0  0  0  0  0  0  0  0
    6.8819   -3.0567    1.0504 C   0  0  0  0  0  0  0  0  0  0  0  0
    7.3721   -1.8522    0.5041 C   0  0  0  0  0  0  0  0  0  0  0  0
    6.5280   -0.7306    0.4689 C   0  0  0  0  0  0  0  0  0  0  0  0
    5.2103   -0.8031    0.9446 C   0  0  0  0  0  0  0  0  0  0  0  0
    4.7331   -2.0125    1.4928 C   0  0  0  0  0  0  0  0  0  0  0  0
    5.5615   -3.1512    1.5784 C   0  0  0  0  0  0  0  0  0  0  0  0
    6.8551   -6.5354    2.3029 C   0  0  0  0  0  0  0  0  0  0  0  0
    5.6859   -7.1765    3.1219 C   0  0  1  0  0  0  0  0  0  0  0  0
    5.7163   -6.7933    4.5923 N   0  0  2  0  0  0  0  0  0  0  0  0
    6.9143   -7.3023    5.3110 C   0  0  0  0  0  0  0  0  0  0  0  0
    4.4630   -7.0698    5.4050 C   0  0  0  0  0  0  0  0  0  0  0  0
    3.0925   -6.9190    4.6707 C   0  0  0  0  0  0  0  0  0  0  0  0
    3.1884   -7.6742    3.3388 C   0  0  2  0  0  0  0  0  0  0  0  0
    3.4691   -9.2430    3.6266 C   0  0  2  0  0  0  0  0  0  0  0  0
    3.3933   -9.8157    2.2237 C   0  0  0  0  0  0  0  0  0  0  0  0
    2.0312   -9.2259    1.7994 C   0  0  1  0  0  0  0  0  0  0  0  0
    0.9355  -10.0894    2.4010 C   0  0  2  0  0  0  0  0  0  0  0  0
    0.1389   -9.9599    3.6978 C   0  0  2  0  0  0  0  0  0  0  0  0
    0.3463   -9.2760    5.0013 C   0  0  0  0  0  0  0  0  0  0  0  0
    1.5766   -9.4784    5.5034 C   0  0  0  0  0  0  0  0  0  0  0  0
    2.0378   -9.2167    6.9309 C   0  0  0  0  0  0  0  0  0  0  0  0
    1.1497   -9.7874    7.8641 O   0  0  0  0  0  0  0  0  0  0  0  0
    2.4711  -10.1635    4.5009 C   0  0  1  0  0  0  0  0  0  0  0  0
    1.3742  -10.7979    3.6359 C   0  0  2  0  0  0  0  0  0  0  0  0
    2.0070   -7.7556    2.3145 C   0  0  2  0  0  0  0  0  0  0  0  0
    8.4386   -4.5231    1.0806 H   0  0  0  0  0  0  0  0  0  0  0  0
    1.3811   -4.9669   -1.3250 H   0  0  0  0  0  0  0  0  0  0  0  0
    3.0105   -4.8345   -0.6662 H   0  0  0  0  0  0  0  0  0  0  0  0
    1.7701   -3.8532   -0.0205 H   0  0  0  0  0  0  0  0  0  0  0  0
    0.5479   -6.0261    0.8507 H   0  0  0  0  0  0  0  0  0  0  0  0
    4.2428   -7.7997    0.6070 H   0  0  0  0  0  0  0  0  0  0  0  0
    4.3170   -6.0952    0.4482 H   0  0  0  0  0  0  0  0  0  0  0  0
    3.3123   -4.7203    2.3997 H   0  0  0  0  0  0  0  0  0  0  0  0
    4.3051   -4.8261    3.7966 H   0  0  0  0  0  0  0  0  0  0  0  0
    8.4012   -1.7818    0.1921 H   0  0  0  0  0  0  0  0  0  0  0  0
    6.8939    0.2227    0.1063 H   0  0  0  0  0  0  0  0  0  0  0  0
    4.5716    0.0695    0.8879 H   0  0  0  0  0  0  0  0  0  0  0  0
    3.7278   -2.0485    1.8705 H   0  0  0  0  0  0  0  0  0  0  0  0
    6.9573   -7.0996    1.3797 H   0  0  0  0  0  0  0  0  0  0  0  0
    7.8190   -6.6143    2.8053 H   0  0  0  0  0  0  0  0  0  0  0  0
    5.8361   -8.2497    3.0367 H   0  0  0  0  0  0  0  0  0  0  0  0
    6.9683   -8.3888    5.2436 H   0  0  0  0  0  0  0  0  0  0  0  0
    6.8622   -7.0333    6.3664 H   0  0  0  0  0  0  0  0  0  0  0  0
    7.8405   -6.8794    4.9248 H   0  0  0  0  0  0  0  0  0  0  0  0
    4.5294   -8.0839    5.7999 H   0  0  0  0  0  0  0  0  0  0  0  0
    4.4738   -6.4225    6.2826 H   0  0  0  0  0  0  0  0  0  0  0  0
    2.2751   -7.2336    5.2838 H   0  0  0  0  0  0  0  0  0  0  0  0
    2.7838   -5.8873    4.5562 H   0  0  0  0  0  0  0  0  0  0  0  0
    4.4556   -9.4261    4.0426 H   0  0  0  0  0  0  0  0  0  0  0  0
    4.2387   -9.5292    1.6120 H   0  0  0  0  0  0  0  0  0  0  0  0
    3.4197  -10.9074    2.2087 H   0  0  0  0  0  0  0  0  0  0  0  0
    1.9438   -9.2842    0.7200 H   0  0  0  0  0  0  0  0  0  0  0  0
    0.4155  -10.7030    1.6880 H   0  0  0  0  0  0  0  0  0  0  0  0
   -0.7993  -10.4836    3.6567 H   0  0  0  0  0  0  0  0  0  0  0  0
   -0.4918   -8.8503    5.5413 H   0  0  0  0  0  0  0  0  0  0  0  0
    3.0255   -9.6596    7.0584 H   0  0  0  0  0  0  0  0  0  0  0  0
    2.1085   -8.1458    7.1278 H   0  0  0  0  0  0  0  0  0  0  0  0
    1.2403  -10.7624    7.8148 H   0  0  0  0  0  0  0  0  0  0  0  0
    3.0149  -10.9766    4.9940 H   0  0  0  0  0  0  0  0  0  0  0  0
    1.2600  -11.8769    3.7077 H   0  0  0  0  0  0  0  0  0  0  0  0
    1.0400   -7.4733    2.7388 H   0  0  0  0  0  0  0  0  0  0  0  0
    5.7996   -5.7825    4.5832 H   0  0  0  0  0  0  0  0  0  0  0  0
  1  2  1  0
  1 36  1  0
  1 37  1  0
  1 38  1  0
  2  3  2  3
  2 39  1  0
  3 34  1  0
  3  4  1  0
  5  4  1  6
  4 40  1  0
  4 41  1  0
  5 17  1  0
  5 22  1  0
  5  6  1  0
  6  7  1  0
  6 42  1  0
  6 43  1  0
  7 15  1  0
  7  8  2  0
  8  9  1  0
  8 16  1  0
  9 35  1  0
  9 10  1  0
 10 15  2  0
 10 11  1  0
 11 12  2  0
 11 44  1  0
 12 13  1  0
 12 45  1  0
 13 14  2  0
 13 46  1  0
 14 15  1  0
 14 47  1  0
 16 17  1  0
 16 48  1  0
 16 49  1  0
 17 18  1  0
 17 50  1  1
 18 19  1  0
 18 20  1  0
 18 71  1  6
 19 51  1  0
 19 52  1  0
 19 53  1  0
 20 21  1  0
 20 54  1  0
 20 55  1  0
 22 21  1  1
 21 56  1  0
 21 57  1  0
 22 34  1  0
 22 23  1  0
 23 32  1  0
 23 24  1  0
 23 58  1  1
 24 25  1  0
 24 59  1  0
 24 60  1  0
 25 26  1  0
 25 34  1  0
 25 61  1  6
 26 33  1  0
 26 27  1  0
 26 62  1  6
 27 33  1  0
 27 28  1  0
 27 63  1  6
 28 29  2  0
 28 64  1  0
 29 30  1  0
 29 32  1  0
 30 31  1  0
 30 65  1  0
 30 66  1  0
 31 67  1  0
 32 33  1  0
 32 68  1  1
 33 69  1  6
 34 70  1  1
M  CHG  1  18   1
M  END
>  <i_m_ct_stereo_status>  (137) 
1

>  <s_m_source_file>  (137) 
/var/tmp/pbs.5076255.sched01/tmpe2rv0q7i/42k21vmx8r.sdf

>  <i_m_source_file_index>  (137) 
22

>  <i_lp_mmshare_version>  (137) 
48012

>  <i_f3d_flags>  (137) 
0

>  <s_epik_input>  (137) 
W0NIM10vW0NIXT1DKFxbQ0gyXTEpW0NASF0yW0NAQEhdKFtDSDJdMylbQ0BIXShbQ0BASF00W0NIXT1DNVtDSDJdW09IXSlbQ0BIXTRbQ0hdNVtDQEBIXTNbQ0BdMihbQ0BAXTE2NylbQ0gyXVtDSDJdTihbQ0gzXSlbQ0BASF03W0NIMl1jOGMoW0NIMl02KWM5YyhbbkhdOClbY0hdW2NIXVtjSF1bY0hdOQ==

>  <s_epik_cmdline>  (137) 
J2VwaWtfcHl0aG9uJywgJy1waHQnLCAnMi4wJywgJy1waCcsICc3LjAnLCAnLXRuJywgJzgnLCAnLW1hJywgJzIwMCcsICctaW1hZScsICc8aW5maWxlLm1hZT4nLCAnLW9tYWUnLCAnPG91dGZpbGUubWFlPic=

>  <r_epik_Ionization_Penalty>  (137) 
0.00338504

>  <r_epik_Ionization_Penalty_Charging>  (137) 
0.00338458

>  <r_epik_Ionization_Penalty_Neutral>  (137) 
4.58586e-07

>  <r_epik_State_Penalty>  (137) 
0.00239595

>  <r_epik_Charging_Adjusted_Penalty>  (137) 
0.00578052

>  <i_epik_Tot_Q>  (137) 
1

>  <i_epik_Tot_abs_Q>  (137) 
1

>  <s_lp_Force_Field>  (137) 
OPLS3e

>  <r_lp_Energy>  (137) 
134.054

>  <b_lp_Chiralities_Consistent>  (137) 
1

>  <s_lp_Variant>  (137) 
42:0-1

>  <s_i_glide_gridfile>  (137) 
pfpi4k_grid

>  <i_i_glide_lignum>  (137) 
22

>  <i_i_glide_rotatable_bonds>  (137) 
2

>  <r_i_docking_score>  (137) 
-3.1945

>  <r_i_glide_ligand_efficiency>  (137) 
-0.0939558

>  <r_i_glide_ligand_efficiency_sa>  (137) 
-0.30438

>  <r_i_glide_ligand_efficiency_ln>  (137) 
-0.705754

>  <r_i_glide_gscore>  (137) 
-3.1945

>  <r_i_glide_lipo>  (137) 
-0.878945

>  <r_i_glide_hbond>  (137) 
-0.16

>  <r_i_glide_metal>  (137) 
-0

>  <r_i_glide_rewards>  (137) 
-0.316103

>  <r_i_glide_evdw>  (137) 
-17.4588

>  <r_i_glide_ecoul>  (137) 
-7.09373

>  <r_i_glide_erotb>  (137) 
0.0975507

>  <r_i_glide_esite>  (137) 
0

>  <r_i_glide_emodel>  (137) 
-29.2903

>  <r_i_glide_energy>  (137) 
-24.5525

>  <r_i_glide_einternal>  (137) 
3.41514

>  <r_i_glide_intrahb_reward>  (137) 
-0

>  <i_i_glide_confnum>  (137) 
2

>  <i_i_glide_posenum>  (137) 
26

>  <r_i_glide_eff_state_penalty>  (137) 
0

>  <ligand_id>  (137) 
42

>  <original_smiles>  (137) 
CC=C1CC23Cc4c([nH]c5ccccc45)CC2N(C)CCC32C3CC(C4C5C=C(CO)C3C54)C12

>  <smiles>  (137) 
[H]OC([H])([H])C1=C([H])C2([H])C3([H])C1([H])C1([H])C([H])([H])C([H])(C4([H])C(=C([H])C([H])([H])[H])C([H])([H])C56C([H])([H])c7c(n([H])c8c([H])c([H])c([H])c([H])c78)C([H])([H])C5([H])[N+]([H])(C([H])([H])[H])C([H])([H])C([H])([H])C416)C23[H]

$$$$
42:0:2
     RDKit          3D

 71 79  0  0  1  0  0  0  0  0999 V2000
    1.7213   -5.9039   -0.1158 C   0  0  0  0  0  0  0  0  0  0  0  0
    1.5247   -6.9964    0.9369 C   0  0  0  0  0  0  0  0  0  0  0  0
    2.4513   -7.4592    1.7962 C   0  0  0  0  0  0  0  0  0  0  0  0
    3.8644   -6.9522    1.9546 C   0  0  0  0  0  0  0  0  0  0  0  0
    3.8458   -6.5582    3.4500 C   0  0  2  0  0  0  0  0  0  0  0  0
    3.2184   -5.0787    3.3495 C   0  0  0  0  0  0  0  0  0  0  0  0
    4.1804   -4.0826    2.7783 C   0  0  0  0  0  0  0  0  0  0  0  0
    5.5217   -4.2782    2.8672 C   0  0  0  0  0  0  0  0  0  0  0  0
    6.1695   -3.2566    2.1813 N   0  0  0  0  0  0  0  0  0  0  0  0
    5.2677   -2.3076    1.7664 C   0  0  0  0  0  0  0  0  0  0  0  0
    5.4466   -1.0533    1.1537 C   0  0  0  0  0  0  0  0  0  0  0  0
    4.3121   -0.3145    0.7778 C   0  0  0  0  0  0  0  0  0  0  0  0
    3.0330   -0.8272    1.0402 C   0  0  0  0  0  0  0  0  0  0  0  0
    2.8683   -2.0691    1.6869 C   0  0  0  0  0  0  0  0  0  0  0  0
    3.9862   -2.8337    2.0865 C   0  0  0  0  0  0  0  0  0  0  0  0
    6.1735   -5.4392    3.5287 C   0  0  0  0  0  0  0  0  0  0  0  0
    5.1636   -6.3782    4.2540 C   0  0  1  0  0  0  0  0  0  0  0  0
    4.7668   -5.8604    5.6258 N   0  0  2  0  0  0  0  0  0  0  0  0
    5.8867   -5.8258    6.5986 C   0  0  0  0  0  0  0  0  0  0  0  0
    3.5460   -6.4892    6.2616 C   0  0  0  0  0  0  0  0  0  0  0  0
    2.3842   -6.9359    5.3259 C   0  0  0  0  0  0  0  0  0  0  0  0
    2.9994   -7.7341    4.1667 C   0  0  2  0  0  0  0  0  0  0  0  0
    3.7346   -9.0558    4.7394 C   0  0  2  0  0  0  0  0  0  0  0  0
    4.1480   -9.7466    3.4514 C   0  0  0  0  0  0  0  0  0  0  0  0
    2.7846   -9.7436    2.7155 C   0  0  1  0  0  0  0  0  0  0  0  0
    1.9539  -10.8962    3.2732 C   0  0  2  0  0  0  0  0  0  0  0  0
    0.9106  -10.9431    4.4053 C   0  0  1  0  0  0  0  0  0  0  0  0
    0.5984  -10.0778    5.5669 C   0  0  0  0  0  0  0  0  0  0  0  0
    1.6865   -9.7793    6.2851 C   0  0  0  0  0  0  0  0  0  0  0  0
    1.7065   -9.2499    7.7149 C   0  0  0  0  0  0  0  0  0  0  0  0
    0.4036   -9.0365    8.2122 O   0  0  0  0  0  0  0  0  0  0  0  0
    2.9572  -10.1865    5.5841 C   0  0  1  0  0  0  0  0  0  0  0  0
    2.3458  -11.2524    4.6696 C   0  0  2  0  0  0  0  0  0  0  0  0
    2.1502   -8.3433    2.9917 C   0  0  2  0  0  0  0  0  0  0  0  0
    7.1683   -3.1211    2.2140 H   0  0  0  0  0  0  0  0  0  0  0  0
    1.4167   -6.2433   -1.0956 H   0  0  0  0  0  0  0  0  0  0  0  0
    2.7441   -5.5318   -0.2024 H   0  0  0  0  0  0  0  0  0  0  0  0
    1.0824   -5.0547    0.0657 H   0  0  0  0  0  0  0  0  0  0  0  0
    0.5214   -7.3751    1.0355 H   0  0  0  0  0  0  0  0  0  0  0  0
    4.5765   -7.7251    1.6873 H   0  0  0  0  0  0  0  0  0  0  0  0
    4.0964   -6.1398    1.2671 H   0  0  0  0  0  0  0  0  0  0  0  0
    2.2972   -5.0462    2.7761 H   0  0  0  0  0  0  0  0  0  0  0  0
    2.9570   -4.6422    4.3092 H   0  0  0  0  0  0  0  0  0  0  0  0
    6.4322   -0.6663    0.9688 H   0  0  0  0  0  0  0  0  0  0  0  0
    4.4165    0.6295    0.2624 H   0  0  0  0  0  0  0  0  0  0  0  0
    2.1739   -0.2577    0.7202 H   0  0  0  0  0  0  0  0  0  0  0  0
    1.8825   -2.4508    1.8741 H   0  0  0  0  0  0  0  0  0  0  0  0
    6.6624   -6.0086    2.7492 H   0  0  0  0  0  0  0  0  0  0  0  0
    6.9668   -5.1051    4.1920 H   0  0  0  0  0  0  0  0  0  0  0  0
    5.6904   -7.3193    4.3762 H   0  0  0  0  0  0  0  0  0  0  0  0
    6.3203   -6.8115    6.7271 H   0  0  0  0  0  0  0  0  0  0  0  0
    5.5339   -5.4958    7.5715 H   0  0  0  0  0  0  0  0  0  0  0  0
    6.6726   -5.1378    6.3089 H   0  0  0  0  0  0  0  0  0  0  0  0
    3.8972   -7.3557    6.8110 H   0  0  0  0  0  0  0  0  0  0  0  0
    3.1560   -5.8121    7.0160 H   0  0  0  0  0  0  0  0  0  0  0  0
    1.6190   -7.4590    5.8612 H   0  0  0  0  0  0  0  0  0  0  0  0
    1.7727   -6.1112    4.9853 H   0  0  0  0  0  0  0  0  0  0  0  0
    4.6129   -8.8204    5.3292 H   0  0  0  0  0  0  0  0  0  0  0  0
    4.9519   -9.2261    2.9513 H   0  0  0  0  0  0  0  0  0  0  0  0
    4.5541  -10.7469    3.6222 H   0  0  0  0  0  0  0  0  0  0  0  0
    2.9403   -9.9354    1.6505 H   0  0  0  0  0  0  0  0  0  0  0  0
    1.9201  -11.7481    2.5993 H   0  0  0  0  0  0  0  0  0  0  0  0
    0.2562  -11.8032    4.3938 H   0  0  0  0  0  0  0  0  0  0  0  0
   -0.4204   -9.9081    5.8918 H   0  0  0  0  0  0  0  0  0  0  0  0
    2.2038   -9.9905    8.3389 H   0  0  0  0  0  0  0  0  0  0  0  0
    2.2687   -8.3308    7.8022 H   0  0  0  0  0  0  0  0  0  0  0  0
   -0.0527   -9.8555    8.1013 H   0  0  0  0  0  0  0  0  0  0  0  0
    3.6222  -10.6889    6.2938 H   0  0  0  0  0  0  0  0  0  0  0  0
    2.5813  -12.2864    4.9062 H   0  0  0  0  0  0  0  0  0  0  0  0
    1.0744   -8.3915    3.2028 H   0  0  0  0  0  0  0  0  0  0  0  0
    4.5027   -4.8936    5.4632 H   0  0  0  0  0  0  0  0  0  0  0  0
  1  2  1  0
  1 36  1  0
  1 37  1  0
  1 38  1  0
  2  3  2  3
  2 39  1  0
  3 34  1  0
  3  4  1  0
  5  4  1  6
  4 40  1  0
  4 41  1  0
  5 17  1  0
  5 22  1  0
  5  6  1  0
  6  7  1  0
  6 42  1  0
  6 43  1  0
  7 15  1  0
  7  8  2  0
  8  9  1  0
  8 16  1  0
  9 35  1  0
  9 10  1  0
 10 15  2  0
 10 11  1  0
 11 12  2  0
 11 44  1  0
 12 13  1  0
 12 45  1  0
 13 14  2  0
 13 46  1  0
 14 15  1  0
 14 47  1  0
 16 17  1  0
 16 48  1  0
 16 49  1  0
 17 18  1  0
 17 50  1  1
 18 19  1  0
 18 20  1  0
 18 71  1  6
 19 51  1  0
 19 52  1  0
 19 53  1  0
 20 21  1  0
 20 54  1  0
 20 55  1  0
 22 21  1  1
 21 56  1  0
 21 57  1  0
 22 34  1  0
 22 23  1  0
 23 32  1  0
 23 24  1  0
 23 58  1  1
 24 25  1  0
 24 59  1  0
 24 60  1  0
 25 26  1  0
 25 34  1  0
 25 61  1  6
 26 33  1  0
 26 27  1  0
 26 62  1  6
 27 33  1  0
 27 28  1  0
 27 63  1  6
 28 29  2  0
 28 64  1  0
 29 30  1  0
 29 32  1  0
 30 31  1  0
 30 65  1  0
 30 66  1  0
 31 67  1  0
 32 33  1  0
 32 68  1  1
 33 69  1  6
 34 70  1  1
M  CHG  1  18   1
M  END
>  <i_m_ct_stereo_status>  (138) 
1

>  <s_m_source_file>  (138) 
/var/tmp/pbs.5076255.sched01/tmpe2rv0q7i/42k21vmx8r.sdf

>  <i_m_source_file_index>  (138) 
22

>  <i_lp_mmshare_version>  (138) 
48012

>  <i_f3d_flags>  (138) 
0

>  <s_epik_input>  (138) 
W0NIM10vW0NIXT1DKFxbQ0gyXTEpW0NASF0yW0NAQEhdKFtDSDJdMylbQ0BIXShbQ0BASF00W0NIXT1DNVtDSDJdW09IXSlbQ0BIXTRbQ0hdNVtDQEBIXTNbQ0BdMihbQ0BAXTE2NylbQ0gyXVtDSDJdTihbQ0gzXSlbQ0BASF03W0NIMl1jOGMoW0NIMl02KWM5YyhbbkhdOClbY0hdW2NIXVtjSF1bY0hdOQ==

>  <s_epik_cmdline>  (138) 
J2VwaWtfcHl0aG9uJywgJy1waHQnLCAnMi4wJywgJy1waCcsICc3LjAnLCAnLXRuJywgJzgnLCAnLW1hJywgJzIwMCcsICctaW1hZScsICc8aW5maWxlLm1hZT4nLCAnLW9tYWUnLCAnPG91dGZpbGUubWFlPic=

>  <r_epik_Ionization_Penalty>  (138) 
0.00338504

>  <r_epik_Ionization_Penalty_Charging>  (138) 
0.00338458

>  <r_epik_Ionization_Penalty_Neutral>  (138) 
4.58586e-07

>  <r_epik_State_Penalty>  (138) 
0.00239595

>  <r_epik_Charging_Adjusted_Penalty>  (138) 
0.00578052

>  <i_epik_Tot_Q>  (138) 
1

>  <i_epik_Tot_abs_Q>  (138) 
1

>  <s_lp_Force_Field>  (138) 
OPLS3e

>  <r_lp_Energy>  (138) 
134.054

>  <b_lp_Chiralities_Consistent>  (138) 
1

>  <s_lp_Variant>  (138) 
42:0-1

>  <s_i_glide_gridfile>  (138) 
pfpi4k_grid

>  <i_i_glide_lignum>  (138) 
22

>  <i_i_glide_rotatable_bonds>  (138) 
2

>  <r_i_docking_score>  (138) 
-1.91004

>  <r_i_glide_ligand_efficiency>  (138) 
-0.0561775

>  <r_i_glide_ligand_efficiency_sa>  (138) 
-0.181993

>  <r_i_glide_ligand_efficiency_ln>  (138) 
-0.421981

>  <r_i_glide_gscore>  (138) 
-1.91004

>  <r_i_glide_lipo>  (138) 
-0.472632

>  <r_i_glide_hbond>  (138) 
0

>  <r_i_glide_metal>  (138) 
-0

>  <r_i_glide_rewards>  (138) 
-0.316103

>  <r_i_glide_evdw>  (138) 
-15.6976

>  <r_i_glide_ecoul>  (138) 
-2.89313

>  <r_i_glide_erotb>  (138) 
0.0975507

>  <r_i_glide_esite>  (138) 
0

>  <r_i_glide_emodel>  (138) 
-21.5434

>  <r_i_glide_energy>  (138) 
-18.5908

>  <r_i_glide_einternal>  (138) 
0.514444

>  <r_i_glide_intrahb_reward>  (138) 
-0

>  <i_i_glide_confnum>  (138) 
2

>  <i_i_glide_posenum>  (138) 
1

>  <r_i_glide_eff_state_penalty>  (138) 
0

>  <ligand_id>  (138) 
42

>  <original_smiles>  (138) 
CC=C1CC23Cc4c([nH]c5ccccc45)CC2N(C)CCC32C3CC(C4C5C=C(CO)C3C54)C12

>  <smiles>  (138) 
[H]OC([H])([H])C1=C([H])C2([H])C3([H])C1([H])C1([H])C([H])([H])C([H])(C4([H])C(=C([H])C([H])([H])[H])C([H])([H])C56C([H])([H])c7c(n([H])c8c([H])c([H])c([H])c([H])c78)C([H])([H])C5([H])[N+]([H])(C([H])([H])[H])C([H])([H])C([H])([H])C416)C23[H]

$$$$
42:1:0
     RDKit          3D

 71 79  0  0  1  0  0  0  0  0999 V2000
    1.2356   -5.0418   -0.9000 C   0  0  0  0  0  0  0  0  0  0  0  0
    1.4884   -5.2303    0.5747 C   0  0  0  0  0  0  0  0  0  0  0  0
    2.4680   -4.6571    1.2884 C   0  0  0  0  0  0  0  0  0  0  0  0
    2.6868   -4.9099    2.7574 C   0  0  0  0  0  0  0  0  0  0  0  0
    4.1399   -5.4281    2.7191 C   0  0  2  0  0  0  0  0  0  0  0  0
    3.8660   -6.9801    2.4000 C   0  0  0  0  0  0  0  0  0  0  0  0
    3.3384   -7.7311    3.5816 C   0  0  0  0  0  0  0  0  0  0  0  0
    3.5880   -7.3138    4.8592 C   0  0  0  0  0  0  0  0  0  0  0  0
    2.9768   -8.1816    5.7501 N   0  0  0  0  0  0  0  0  0  0  0  0
    2.3403   -9.1945    5.0529 C   0  0  0  0  0  0  0  0  0  0  0  0
    1.6124  -10.3152    5.4914 C   0  0  0  0  0  0  0  0  0  0  0  0
    1.0783  -11.2246    4.5561 C   0  0  0  0  0  0  0  0  0  0  0  0
    1.2629  -10.9846    3.1926 C   0  0  0  0  0  0  0  0  0  0  0  0
    1.9889   -9.8529    2.7521 C   0  0  0  0  0  0  0  0  0  0  0  0
    2.5520   -8.9341    3.6784 C   0  0  0  0  0  0  0  0  0  0  0  0
    4.3325   -6.0868    5.2146 C   0  0  0  0  0  0  0  0  0  0  0  0
    5.0334   -5.4338    3.9910 C   0  0  1  0  0  0  0  0  0  0  0  0
    6.3160   -6.1455    3.6069 N   0  0  2  0  0  0  0  0  0  0  0  0
    7.3652   -6.0896    4.6523 C   0  0  0  0  0  0  0  0  0  0  0  0
    6.8979   -5.8135    2.2501 C   0  0  0  0  0  0  0  0  0  0  0  0
    5.9082   -5.5041    1.0876 C   0  0  0  0  0  0  0  0  0  0  0  0
    4.8688   -4.5035    1.6099 C   0  0  2  0  0  0  0  0  0  0  0  0
    5.5890   -3.1218    2.0236 C   0  0  2  0  0  0  0  0  0  0  0  0
    4.4006   -2.2437    2.3781 C   0  0  0  0  0  0  0  0  0  0  0  0
    3.5682   -2.4425    1.0917 C   0  0  1  0  0  0  0  0  0  0  0  0
    4.1524   -1.5256    0.0154 C   0  0  2  0  0  0  0  0  0  0  0  0
    5.2119   -1.7703   -1.0837 C   0  0  1  0  0  0  0  0  0  0  0  0
    6.2944   -2.7698   -1.3021 C   0  0  0  0  0  0  0  0  0  0  0  0
    7.0562   -2.9314   -0.2165 C   0  0  0  0  0  0  0  0  0  0  0  0
    8.4467   -3.5715   -0.1435 C   0  0  0  0  0  0  0  0  0  0  0  0
    9.0182   -3.8763   -1.4047 O   0  0  0  0  0  0  0  0  0  0  0  0
    6.4657   -2.2431    0.9916 C   0  0  1  0  0  0  0  0  0  0  0  0
    5.5966   -1.2282    0.2525 C   0  0  2  0  0  0  0  0  0  0  0  0
    3.6887   -3.9555    0.7329 C   0  0  2  0  0  0  0  0  0  0  0  0
    3.0102   -8.0970    6.7550 H   0  0  0  0  0  0  0  0  0  0  0  0
    0.2402   -4.6681   -1.1429 H   0  0  0  0  0  0  0  0  0  0  0  0
    1.2991   -6.0177   -1.3282 H   0  0  0  0  0  0  0  0  0  0  0  0
    1.9508   -4.3826   -1.3951 H   0  0  0  0  0  0  0  0  0  0  0  0
    0.7793   -5.8733    1.0756 H   0  0  0  0  0  0  0  0  0  0  0  0
    2.5343   -3.9971    3.3194 H   0  0  0  0  0  0  0  0  0  0  0  0
    1.9363   -5.6058    3.1569 H   0  0  0  0  0  0  0  0  0  0  0  0
    3.2125   -7.1399    1.5466 H   0  0  0  0  0  0  0  0  0  0  0  0
    4.7561   -7.5430    2.1489 H   0  0  0  0  0  0  0  0  0  0  0  0
    1.4931  -10.5128    6.5362 H   0  0  0  0  0  0  0  0  0  0  0  0
    0.5395  -12.1050    4.9049 H   0  0  0  0  0  0  0  0  0  0  0  0
    0.8510  -11.6913    2.4853 H   0  0  0  0  0  0  0  0  0  0  0  0
    2.1306   -9.6982    1.7013 H   0  0  0  0  0  0  0  0  0  0  0  0
    3.6120   -5.3805    5.6111 H   0  0  0  0  0  0  0  0  0  0  0  0
    5.0068   -6.3074    6.0338 H   0  0  0  0  0  0  0  0  0  0  0  0
    5.2668   -4.4262    4.3145 H   0  0  0  0  0  0  0  0  0  0  0  0
    7.6045   -5.0694    4.9090 H   0  0  0  0  0  0  0  0  0  0  0  0
    8.2797   -6.5527    4.3061 H   0  0  0  0  0  0  0  0  0  0  0  0
    7.0815   -6.5972    5.5616 H   0  0  0  0  0  0  0  0  0  0  0  0
    7.5428   -4.9568    2.3794 H   0  0  0  0  0  0  0  0  0  0  0  0
    7.5641   -6.6132    1.9506 H   0  0  0  0  0  0  0  0  0  0  0  0
    6.4052   -5.1791    0.1964 H   0  0  0  0  0  0  0  0  0  0  0  0
    5.4559   -6.3924    0.6709 H   0  0  0  0  0  0  0  0  0  0  0  0
    6.2093   -3.2425    2.9046 H   0  0  0  0  0  0  0  0  0  0  0  0
    3.9283   -2.5565    3.2981 H   0  0  0  0  0  0  0  0  0  0  0  0
    4.6944   -1.2084    2.5771 H   0  0  0  0  0  0  0  0  0  0  0  0
    2.5345   -2.1175    1.2686 H   0  0  0  0  0  0  0  0  0  0  0  0
    3.5342   -0.6438   -0.1578 H   0  0  0  0  0  0  0  0  0  0  0  0
    5.2030   -1.0556   -1.8899 H   0  0  0  0  0  0  0  0  0  0  0  0
    6.5219   -3.1608   -2.2909 H   0  0  0  0  0  0  0  0  0  0  0  0
    9.1226   -2.8950    0.3724 H   0  0  0  0  0  0  0  0  0  0  0  0
    8.4287   -4.4949    0.4205 H   0  0  0  0  0  0  0  0  0  0  0  0
    9.6530   -3.1920   -1.6766 H   0  0  0  0  0  0  0  0  0  0  0  0
    7.2426   -1.6728    1.5111 H   0  0  0  0  0  0  0  0  0  0  0  0
    5.9304   -0.1964    0.2831 H   0  0  0  0  0  0  0  0  0  0  0  0
    3.8322   -4.1369   -0.3424 H   0  0  0  0  0  0  0  0  0  0  0  0
    6.0498   -7.1230    3.5356 H   0  0  0  0  0  0  0  0  0  0  0  0
  1  2  1  0
  1 36  1  0
  1 37  1  0
  1 38  1  0
  2  3  2  3
  2 39  1  0
  3 34  1  0
  3  4  1  0
  5  4  1  1
  4 40  1  0
  4 41  1  0
  5 17  1  0
  5 22  1  0
  5  6  1  0
  6  7  1  0
  6 42  1  0
  6 43  1  0
  7 15  1  0
  7  8  2  0
  8  9  1  0
  8 16  1  0
  9 35  1  0
  9 10  1  0
 10 15  2  0
 10 11  1  0
 11 12  2  0
 11 44  1  0
 12 13  1  0
 12 45  1  0
 13 14  2  0
 13 46  1  0
 14 15  1  0
 14 47  1  0
 16 17  1  0
 16 48  1  0
 16 49  1  0
 17 18  1  0
 17 50  1  1
 18 19  1  0
 18 20  1  0
 18 71  1  6
 19 51  1  0
 19 52  1  0
 19 53  1  0
 20 21  1  0
 20 54  1  0
 20 55  1  0
 22 21  1  6
 21 56  1  0
 21 57  1  0
 22 34  1  0
 22 23  1  0
 23 32  1  0
 23 24  1  0
 23 58  1  1
 24 25  1  0
 24 59  1  0
 24 60  1  0
 25 26  1  0
 25 34  1  0
 25 61  1  1
 26 33  1  0
 26 27  1  0
 26 62  1  6
 27 33  1  0
 27 28  1  0
 27 63  1  6
 28 29  2  0
 28 64  1  0
 29 30  1  0
 29 32  1  0
 30 31  1  0
 30 65  1  0
 30 66  1  0
 31 67  1  0
 32 33  1  0
 32 68  1  1
 33 69  1  6
 34 70  1  6
M  CHG  1  18   1
M  END
>  <i_m_ct_stereo_status>  (139) 
1

>  <s_m_source_file>  (139) 
/var/tmp/pbs.5076255.sched01/tmpe2rv0q7i/42k21vmx8r.sdf

>  <i_m_source_file_index>  (139) 
23

>  <i_lp_mmshare_version>  (139) 
48012

>  <i_f3d_flags>  (139) 
0

>  <s_epik_input>  (139) 
W0NIM10vW0NIXT1DKFxbQ0gyXTEpW0NASF0yW0NAQEhdKFtDSDJdMylbQ0BIXShbQ0BASF00W0NIXT1DNVtDSDJdW09IXSlbQ0BIXTRbQ0hdNVtDQEBIXTNbQ0BdMihbQ0BAXTE2NylbQ0gyXVtDSDJdTihbQ0gzXSlbQ0BASF03W0NIMl1jOGMoW0NIMl02KWM5YyhbbkhdOClbY0hdW2NIXVtjSF1bY0hdOQ==

>  <s_epik_cmdline>  (139) 
J2VwaWtfcHl0aG9uJywgJy1waHQnLCAnMi4wJywgJy1waCcsICc3LjAnLCAnLXRuJywgJzgnLCAnLW1hJywgJzIwMCcsICctaW1hZScsICc8aW5maWxlLm1hZT4nLCAnLW9tYWUnLCAnPG91dGZpbGUubWFlPic=

>  <r_epik_Ionization_Penalty>  (139) 
0.00338504

>  <r_epik_Ionization_Penalty_Charging>  (139) 
0.00338458

>  <r_epik_Ionization_Penalty_Neutral>  (139) 
4.58586e-07

>  <r_epik_State_Penalty>  (139) 
0.00239595

>  <r_epik_Charging_Adjusted_Penalty>  (139) 
0.00578052

>  <i_epik_Tot_Q>  (139) 
1

>  <i_epik_Tot_abs_Q>  (139) 
1

>  <s_lp_Force_Field>  (139) 
OPLS3e

>  <r_lp_Energy>  (139) 
134.036

>  <b_lp_Chiralities_Consistent>  (139) 
1

>  <s_lp_Variant>  (139) 
42:0-2

>  <s_i_glide_gridfile>  (139) 
pfpi4k_grid

>  <i_i_glide_lignum>  (139) 
23

>  <i_i_glide_rotatable_bonds>  (139) 
2

>  <r_i_docking_score>  (139) 
-2.86104

>  <r_i_glide_ligand_efficiency>  (139) 
-0.0841481

>  <r_i_glide_ligand_efficiency_sa>  (139) 
-0.272607

>  <r_i_glide_ligand_efficiency_ln>  (139) 
-0.632083

>  <r_i_glide_gscore>  (139) 
-2.86104

>  <r_i_glide_lipo>  (139) 
-0.808668

>  <r_i_glide_hbond>  (139) 
-0.200224

>  <r_i_glide_metal>  (139) 
-0

>  <r_i_glide_rewards>  (139) 
-0.316103

>  <r_i_glide_evdw>  (139) 
-15.6023

>  <r_i_glide_ecoul>  (139) 
-5.47881

>  <r_i_glide_erotb>  (139) 
0.0682855

>  <r_i_glide_esite>  (139) 
-0.00238825

>  <r_i_glide_emodel>  (139) 
-23.2557

>  <r_i_glide_energy>  (139) 
-21.0812

>  <r_i_glide_einternal>  (139) 
1.33072

>  <r_i_glide_intrahb_reward>  (139) 
-0

>  <i_i_glide_confnum>  (139) 
2

>  <i_i_glide_posenum>  (139) 
1

>  <r_i_glide_eff_state_penalty>  (139) 
0

>  <ligand_id>  (139) 
42

>  <original_smiles>  (139) 
CC=C1CC23Cc4c([nH]c5ccccc45)CC2N(C)CCC32C3CC(C4C5C=C(CO)C3C54)C12

>  <smiles>  (139) 
[H]OC([H])([H])C1=C([H])C2([H])C3([H])C1([H])C1([H])C([H])([H])C([H])(C4([H])C(=C([H])C([H])([H])[H])C([H])([H])C56C([H])([H])c7c(n([H])c8c([H])c([H])c([H])c([H])c78)C([H])([H])C5([H])[N+]([H])(C([H])([H])[H])C([H])([H])C([H])([H])C416)C23[H]

$$$$
42:1:1
     RDKit          3D

 71 79  0  0  1  0  0  0  0  0999 V2000
    2.2645   -3.3165   -2.3137 C   0  0  0  0  0  0  0  0  0  0  0  0
    2.1798   -3.3821   -0.8223 C   0  0  0  0  0  0  0  0  0  0  0  0
    3.1303   -3.3116    0.1275 C   0  0  0  0  0  0  0  0  0  0  0  0
    2.9340   -3.4733    1.6280 C   0  0  0  0  0  0  0  0  0  0  0  0
    3.9243   -4.6225    1.9093 C   0  0  2  0  0  0  0  0  0  0  0  0
    2.9958   -5.8879    1.5756 C   0  0  0  0  0  0  0  0  0  0  0  0
    1.9922   -6.1614    2.6561 C   0  0  0  0  0  0  0  0  0  0  0  0
    2.2083   -5.7786    3.9488 C   0  0  0  0  0  0  0  0  0  0  0  0
    1.1257   -6.1588    4.7314 N   0  0  0  0  0  0  0  0  0  0  0  0
    0.1971   -6.8150    3.9646 C   0  0  0  0  0  0  0  0  0  0  0  0
   -1.0347   -7.4072    4.2809 C   0  0  0  0  0  0  0  0  0  0  0  0
   -1.7677   -8.0791    3.2926 C   0  0  0  0  0  0  0  0  0  0  0  0
   -1.2375   -8.1422    1.9978 C   0  0  0  0  0  0  0  0  0  0  0  0
   -0.0486   -7.4728    1.6569 C   0  0  0  0  0  0  0  0  0  0  0  0
    0.7239   -6.8270    2.6400 C   0  0  0  0  0  0  0  0  0  0  0  0
    3.3826   -5.0275    4.4154 C   0  0  0  0  0  0  0  0  0  0  0  0
    4.4980   -4.9153    3.3327 C   0  0  1  0  0  0  0  0  0  0  0  0
    5.3199   -6.1884    3.2174 N   0  0  2  0  0  0  0  0  0  0  0  0
    6.0949   -6.5047    4.4427 C   0  0  0  0  0  0  0  0  0  0  0  0
    6.1984   -6.3207    1.9911 C   0  0  0  0  0  0  0  0  0  0  0  0
    5.6646   -5.6991    0.6595 C   0  0  0  0  0  0  0  0  0  0  0  0
    5.1704   -4.2797    0.9495 C   0  0  2  0  0  0  0  0  0  0  0  0
    6.3852   -3.3735    1.4876 C   0  0  2  0  0  0  0  0  0  0  0  0
    5.7463   -2.0019    1.5942 C   0  0  0  0  0  0  0  0  0  0  0  0
    5.1579   -1.9206    0.1659 C   0  0  1  0  0  0  0  0  0  0  0  0
    6.2541   -1.5111   -0.8032 C   0  0  2  0  0  0  0  0  0  0  0  0
    7.2624   -2.3263   -1.6611 C   0  0  1  0  0  0  0  0  0  0  0  0
    7.7983   -3.6913   -1.6234 C   0  0  0  0  0  0  0  0  0  0  0  0
    8.0954   -4.1549   -0.3981 C   0  0  0  0  0  0  0  0  0  0  0  0
    8.9020   -5.4144   -0.0454 C   0  0  0  0  0  0  0  0  0  0  0  0
    9.3837   -5.3971    1.2831 O   0  0  0  0  0  0  0  0  0  0  0  0
    7.7342   -3.1279    0.6272 C   0  0  1  0  0  0  0  0  0  0  0  0
    7.6055   -1.9031   -0.2903 C   0  0  2  0  0  0  0  0  0  0  0  0
    4.6009   -3.3372   -0.1462 C   0  0  2  0  0  0  0  0  0  0  0  0
    1.0513   -5.9863    5.7232 H   0  0  0  0  0  0  0  0  0  0  0  0
    1.6065   -2.5043   -2.6352 H   0  0  0  0  0  0  0  0  0  0  0  0
    1.8402   -4.2480   -2.7048 H   0  0  0  0  0  0  0  0  0  0  0  0
    3.2801   -3.1574   -2.6651 H   0  0  0  0  0  0  0  0  0  0  0  0
    1.1699   -3.5569   -0.5925 H   0  0  0  0  0  0  0  0  0  0  0  0
    3.1517   -2.5597    2.1759 H   0  0  0  0  0  0  0  0  0  0  0  0
    1.8998   -3.6929    1.8941 H   0  0  0  0  0  0  0  0  0  0  0  0
    2.4974   -5.8005    0.6108 H   0  0  0  0  0  0  0  0  0  0  0  0
    3.5351   -6.8316    1.5107 H   0  0  0  0  0  0  0  0  0  0  0  0
   -1.3970   -7.4032    5.2858 H   0  0  0  0  0  0  0  0  0  0  0  0
   -2.6989   -8.5723    3.5157 H   0  0  0  0  0  0  0  0  0  0  0  0
   -1.7458   -8.7267    1.2493 H   0  0  0  0  0  0  0  0  0  0  0  0
    0.3140   -7.5247    0.6440 H   0  0  0  0  0  0  0  0  0  0  0  0
    3.0416   -4.0200    4.6442 H   0  0  0  0  0  0  0  0  0  0  0  0
    3.7383   -5.4508    5.3549 H   0  0  0  0  0  0  0  0  0  0  0  0
    5.1320   -4.1077    3.6887 H   0  0  0  0  0  0  0  0  0  0  0  0
    6.7629   -5.6823    4.7073 H   0  0  0  0  0  0  0  0  0  0  0  0
    6.7071   -7.3958    4.2845 H   0  0  0  0  0  0  0  0  0  0  0  0
    5.4517   -6.7159    5.2983 H   0  0  0  0  0  0  0  0  0  0  0  0
    7.1460   -5.8472    2.2350 H   0  0  0  0  0  0  0  0  0  0  0  0
    6.4345   -7.3757    1.8403 H   0  0  0  0  0  0  0  0  0  0  0  0
    6.3858   -5.7380   -0.1230 H   0  0  0  0  0  0  0  0  0  0  0  0
    4.9223   -6.3219    0.1733 H   0  0  0  0  0  0  0  0  0  0  0  0
    6.6751   -3.7322    2.4572 H   0  0  0  0  0  0  0  0  0  0  0  0
    5.0384   -1.9519    2.4123 H   0  0  0  0  0  0  0  0  0  0  0  0
    6.4732   -1.2177    1.8168 H   0  0  0  0  0  0  0  0  0  0  0  0
    4.3834   -1.1491    0.1340 H   0  0  0  0  0  0  0  0  0  0  0  0
    6.1433   -0.4743   -1.0770 H   0  0  0  0  0  0  0  0  0  0  0  0
    7.7891   -1.8299   -2.4435 H   0  0  0  0  0  0  0  0  0  0  0  0
    8.0590   -4.1380   -2.5680 H   0  0  0  0  0  0  0  0  0  0  0  0
    8.3365   -6.3245   -0.2192 H   0  0  0  0  0  0  0  0  0  0  0  0
    9.7615   -5.4099   -0.7001 H   0  0  0  0  0  0  0  0  0  0  0  0
    9.6778   -6.2789    1.5120 H   0  0  0  0  0  0  0  0  0  0  0  0
    8.6490   -2.9654    1.2146 H   0  0  0  0  0  0  0  0  0  0  0  0
    8.4078   -1.1841   -0.1885 H   0  0  0  0  0  0  0  0  0  0  0  0
    4.8045   -3.6857   -1.1586 H   0  0  0  0  0  0  0  0  0  0  0  0
    4.6310   -6.9269    3.1192 H   0  0  0  0  0  0  0  0  0  0  0  0
  1  2  1  0
  1 36  1  0
  1 37  1  0
  1 38  1  0
  2  3  2  3
  2 39  1  0
  3 34  1  0
  3  4  1  0
  5  4  1  1
  4 40  1  0
  4 41  1  0
  5 17  1  0
  5 22  1  0
  5  6  1  0
  6  7  1  0
  6 42  1  0
  6 43  1  0
  7 15  1  0
  7  8  2  0
  8  9  1  0
  8 16  1  0
  9 35  1  0
  9 10  1  0
 10 15  2  0
 10 11  1  0
 11 12  2  0
 11 44  1  0
 12 13  1  0
 12 45  1  0
 13 14  2  0
 13 46  1  0
 14 15  1  0
 14 47  1  0
 16 17  1  0
 16 48  1  0
 16 49  1  0
 17 18  1  0
 17 50  1  1
 18 19  1  0
 18 20  1  0
 18 71  1  6
 19 51  1  0
 19 52  1  0
 19 53  1  0
 20 21  1  0
 20 54  1  0
 20 55  1  0
 22 21  1  6
 21 56  1  0
 21 57  1  0
 22 34  1  0
 22 23  1  0
 23 32  1  0
 23 24  1  0
 23 58  1  1
 24 25  1  0
 24 59  1  0
 24 60  1  0
 25 26  1  0
 25 34  1  0
 25 61  1  1
 26 33  1  0
 26 27  1  0
 26 62  1  6
 27 33  1  0
 27 28  1  0
 27 63  1  6
 28 29  2  0
 28 64  1  0
 29 30  1  0
 29 32  1  0
 30 31  1  0
 30 65  1  0
 30 66  1  0
 31 67  1  0
 32 33  1  0
 32 68  1  1
 33 69  1  6
 34 70  1  6
M  CHG  1  18   1
M  END
>  <i_m_ct_stereo_status>  (140) 
1

>  <s_m_source_file>  (140) 
/var/tmp/pbs.5076255.sched01/tmpe2rv0q7i/42k21vmx8r.sdf

>  <i_m_source_file_index>  (140) 
23

>  <i_lp_mmshare_version>  (140) 
48012

>  <i_f3d_flags>  (140) 
0

>  <s_epik_input>  (140) 
W0NIM10vW0NIXT1DKFxbQ0gyXTEpW0NASF0yW0NAQEhdKFtDSDJdMylbQ0BIXShbQ0BASF00W0NIXT1DNVtDSDJdW09IXSlbQ0BIXTRbQ0hdNVtDQEBIXTNbQ0BdMihbQ0BAXTE2NylbQ0gyXVtDSDJdTihbQ0gzXSlbQ0BASF03W0NIMl1jOGMoW0NIMl02KWM5YyhbbkhdOClbY0hdW2NIXVtjSF1bY0hdOQ==

>  <s_epik_cmdline>  (140) 
J2VwaWtfcHl0aG9uJywgJy1waHQnLCAnMi4wJywgJy1waCcsICc3LjAnLCAnLXRuJywgJzgnLCAnLW1hJywgJzIwMCcsICctaW1hZScsICc8aW5maWxlLm1hZT4nLCAnLW9tYWUnLCAnPG91dGZpbGUubWFlPic=

>  <r_epik_Ionization_Penalty>  (140) 
0.00338504

>  <r_epik_Ionization_Penalty_Charging>  (140) 
0.00338458

>  <r_epik_Ionization_Penalty_Neutral>  (140) 
4.58586e-07

>  <r_epik_State_Penalty>  (140) 
0.00239595

>  <r_epik_Charging_Adjusted_Penalty>  (140) 
0.00578052

>  <i_epik_Tot_Q>  (140) 
1

>  <i_epik_Tot_abs_Q>  (140) 
1

>  <s_lp_Force_Field>  (140) 
OPLS3e

>  <r_lp_Energy>  (140) 
134.036

>  <b_lp_Chiralities_Consistent>  (140) 
1

>  <s_lp_Variant>  (140) 
42:0-2

>  <s_i_glide_gridfile>  (140) 
pfpi4k_grid

>  <i_i_glide_lignum>  (140) 
23

>  <i_i_glide_rotatable_bonds>  (140) 
2

>  <r_i_docking_score>  (140) 
-2.35637

>  <r_i_glide_ligand_efficiency>  (140) 
-0.069305

>  <r_i_glide_ligand_efficiency_sa>  (140) 
-0.224521

>  <r_i_glide_ligand_efficiency_ln>  (140) 
-0.520588

>  <r_i_glide_gscore>  (140) 
-2.35637

>  <r_i_glide_lipo>  (140) 
-0.883588

>  <r_i_glide_hbond>  (140) 
-0.21339

>  <r_i_glide_metal>  (140) 
-0

>  <r_i_glide_rewards>  (140) 
-0.316103

>  <r_i_glide_evdw>  (140) 
-13.0799

>  <r_i_glide_ecoul>  (140) 
-2.35388

>  <r_i_glide_erotb>  (140) 
0.0682855

>  <r_i_glide_esite>  (140) 
-0.00449889

>  <r_i_glide_emodel>  (140) 
-15.8253

>  <r_i_glide_energy>  (140) 
-15.4338

>  <r_i_glide_einternal>  (140) 
2.98086

>  <r_i_glide_intrahb_reward>  (140) 
-0

>  <i_i_glide_confnum>  (140) 
5

>  <i_i_glide_posenum>  (140) 
39

>  <r_i_glide_eff_state_penalty>  (140) 
0

>  <ligand_id>  (140) 
42

>  <original_smiles>  (140) 
CC=C1CC23Cc4c([nH]c5ccccc45)CC2N(C)CCC32C3CC(C4C5C=C(CO)C3C54)C12

>  <smiles>  (140) 
[H]OC([H])([H])C1=C([H])C2([H])C3([H])C1([H])C1([H])C([H])([H])C([H])(C4([H])C(=C([H])C([H])([H])[H])C([H])([H])C56C([H])([H])c7c(n([H])c8c([H])c([H])c([H])c([H])c78)C([H])([H])C5([H])[N+]([H])(C([H])([H])[H])C([H])([H])C([H])([H])C416)C23[H]

$$$$
42:1:2
     RDKit          3D

 71 79  0  0  1  0  0  0  0  0999 V2000
    1.5954   -4.0075   -1.8567 C   0  0  0  0  0  0  0  0  0  0  0  0
    1.7892   -4.3150   -0.3927 C   0  0  0  0  0  0  0  0  0  0  0  0
    2.6312   -3.7705    0.5087 C   0  0  0  0  0  0  0  0  0  0  0  0
    2.5794   -4.0240    2.0075 C   0  0  0  0  0  0  0  0  0  0  0  0
    3.9638   -4.6845    2.1862 C   0  0  2  0  0  0  0  0  0  0  0  0
    3.5902   -6.2054    1.8186 C   0  0  0  0  0  0  0  0  0  0  0  0
    2.8273   -6.8847    2.9190 C   0  0  0  0  0  0  0  0  0  0  0  0
    2.9257   -6.4792    4.2199 C   0  0  0  0  0  0  0  0  0  0  0  0
    2.1387   -7.2872    5.0166 N   0  0  0  0  0  0  0  0  0  0  0  0
    1.5291   -8.2419    4.2588 C   0  0  0  0  0  0  0  0  0  0  0  0
    0.6452   -9.3077    4.6079 C   0  0  0  0  0  0  0  0  0  0  0  0
    0.2056  -10.1559    3.6027 C   0  0  0  0  0  0  0  0  0  0  0  0
    0.6041   -9.9710    2.2969 C   0  0  0  0  0  0  0  0  0  0  0  0
    1.4511   -8.8938    1.9286 C   0  0  0  0  0  0  0  0  0  0  0  0
    1.9407   -8.0164    2.9229 C   0  0  0  0  0  0  0  0  0  0  0  0
    3.7424   -5.3322    4.6883 C   0  0  0  0  0  0  0  0  0  0  0  0
    4.6743   -4.7581    3.5735 C   0  0  1  0  0  0  0  0  0  0  0  0
    5.9117   -5.6153    3.3545 N   0  0  2  0  0  0  0  0  0  0  0  0
    6.8139   -5.6535    4.5555 C   0  0  0  0  0  0  0  0  0  0  0  0
    6.7241   -5.3295    2.0964 C   0  0  0  0  0  0  0  0  0  0  0  0
    5.9158   -4.9246    0.8145 C   0  0  0  0  0  0  0  0  0  0  0  0
    4.9228   -3.8239    1.2016 C   0  0  2  0  0  0  0  0  0  0  0  0
    5.7234   -2.5141    1.7288 C   0  0  2  0  0  0  0  0  0  0  0  0
    4.5897   -1.5206    1.9375 C   0  0  0  0  0  0  0  0  0  0  0  0
    3.9296   -1.6275    0.5413 C   0  0  1  0  0  0  0  0  0  0  0  0
    4.7154   -0.7883   -0.4316 C   0  0  2  0  0  0  0  0  0  0  0  0
    5.8519   -1.1654   -1.4155 C   0  0  2  0  0  0  0  0  0  0  0  0
    6.8523   -2.2664   -1.4705 C   0  0  0  0  0  0  0  0  0  0  0  0
    7.4706   -2.4834   -0.2952 C   0  0  0  0  0  0  0  0  0  0  0  0
    8.7566   -3.2592   -0.0581 C   0  0  0  0  0  0  0  0  0  0  0  0
    9.0437   -4.1292   -1.1258 O   0  0  0  0  0  0  0  0  0  0  0  0
    6.7875   -1.7363    0.8175 C   0  0  1  0  0  0  0  0  0  0  0  0
    6.1559   -0.6324   -0.0279 C   0  0  2  0  0  0  0  0  0  0  0  0
    3.9380   -3.1447    0.1982 C   0  0  2  0  0  0  0  0  0  0  0  0
    2.0593   -7.1920    6.0244 H   0  0  0  0  0  0  0  0  0  0  0  0
    0.7313   -3.3687   -2.0492 H   0  0  0  0  0  0  0  0  0  0  0  0
    1.3754   -4.9926   -2.3204 H   0  0  0  0  0  0  0  0  0  0  0  0
    2.4627   -3.5409   -2.3018 H   0  0  0  0  0  0  0  0  0  0  0  0
    1.0460   -5.0083    0.0058 H   0  0  0  0  0  0  0  0  0  0  0  0
    2.4474   -3.1005    2.5620 H   0  0  0  0  0  0  0  0  0  0  0  0
    1.7253   -4.6289    2.3143 H   0  0  0  0  0  0  0  0  0  0  0  0
    3.0609   -6.3080    0.8688 H   0  0  0  0  0  0  0  0  0  0  0  0
    4.4565   -6.8522    1.6951 H   0  0  0  0  0  0  0  0  0  0  0  0
    0.3379   -9.4766    5.6174 H   0  0  0  0  0  0  0  0  0  0  0  0
   -0.4820  -10.9697    3.8093 H   0  0  0  0  0  0  0  0  0  0  0  0
    0.2212  -10.6708    1.5752 H   0  0  0  0  0  0  0  0  0  0  0  0
    1.7293   -8.7457    0.8981 H   0  0  0  0  0  0  0  0  0  0  0  0
    3.0520   -4.5412    5.0016 H   0  0  0  0  0  0  0  0  0  0  0  0
    4.2827   -5.6058    5.5910 H   0  0  0  0  0  0  0  0  0  0  0  0
    4.9535   -3.7785    3.9194 H   0  0  0  0  0  0  0  0  0  0  0  0
    7.0917   -4.6664    4.8796 H   0  0  0  0  0  0  0  0  0  0  0  0
    7.7353   -6.1855    4.3218 H   0  0  0  0  0  0  0  0  0  0  0  0
    6.3432   -6.1702    5.3941 H   0  0  0  0  0  0  0  0  0  0  0  0
    7.4132   -4.5411    2.3219 H   0  0  0  0  0  0  0  0  0  0  0  0
    7.3463   -6.1950    1.8733 H   0  0  0  0  0  0  0  0  0  0  0  0
    6.5786   -4.6457    0.0071 H   0  0  0  0  0  0  0  0  0  0  0  0
    5.4523   -5.7707    0.3132 H   0  0  0  0  0  0  0  0  0  0  0  0
    6.2090   -2.6973    2.6794 H   0  0  0  0  0  0  0  0  0  0  0  0
    3.9529   -1.7854    2.7682 H   0  0  0  0  0  0  0  0  0  0  0  0
    4.9457   -0.5135    2.1761 H   0  0  0  0  0  0  0  0  0  0  0  0
    2.9192   -1.2159    0.5736 H   0  0  0  0  0  0  0  0  0  0  0  0
    4.2325    0.1397   -0.7044 H   0  0  0  0  0  0  0  0  0  0  0  0
    5.9230   -0.4852   -2.2465 H   0  0  0  0  0  0  0  0  0  0  0  0
    7.1587   -2.6804   -2.4220 H   0  0  0  0  0  0  0  0  0  0  0  0
    9.5930   -2.5568    0.0606 H   0  0  0  0  0  0  0  0  0  0  0  0
    8.7236   -3.8396    0.8610 H   0  0  0  0  0  0  0  0  0  0  0  0
    9.6150   -3.6566   -1.7265 H   0  0  0  0  0  0  0  0  0  0  0  0
    7.5358   -1.2343    1.4404 H   0  0  0  0  0  0  0  0  0  0  0  0
    6.5926    0.3469    0.0918 H   0  0  0  0  0  0  0  0  0  0  0  0
    4.2075   -3.3298   -0.8415 H   0  0  0  0  0  0  0  0  0  0  0  0
    5.5806   -6.5280    3.2302 H   0  0  0  0  0  0  0  0  0  0  0  0
  1  2  1  0
  1 36  1  0
  1 37  1  0
  1 38  1  0
  2  3  2  3
  2 39  1  0
  3 34  1  0
  3  4  1  0
  5  4  1  1
  4 40  1  0
  4 41  1  0
  5 17  1  0
  5 22  1  0
  5  6  1  0
  6  7  1  0
  6 42  1  0
  6 43  1  0
  7 15  1  0
  7  8  2  0
  8  9  1  0
  8 16  1  0
  9 35  1  0
  9 10  1  0
 10 15  2  0
 10 11  1  0
 11 12  2  0
 11 44  1  0
 12 13  1  0
 12 45  1  0
 13 14  2  0
 13 46  1  0
 14 15  1  0
 14 47  1  0
 16 17  1  0
 16 48  1  0
 16 49  1  0
 17 18  1  0
 17 50  1  1
 18 19  1  0
 18 20  1  0
 18 71  1  6
 19 51  1  0
 19 52  1  0
 19 53  1  0
 20 21  1  0
 20 54  1  0
 20 55  1  0
 22 21  1  6
 21 56  1  0
 21 57  1  0
 22 34  1  0
 22 23  1  0
 23 32  1  0
 23 24  1  0
 23 58  1  1
 24 25  1  0
 24 59  1  0
 24 60  1  0
 25 26  1  0
 25 34  1  0
 25 61  1  1
 26 33  1  0
 26 27  1  0
 26 62  1  6
 27 33  1  0
 27 28  1  0
 27 63  1  6
 28 29  2  0
 28 64  1  0
 29 30  1  0
 29 32  1  0
 30 31  1  0
 30 65  1  0
 30 66  1  0
 31 67  1  0
 32 33  1  0
 32 68  1  1
 33 69  1  6
 34 70  1  6
M  CHG  1  18   1
M  END
>  <i_m_ct_stereo_status>  (141) 
1

>  <s_m_source_file>  (141) 
/var/tmp/pbs.5076255.sched01/tmpe2rv0q7i/42k21vmx8r.sdf

>  <i_m_source_file_index>  (141) 
23

>  <i_lp_mmshare_version>  (141) 
48012

>  <i_f3d_flags>  (141) 
0

>  <s_epik_input>  (141) 
W0NIM10vW0NIXT1DKFxbQ0gyXTEpW0NASF0yW0NAQEhdKFtDSDJdMylbQ0BIXShbQ0BASF00W0NIXT1DNVtDSDJdW09IXSlbQ0BIXTRbQ0hdNVtDQEBIXTNbQ0BdMihbQ0BAXTE2NylbQ0gyXVtDSDJdTihbQ0gzXSlbQ0BASF03W0NIMl1jOGMoW0NIMl02KWM5YyhbbkhdOClbY0hdW2NIXVtjSF1bY0hdOQ==

>  <s_epik_cmdline>  (141) 
J2VwaWtfcHl0aG9uJywgJy1waHQnLCAnMi4wJywgJy1waCcsICc3LjAnLCAnLXRuJywgJzgnLCAnLW1hJywgJzIwMCcsICctaW1hZScsICc8aW5maWxlLm1hZT4nLCAnLW9tYWUnLCAnPG91dGZpbGUubWFlPic=

>  <r_epik_Ionization_Penalty>  (141) 
0.00338504

>  <r_epik_Ionization_Penalty_Charging>  (141) 
0.00338458

>  <r_epik_Ionization_Penalty_Neutral>  (141) 
4.58586e-07

>  <r_epik_State_Penalty>  (141) 
0.00239595

>  <r_epik_Charging_Adjusted_Penalty>  (141) 
0.00578052

>  <i_epik_Tot_Q>  (141) 
1

>  <i_epik_Tot_abs_Q>  (141) 
1

>  <s_lp_Force_Field>  (141) 
OPLS3e

>  <r_lp_Energy>  (141) 
134.036

>  <b_lp_Chiralities_Consistent>  (141) 
1

>  <s_lp_Variant>  (141) 
42:0-2

>  <s_i_glide_gridfile>  (141) 
pfpi4k_grid

>  <i_i_glide_lignum>  (141) 
23

>  <i_i_glide_rotatable_bonds>  (141) 
2

>  <r_i_docking_score>  (141) 
-2.13584

>  <r_i_glide_ligand_efficiency>  (141) 
-0.0628189

>  <r_i_glide_ligand_efficiency_sa>  (141) 
-0.203509

>  <r_i_glide_ligand_efficiency_ln>  (141) 
-0.471867

>  <r_i_glide_gscore>  (141) 
-2.13584

>  <r_i_glide_lipo>  (141) 
-0.518658

>  <r_i_glide_hbond>  (141) 
-0.257406

>  <r_i_glide_metal>  (141) 
-0

>  <r_i_glide_rewards>  (141) 
-0.316103

>  <r_i_glide_evdw>  (141) 
-7.98162

>  <r_i_glide_ecoul>  (141) 
-4.75253

>  <r_i_glide_erotb>  (141) 
0.0682855

>  <r_i_glide_esite>  (141) 
0

>  <r_i_glide_emodel>  (141) 
-12.2535

>  <r_i_glide_energy>  (141) 
-12.7341

>  <r_i_glide_einternal>  (141) 
1.31347

>  <r_i_glide_intrahb_reward>  (141) 
-0

>  <i_i_glide_confnum>  (141) 
5

>  <i_i_glide_posenum>  (141) 
8

>  <r_i_glide_eff_state_penalty>  (141) 
0

>  <ligand_id>  (141) 
42

>  <original_smiles>  (141) 
CC=C1CC23Cc4c([nH]c5ccccc45)CC2N(C)CCC32C3CC(C4C5C=C(CO)C3C54)C12

>  <smiles>  (141) 
[H]OC([H])([H])C1=C([H])C2([H])C3([H])C1([H])C1([H])C([H])([H])C([H])(C4([H])C(=C([H])C([H])([H])[H])C([H])([H])C56C([H])([H])c7c(n([H])c8c([H])c([H])c([H])c([H])c78)C([H])([H])C5([H])[N+]([H])(C([H])([H])[H])C([H])([H])C([H])([H])C416)C23[H]

$$$$
44:0:0
     RDKit          3D

 28 31  0  0  1  0  0  0  0  0999 V2000
    5.3307   -7.0679    1.0070 O   0  0  0  0  0  0  0  0  0  0  0  0
    4.3188   -6.3789    0.8872 C   0  0  0  0  0  0  0  0  0  0  0  0
    2.9739   -6.7842    1.2938 C   0  0  0  0  0  0  0  0  0  0  0  0
    2.3700   -7.9087    1.8632 C   0  0  0  0  0  0  0  0  0  0  0  0
    2.8324   -9.1705    2.2928 C   0  0  0  0  0  0  0  0  0  0  0  0
    1.8687  -10.0540    2.8330 C   0  0  0  0  0  0  0  0  0  0  0  0
    0.5044   -9.6715    2.9240 C   0  0  0  0  0  0  0  0  0  0  0  0
    0.0741   -8.3996    2.4816 C   0  0  0  0  0  0  0  0  0  0  0  0
    1.0283   -7.5196    1.9457 C   0  0  0  0  0  0  0  0  0  0  0  0
    0.7852   -6.2625    1.4734 N   0  0  0  0  0  0  0  0  0  0  0  0
    2.0360   -5.8464    1.0765 N   0  0  0  0  0  0  0  0  0  0  0  0
    2.6335   -4.4138    0.3922 S   0  0  0  0  0  0  0  0  0  0  0  0
    4.2390   -5.1211    0.3820 N   0  0  0  0  0  0  0  0  0  0  0  0
    5.3759   -4.3211   -0.0826 C   0  0  0  0  0  0  0  0  0  0  0  0
    5.0475   -3.3478   -1.1791 C   0  0  0  0  0  0  0  0  0  0  0  0
    4.7651   -3.4737   -2.5123 C   0  0  0  0  0  0  0  0  0  0  0  0
    4.5271   -2.1593   -3.0022 C   0  0  0  0  0  0  0  0  0  0  0  0
    4.6739   -1.3280   -1.9297 C   0  0  0  0  0  0  0  0  0  0  0  0
    4.9988   -2.0353   -0.8138 O   0  0  0  0  0  0  0  0  0  0  0  0
    3.8725   -9.4574    2.2132 H   0  0  0  0  0  0  0  0  0  0  0  0
    2.1684  -11.0385    3.1705 H   0  0  0  0  0  0  0  0  0  0  0  0
   -0.2177  -10.3621    3.3332 H   0  0  0  0  0  0  0  0  0  0  0  0
   -0.9652   -8.1117    2.5487 H   0  0  0  0  0  0  0  0  0  0  0  0
    5.7847   -3.7865    0.7749 H   0  0  0  0  0  0  0  0  0  0  0  0
    6.1626   -4.9872   -0.4371 H   0  0  0  0  0  0  0  0  0  0  0  0
    4.7229   -4.4036   -3.0622 H   0  0  0  0  0  0  0  0  0  0  0  0
    4.2704   -1.8550   -4.0070 H   0  0  0  0  0  0  0  0  0  0  0  0
    4.5902   -0.2573   -1.7888 H   0  0  0  0  0  0  0  0  0  0  0  0
  1  2  2  0
  2 13  1  0
  2  3  1  0
  3 11  1  0
  3  4  2  0
  4  9  1  0
  4  5  1  0
  5  6  2  0
  5 20  1  0
  6  7  1  0
  6 21  1  0
  7  8  2  0
  7 22  1  0
  8  9  1  0
  8 23  1  0
  9 10  2  0
 10 11  1  0
 11 12  1  0
 12 13  1  0
 13 14  1  0
 14 15  1  0
 14 24  1  0
 14 25  1  0
 15 19  1  0
 15 16  2  0
 16 17  1  0
 16 26  1  0
 17 18  2  0
 17 27  1  0
 18 19  1  0
 18 28  1  0
M  END
>  <i_m_ct_stereo_status>  (142) 
1

>  <s_m_source_file>  (142) 
/var/tmp/pbs.5076255.sched01/tmpe2rv0q7i/42k21vmx8r.sdf

>  <i_m_source_file_index>  (142) 
25

>  <i_lp_mmshare_version>  (142) 
48012

>  <i_f3d_flags>  (142) 
0

>  <s_epik_input>  (142) 
bzFbY0hdW2NIXVtjSF1jMVtDSDJdbihjMj1PKXNuM25jKGM0YzIzKVtjSF1bY0hdW2NIXVtjSF00

>  <s_epik_cmdline>  (142) 
J2VwaWtfcHl0aG9uJywgJy1waHQnLCAnMi4wJywgJy1waCcsICc3LjAnLCAnLXRuJywgJzgnLCAnLW1hJywgJzIwMCcsICctaW1hZScsICc8aW5maWxlLm1hZT4nLCAnLW9tYWUnLCAnPG91dGZpbGUubWFlPic=

>  <r_lp_tautomer_probability>  (142) 
1

>  <r_epik_Ionization_Penalty>  (142) 
9.98914e-05

>  <r_epik_Ionization_Penalty_Charging>  (142) 
1.00441e-08

>  <r_epik_Ionization_Penalty_Neutral>  (142) 
9.98813e-05

>  <r_epik_State_Penalty>  (142) 
-0

>  <r_epik_Charging_Adjusted_Penalty>  (142) 
1.00441e-08

>  <i_epik_Tot_Q>  (142) 
0

>  <i_epik_Tot_abs_Q>  (142) 
0

>  <s_lp_Force_Field>  (142) 
OPLS3e

>  <r_lp_Energy>  (142) 
11.8208

>  <b_lp_Chiralities_Consistent>  (142) 
1

>  <s_lp_Variant>  (142) 
44:0-1

>  <s_i_glide_gridfile>  (142) 
pfpi4k_grid

>  <i_i_glide_lignum>  (142) 
25

>  <i_i_glide_rotatable_bonds>  (142) 
2

>  <r_i_docking_score>  (142) 
-3.79131

>  <r_i_glide_ligand_efficiency>  (142) 
-0.199543

>  <r_i_glide_ligand_efficiency_sa>  (142) 
-0.53246

>  <r_i_glide_ligand_efficiency_ln>  (142) 
-0.961179

>  <r_i_glide_gscore>  (142) 
-3.79131

>  <r_i_glide_lipo>  (142) 
-0.491449

>  <r_i_glide_hbond>  (142) 
-0.16

>  <r_i_glide_metal>  (142) 
-0

>  <r_i_glide_rewards>  (142) 
-1.62389

>  <r_i_glide_evdw>  (142) 
-27.4705

>  <r_i_glide_ecoul>  (142) 
-3.89288

>  <r_i_glide_erotb>  (142) 
0.486445

>  <r_i_glide_esite>  (142) 
-0.0449662

>  <r_i_glide_emodel>  (142) 
-37.8134

>  <r_i_glide_energy>  (142) 
-31.3634

>  <r_i_glide_einternal>  (142) 
2.51356

>  <r_i_glide_intrahb_reward>  (142) 
-0

>  <i_i_glide_confnum>  (142) 
4

>  <i_i_glide_posenum>  (142) 
40

>  <r_i_glide_eff_state_penalty>  (142) 
0

>  <ligand_id>  (142) 
44

>  <original_smiles>  (142) 
O=c1c2c3ccccc3nn2sn1Cc1ccco1

>  <smiles>  (142) 
[H]c1oc(C([H])([H])n2sn3nc4c([H])c([H])c([H])c([H])c4c3c2=O)c([H])c1[H]

$$$$
44:0:1
     RDKit          3D

 28 31  0  0  1  0  0  0  0  0999 V2000
    5.1403   -7.4501    0.8989 O   0  0  0  0  0  0  0  0  0  0  0  0
    4.1891   -6.6693    0.9367 C   0  0  0  0  0  0  0  0  0  0  0  0
    2.8463   -7.0099    1.4392 C   0  0  0  0  0  0  0  0  0  0  0  0
    2.2113   -8.1169    1.9819 C   0  0  0  0  0  0  0  0  0  0  0  0
    2.6148   -9.4265    2.2919 C   0  0  0  0  0  0  0  0  0  0  0  0
    1.6359  -10.2672    2.8738 C   0  0  0  0  0  0  0  0  0  0  0  0
    0.3135   -9.7914    3.1132 C   0  0  0  0  0  0  0  0  0  0  0  0
   -0.0551   -8.4650    2.7871 C   0  0  0  0  0  0  0  0  0  0  0  0
    0.9116   -7.6352    2.2181 C   0  0  0  0  0  0  0  0  0  0  0  0
    0.7290   -6.3366    1.8683 N   0  0  0  0  0  0  0  0  0  0  0  0
    1.9788   -5.9912    1.4158 N   0  0  0  0  0  0  0  0  0  0  0  0
    2.6725   -4.5445    0.9248 S   0  0  0  0  0  0  0  0  0  0  0  0
    4.1635   -5.3635    0.5542 N   0  0  0  0  0  0  0  0  0  0  0  0
    5.2929   -4.5977   -0.0178 C   0  0  0  0  0  0  0  0  0  0  0  0
    4.9842   -3.6248   -1.1428 C   0  0  0  0  0  0  0  0  0  0  0  0
    5.6743   -3.1785   -2.2469 C   0  0  0  0  0  0  0  0  0  0  0  0
    4.8266   -2.2451   -2.9123 C   0  0  0  0  0  0  0  0  0  0  0  0
    3.6871   -2.1623   -2.1641 C   0  0  0  0  0  0  0  0  0  0  0  0
    3.8018   -2.9530   -1.0720 O   0  0  0  0  0  0  0  0  0  0  0  0
    3.6260   -9.7724    2.0924 H   0  0  0  0  0  0  0  0  0  0  0  0
    1.8866  -11.2918    3.1202 H   0  0  0  0  0  0  0  0  0  0  0  0
   -0.4262  -10.4471    3.5478 H   0  0  0  0  0  0  0  0  0  0  0  0
   -1.0556   -8.0920    2.9686 H   0  0  0  0  0  0  0  0  0  0  0  0
    5.7548   -4.0546    0.8066 H   0  0  0  0  0  0  0  0  0  0  0  0
    6.0495   -5.2963   -0.3714 H   0  0  0  0  0  0  0  0  0  0  0  0
    6.6659   -3.4992   -2.5308 H   0  0  0  0  0  0  0  0  0  0  0  0
    5.0005   -1.6786   -3.8090 H   0  0  0  0  0  0  0  0  0  0  0  0
    2.7436   -1.6248   -2.2127 H   0  0  0  0  0  0  0  0  0  0  0  0
  1  2  2  0
  2 13  1  0
  2  3  1  0
  3 11  1  0
  3  4  2  0
  4  9  1  0
  4  5  1  0
  5  6  2  0
  5 20  1  0
  6  7  1  0
  6 21  1  0
  7  8  2  0
  7 22  1  0
  8  9  1  0
  8 23  1  0
  9 10  2  0
 10 11  1  0
 11 12  1  0
 12 13  1  0
 13 14  1  0
 14 15  1  0
 14 24  1  0
 14 25  1  0
 15 19  1  0
 15 16  2  0
 16 17  1  0
 16 26  1  0
 17 18  2  0
 17 27  1  0
 18 19  1  0
 18 28  1  0
M  END
>  <i_m_ct_stereo_status>  (143) 
1

>  <s_m_source_file>  (143) 
/var/tmp/pbs.5076255.sched01/tmpe2rv0q7i/42k21vmx8r.sdf

>  <i_m_source_file_index>  (143) 
25

>  <i_lp_mmshare_version>  (143) 
48012

>  <i_f3d_flags>  (143) 
0

>  <s_epik_input>  (143) 
bzFbY0hdW2NIXVtjSF1jMVtDSDJdbihjMj1PKXNuM25jKGM0YzIzKVtjSF1bY0hdW2NIXVtjSF00

>  <s_epik_cmdline>  (143) 
J2VwaWtfcHl0aG9uJywgJy1waHQnLCAnMi4wJywgJy1waCcsICc3LjAnLCAnLXRuJywgJzgnLCAnLW1hJywgJzIwMCcsICctaW1hZScsICc8aW5maWxlLm1hZT4nLCAnLW9tYWUnLCAnPG91dGZpbGUubWFlPic=

>  <r_lp_tautomer_probability>  (143) 
1

>  <r_epik_Ionization_Penalty>  (143) 
9.98914e-05

>  <r_epik_Ionization_Penalty_Charging>  (143) 
1.00441e-08

>  <r_epik_Ionization_Penalty_Neutral>  (143) 
9.98813e-05

>  <r_epik_State_Penalty>  (143) 
-0

>  <r_epik_Charging_Adjusted_Penalty>  (143) 
1.00441e-08

>  <i_epik_Tot_Q>  (143) 
0

>  <i_epik_Tot_abs_Q>  (143) 
0

>  <s_lp_Force_Field>  (143) 
OPLS3e

>  <r_lp_Energy>  (143) 
11.8208

>  <b_lp_Chiralities_Consistent>  (143) 
1

>  <s_lp_Variant>  (143) 
44:0-1

>  <s_i_glide_gridfile>  (143) 
pfpi4k_grid

>  <i_i_glide_lignum>  (143) 
25

>  <i_i_glide_rotatable_bonds>  (143) 
2

>  <r_i_docking_score>  (143) 
-3.66848

>  <r_i_glide_ligand_efficiency>  (143) 
-0.193078

>  <r_i_glide_ligand_efficiency_sa>  (143) 
-0.515209

>  <r_i_glide_ligand_efficiency_ln>  (143) 
-0.930037

>  <r_i_glide_gscore>  (143) 
-3.66848

>  <r_i_glide_lipo>  (143) 
-0.615679

>  <r_i_glide_hbond>  (143) 
-0.0921634

>  <r_i_glide_metal>  (143) 
-0

>  <r_i_glide_rewards>  (143) 
-1.62071

>  <r_i_glide_evdw>  (143) 
-27.1153

>  <r_i_glide_ecoul>  (143) 
-2.86966

>  <r_i_glide_erotb>  (143) 
0.486445

>  <r_i_glide_esite>  (143) 
-0.0401572

>  <r_i_glide_emodel>  (143) 
-35.4463

>  <r_i_glide_energy>  (143) 
-29.985

>  <r_i_glide_einternal>  (143) 
2.67436

>  <r_i_glide_intrahb_reward>  (143) 
-0

>  <i_i_glide_confnum>  (143) 
4

>  <i_i_glide_posenum>  (143) 
3

>  <r_i_glide_eff_state_penalty>  (143) 
0

>  <ligand_id>  (143) 
44

>  <original_smiles>  (143) 
O=c1c2c3ccccc3nn2sn1Cc1ccco1

>  <smiles>  (143) 
[H]c1oc(C([H])([H])n2sn3nc4c([H])c([H])c([H])c([H])c4c3c2=O)c([H])c1[H]

$$$$
44:0:2
     RDKit          3D

 28 31  0  0  1  0  0  0  0  0999 V2000
    6.1316   -1.2830   -0.1158 O   0  0  0  0  0  0  0  0  0  0  0  0
    5.2432   -2.0911    0.1580 C   0  0  0  0  0  0  0  0  0  0  0  0
    4.6052   -2.2326    1.4650 C   0  0  0  0  0  0  0  0  0  0  0  0
    4.7005   -1.6228    2.7198 C   0  0  0  0  0  0  0  0  0  0  0  0
    5.4782   -0.5750    3.2459 C   0  0  0  0  0  0  0  0  0  0  0  0
    5.2764   -0.2461    4.6077 C   0  0  0  0  0  0  0  0  0  0  0  0
    4.3220   -0.9544    5.3848 C   0  0  0  0  0  0  0  0  0  0  0  0
    3.5536   -2.0003    4.8213 C   0  0  0  0  0  0  0  0  0  0  0  0
    3.7558   -2.3268    3.4691 C   0  0  0  0  0  0  0  0  0  0  0  0
    3.1058   -3.2981    2.7677 N   0  0  0  0  0  0  0  0  0  0  0  0
    3.6718   -3.1999    1.5172 N   0  0  0  0  0  0  0  0  0  0  0  0
    3.4474   -4.0303    0.0524 S   0  0  0  0  0  0  0  0  0  0  0  0
    4.6815   -3.0142   -0.6703 N   0  0  0  0  0  0  0  0  0  0  0  0
    4.9877   -3.1811   -2.0884 C   0  0  0  0  0  0  0  0  0  0  0  0
    4.2648   -2.1850   -2.9357 C   0  0  0  0  0  0  0  0  0  0  0  0
    3.3136   -2.2855   -3.9117 C   0  0  0  0  0  0  0  0  0  0  0  0
    3.0247   -0.9543   -4.3194 C   0  0  0  0  0  0  0  0  0  0  0  0
    3.8126   -0.1430   -3.5599 C   0  0  0  0  0  0  0  0  0  0  0  0
    4.5851   -0.8770   -2.7196 O   0  0  0  0  0  0  0  0  0  0  0  0
    6.2019   -0.0515    2.6396 H   0  0  0  0  0  0  0  0  0  0  0  0
    5.8525    0.5476    5.0620 H   0  0  0  0  0  0  0  0  0  0  0  0
    4.1771   -0.6923    6.4220 H   0  0  0  0  0  0  0  0  0  0  0  0
    2.8252   -2.5414    5.4068 H   0  0  0  0  0  0  0  0  0  0  0  0
    6.0605   -3.0667   -2.2398 H   0  0  0  0  0  0  0  0  0  0  0  0
    4.7401   -4.1962   -2.4125 H   0  0  0  0  0  0  0  0  0  0  0  0
    2.8679   -3.2044   -4.2705 H   0  0  0  0  0  0  0  0  0  0  0  0
    2.3236   -0.6199   -5.0698 H   0  0  0  0  0  0  0  0  0  0  0  0
    3.9445    0.9289   -3.5022 H   0  0  0  0  0  0  0  0  0  0  0  0
  1  2  2  0
  2 13  1  0
  2  3  1  0
  3 11  1  0
  3  4  2  0
  4  9  1  0
  4  5  1  0
  5  6  2  0
  5 20  1  0
  6  7  1  0
  6 21  1  0
  7  8  2  0
  7 22  1  0
  8  9  1  0
  8 23  1  0
  9 10  2  0
 10 11  1  0
 11 12  1  0
 12 13  1  0
 13 14  1  0
 14 15  1  0
 14 24  1  0
 14 25  1  0
 15 19  1  0
 15 16  2  0
 16 17  1  0
 16 26  1  0
 17 18  2  0
 17 27  1  0
 18 19  1  0
 18 28  1  0
M  END
>  <i_m_ct_stereo_status>  (144) 
1

>  <s_m_source_file>  (144) 
/var/tmp/pbs.5076255.sched01/tmpe2rv0q7i/42k21vmx8r.sdf

>  <i_m_source_file_index>  (144) 
25

>  <i_lp_mmshare_version>  (144) 
48012

>  <i_f3d_flags>  (144) 
0

>  <s_epik_input>  (144) 
bzFbY0hdW2NIXVtjSF1jMVtDSDJdbihjMj1PKXNuM25jKGM0YzIzKVtjSF1bY0hdW2NIXVtjSF00

>  <s_epik_cmdline>  (144) 
J2VwaWtfcHl0aG9uJywgJy1waHQnLCAnMi4wJywgJy1waCcsICc3LjAnLCAnLXRuJywgJzgnLCAnLW1hJywgJzIwMCcsICctaW1hZScsICc8aW5maWxlLm1hZT4nLCAnLW9tYWUnLCAnPG91dGZpbGUubWFlPic=

>  <r_lp_tautomer_probability>  (144) 
1

>  <r_epik_Ionization_Penalty>  (144) 
9.98914e-05

>  <r_epik_Ionization_Penalty_Charging>  (144) 
1.00441e-08

>  <r_epik_Ionization_Penalty_Neutral>  (144) 
9.98813e-05

>  <r_epik_State_Penalty>  (144) 
-0

>  <r_epik_Charging_Adjusted_Penalty>  (144) 
1.00441e-08

>  <i_epik_Tot_Q>  (144) 
0

>  <i_epik_Tot_abs_Q>  (144) 
0

>  <s_lp_Force_Field>  (144) 
OPLS3e

>  <r_lp_Energy>  (144) 
11.8208

>  <b_lp_Chiralities_Consistent>  (144) 
1

>  <s_lp_Variant>  (144) 
44:0-1

>  <s_i_glide_gridfile>  (144) 
pfpi4k_grid

>  <i_i_glide_lignum>  (144) 
25

>  <i_i_glide_rotatable_bonds>  (144) 
2

>  <r_i_docking_score>  (144) 
-3.60187

>  <r_i_glide_ligand_efficiency>  (144) 
-0.189572

>  <r_i_glide_ligand_efficiency_sa>  (144) 
-0.505855

>  <r_i_glide_ligand_efficiency_ln>  (144) 
-0.913152

>  <r_i_glide_gscore>  (144) 
-3.60187

>  <r_i_glide_lipo>  (144) 
-0.844287

>  <r_i_glide_hbond>  (144) 
-0.0184497

>  <r_i_glide_metal>  (144) 
-0

>  <r_i_glide_rewards>  (144) 
-1.58012

>  <r_i_glide_evdw>  (144) 
-25.7787

>  <r_i_glide_ecoul>  (144) 
-2.37685

>  <r_i_glide_erotb>  (144) 
0.486445

>  <r_i_glide_esite>  (144) 
0

>  <r_i_glide_emodel>  (144) 
-35.0163

>  <r_i_glide_energy>  (144) 
-28.1555

>  <r_i_glide_einternal>  (144) 
0.951195

>  <r_i_glide_intrahb_reward>  (144) 
-0

>  <i_i_glide_confnum>  (144) 
1

>  <i_i_glide_posenum>  (144) 
4

>  <r_i_glide_eff_state_penalty>  (144) 
0

>  <ligand_id>  (144) 
44

>  <original_smiles>  (144) 
O=c1c2c3ccccc3nn2sn1Cc1ccco1

>  <smiles>  (144) 
[H]c1oc(C([H])([H])n2sn3nc4c([H])c([H])c([H])c([H])c4c3c2=O)c([H])c1[H]

$$$$
45:0:0
     RDKit          3D

 68 73  0  0  1  0  0  0  0  0999 V2000
    2.6206   -4.2158    0.6385 C   0  0  0  0  0  0  0  0  0  0  0  0
    2.8363   -5.2239    1.6155 O   0  0  0  0  0  0  0  0  0  0  0  0
    3.7104   -4.9565    2.6529 C   0  0  0  0  0  0  0  0  0  0  0  0
    4.1192   -3.6466    3.0081 C   0  0  0  0  0  0  0  0  0  0  0  0
    5.0091   -3.4431    4.0743 C   0  0  0  0  0  0  0  0  0  0  0  0
    5.5092   -4.5335    4.8021 C   0  0  0  0  0  0  0  0  0  0  0  0
    5.1144   -5.8345    4.4674 C   0  0  0  0  0  0  0  0  0  0  0  0
    4.2150   -6.0458    3.3994 C   0  0  0  0  0  0  0  0  0  0  0  0
    3.8464   -7.4912    3.0991 C   0  0  1  0  0  0  0  0  0  0  0  0
    4.9874   -8.0012    2.2137 C   0  0  0  0  0  0  0  0  0  0  0  0
    4.9447   -7.9462    0.9852 O   0  0  0  0  0  0  0  0  0  0  0  0
    6.1821   -8.5449    2.9537 C   0  0  0  0  0  0  0  0  0  0  0  0
    5.6656   -9.2653    4.2128 C   0  0  1  0  0  0  0  0  0  0  0  0
    4.9812   -8.1560    5.1637 C   0  0  1  0  0  0  0  0  0  0  0  0
    5.6371   -6.8781    5.2064 O   0  0  0  0  0  0  0  0  0  0  0  0
    3.6005   -8.1623    4.5624 C   0  0  1  0  0  0  0  0  0  0  0  0
    2.3032   -7.5725    4.5522 O   0  0  0  0  0  0  0  0  0  0  0  0
    1.5128   -8.5512    3.9076 C   0  0  0  0  0  0  0  0  0  0  0  0
    0.3889   -8.1803    3.2640 C   0  0  0  0  0  0  0  0  0  0  0  0
   -0.5511   -9.0433    2.5148 C   0  0  0  0  0  0  0  0  0  0  0  0
   -0.1933  -10.4846    2.1689 C   0  0  0  0  0  0  0  0  0  0  0  0
   -1.6240   -8.5880    2.1231 O   0  0  0  0  0  0  0  0  0  0  0  0
    2.1297   -9.9540    4.2245 C   0  0  1  0  0  0  0  0  0  0  0  0
    1.1904  -10.8557    4.7274 O   0  0  0  0  0  0  0  0  0  0  0  0
    3.2734  -10.6131    3.3291 C   0  0  1  0  0  0  0  0  0  0  0  0
    3.1093  -10.2310    1.9888 O   0  0  0  0  0  0  0  0  0  0  0  0
    4.8396  -10.6307    3.8120 C   0  0  1  0  0  0  0  0  0  0  0  0
    5.6132  -11.3550    2.6574 C   0  0  0  0  0  0  0  0  0  0  0  0
    4.9770  -11.6597    4.9659 C   0  0  0  0  0  0  0  0  0  0  0  0
    4.6924  -11.1939    6.3997 C   0  0  1  0  0  0  0  0  0  0  0  0
    5.9606  -10.7699    7.2006 C   0  0  0  0  0  0  0  0  0  0  0  0
    6.9078  -11.8168    7.2480 O   0  0  0  0  0  0  0  0  0  0  0  0
    3.4258  -10.3004    6.5304 C   0  0  1  0  0  0  0  0  0  0  0  0
    3.2612   -9.6599    7.9497 C   0  0  0  0  0  0  0  0  0  0  0  0
    3.0327  -10.6583    8.9250 O   0  0  0  0  0  0  0  0  0  0  0  0
    2.8952   -9.3870    5.3273 C   0  0  1  0  0  0  0  0  0  0  0  0
    1.9153   -4.5870   -0.1070 H   0  0  0  0  0  0  0  0  0  0  0  0
    3.5465   -3.9669    0.1173 H   0  0  0  0  0  0  0  0  0  0  0  0
    2.1960   -3.3052    1.0612 H   0  0  0  0  0  0  0  0  0  0  0  0
    3.7607   -2.7790    2.4814 H   0  0  0  0  0  0  0  0  0  0  0  0
    5.3104   -2.4425    4.3468 H   0  0  0  0  0  0  0  0  0  0  0  0
    6.1963   -4.3776    5.6162 H   0  0  0  0  0  0  0  0  0  0  0  0
    2.9802   -7.4862    2.4403 H   0  0  0  0  0  0  0  0  0  0  0  0
    6.7790   -9.1802    2.3025 H   0  0  0  0  0  0  0  0  0  0  0  0
    6.8230   -7.7069    3.2178 H   0  0  0  0  0  0  0  0  0  0  0  0
    6.5896   -9.5812    4.6965 H   0  0  0  0  0  0  0  0  0  0  0  0
    4.9739   -8.4426    6.2067 H   0  0  0  0  0  0  0  0  0  0  0  0
    0.1669   -7.1273    3.2533 H   0  0  0  0  0  0  0  0  0  0  0  0
   -0.1446  -11.0812    3.0641 H   0  0  0  0  0  0  0  0  0  0  0  0
    0.7894  -10.4834    1.7131 H   0  0  0  0  0  0  0  0  0  0  0  0
   -0.9045  -10.9347    1.4621 H   0  0  0  0  0  0  0  0  0  0  0  0
    1.5682  -11.3358    5.4828 H   0  0  0  0  0  0  0  0  0  0  0  0
    2.9892  -11.6646    3.2575 H   0  0  0  0  0  0  0  0  0  0  0  0
    3.4742  -10.9105    1.4215 H   0  0  0  0  0  0  0  0  0  0  0  0
    5.2250  -12.3626    2.4916 H   0  0  0  0  0  0  0  0  0  0  0  0
    6.6819  -11.4549    2.8698 H   0  0  0  0  0  0  0  0  0  0  0  0
    5.5363  -10.8472    1.6920 H   0  0  0  0  0  0  0  0  0  0  0  0
    4.3337  -12.5145    4.7542 H   0  0  0  0  0  0  0  0  0  0  0  0
    5.9807  -12.0879    4.9473 H   0  0  0  0  0  0  0  0  0  0  0  0
    4.4078  -12.1171    6.9120 H   0  0  0  0  0  0  0  0  0  0  0  0
    6.4542   -9.8863    6.8077 H   0  0  0  0  0  0  0  0  0  0  0  0
    5.7177  -10.5499    8.2386 H   0  0  0  0  0  0  0  0  0  0  0  0
    6.4855  -12.5776    7.6226 H   0  0  0  0  0  0  0  0  0  0  0  0
    2.6557  -11.0544    6.5837 H   0  0  0  0  0  0  0  0  0  0  0  0
    4.1238   -9.0584    8.2403 H   0  0  0  0  0  0  0  0  0  0  0  0
    2.4044   -8.9880    8.0195 H   0  0  0  0  0  0  0  0  0  0  0  0
    2.3864  -11.2851    8.5755 H   0  0  0  0  0  0  0  0  0  0  0  0
    2.1278   -8.9847    6.0055 H   0  0  0  0  0  0  0  0  0  0  0  0
  1  2  1  0
  1 37  1  0
  1 38  1  0
  1 39  1  0
  2  3  1  0
  3  8  2  0
  3  4  1  0
  4  5  2  0
  4 40  1  0
  5  6  1  0
  5 41  1  0
  6  7  2  0
  6 42  1  0
  7 15  1  0
  7  8  1  0
  8  9  1  0
  9 16  1  0
  9 10  1  0
  9 43  1  6
 10 11  2  0
 10 12  1  0
 12 13  1  0
 12 44  1  0
 12 45  1  0
 13 27  1  0
 13 14  1  0
 13 46  1  1
 14 15  1  0
 14 16  1  0
 14 47  1  1
 16 36  1  0
 16 17  1  1
 17 18  1  0
 18 19  2  3
 18 23  1  0
 19 20  1  0
 19 48  1  0
 20 21  1  0
 20 22  2  0
 21 49  1  0
 21 50  1  0
 21 51  1  0
 23 36  1  0
 23 24  1  1
 23 25  1  0
 24 52  1  0
 25 26  1  0
 25 27  1  0
 25 53  1  6
 26 54  1  0
 27 28  1  6
 27 29  1  0
 28 55  1  0
 28 56  1  0
 28 57  1  0
 29 30  1  0
 29 58  1  0
 29 59  1  0
 30 31  1  0
 30 33  1  0
 30 60  1  1
 31 32  1  0
 31 61  1  0
 31 62  1  0
 32 63  1  0
 33 34  1  0
 33 36  1  0
 33 64  1  1
 34 35  1  0
 34 65  1  0
 34 66  1  0
 35 67  1  0
 36 68  1  1
M  END
>  <i_m_ct_stereo_status>  (145) 
1

>  <s_m_source_file>  (145) 
/var/tmp/pbs.5076255.sched01/tmpe2rv0q7i/42k21vmx8r.sdf

>  <i_m_source_file_index>  (145) 
26

>  <i_lp_mmshare_version>  (145) 
48012

>  <i_f3d_flags>  (145) 
0

>  <s_epik_input>  (145) 
W0NIM11PYzFbY0hdW2NIXVtjSF1jKGMxW0NAQEhdMkMzNDUpT1tDQEBIXTNbQ0BIXShbQ0gyXUMyPU8pW0NAXTYoW0NIM10pW0NASF0oW09IXSlbQ0BdKFtPSF0pKEMoXE80KT1bQ0hdXEMoPU8pW0NIM10pW0NASF01W0NASF0oW0NIMl1bT0hdKVtDQEBIXShbQ0gyXTYpW0NIMl1bT0hd

>  <s_epik_cmdline>  (145) 
J2VwaWtfcHl0aG9uJywgJy1waHQnLCAnMi4wJywgJy1waCcsICc3LjAnLCAnLXRuJywgJzgnLCAnLW1hJywgJzIwMCcsICctaW1hZScsICc8aW5maWxlLm1hZT4nLCAnLW9tYWUnLCAnPG91dGZpbGUubWFlPic=

>  <r_lp_tautomer_probability>  (145) 
1

>  <r_epik_Ionization_Penalty>  (145) 
1.19533e-05

>  <r_epik_Ionization_Penalty_Charging>  (145) 
0

>  <r_epik_Ionization_Penalty_Neutral>  (145) 
1.19533e-05

>  <r_epik_State_Penalty>  (145) 
-0

>  <r_epik_Charging_Adjusted_Penalty>  (145) 
0

>  <i_epik_Tot_Q>  (145) 
0

>  <i_epik_Tot_abs_Q>  (145) 
0

>  <s_lp_Force_Field>  (145) 
OPLS3e

>  <r_lp_Energy>  (145) 
213.516

>  <b_lp_Chiralities_Consistent>  (145) 
1

>  <s_lp_Variant>  (145) 
45:0-1

>  <s_i_glide_gridfile>  (145) 
pfpi4k_grid

>  <i_i_glide_lignum>  (145) 
26

>  <i_i_glide_rotatable_bonds>  (145) 
8

>  <r_i_docking_score>  (145) 
-2.73379

>  <r_i_glide_ligand_efficiency>  (145) 
-0.0759385

>  <r_i_glide_ligand_efficiency_sa>  (145) 
-0.250743

>  <r_i_glide_ligand_efficiency_ln>  (145) 
-0.596438

>  <r_i_glide_gscore>  (145) 
-2.73379

>  <r_i_glide_lipo>  (145) 
-0.176505

>  <r_i_glide_hbond>  (145) 
-0.151088

>  <r_i_glide_metal>  (145) 
-0

>  <r_i_glide_rewards>  (145) 
-0.0305996

>  <r_i_glide_evdw>  (145) 
-19.6956

>  <r_i_glide_ecoul>  (145) 
-10.9022

>  <r_i_glide_erotb>  (145) 
0.244518

>  <r_i_glide_esite>  (145) 
0

>  <r_i_glide_emodel>  (145) 
-34.7925

>  <r_i_glide_energy>  (145) 
-30.5978

>  <r_i_glide_einternal>  (145) 
2.54174

>  <r_i_glide_intrahb_reward>  (145) 
-0

>  <i_i_glide_confnum>  (145) 
3

>  <i_i_glide_posenum>  (145) 
14

>  <r_i_glide_eff_state_penalty>  (145) 
0

>  <ligand_id>  (145) 
45

>  <original_smiles>  (145) 
COc1cccc2c1C1C(=O)CC3C(O2)C12OC(=CC(C)=O)C1(O)C(O)C3(C)CC(CO)C(CO)C12

>  <smiles>  (145) 
[H]OC([H])([H])C1([H])C([H])([H])C2(C([H])([H])[H])C([H])(O[H])C3(O[H])C(=C([H])C(=O)C([H])([H])[H])OC4(C5([H])C(=O)C([H])([H])C2([H])C4([H])Oc2c([H])c([H])c([H])c(OC([H])([H])[H])c25)C3([H])C1([H])C([H])([H])O[H]

$$$$
45:0:1
     RDKit          3D

 68 73  0  0  1  0  0  0  0  0999 V2000
   -0.2822   -5.2694    6.7203 C   0  0  0  0  0  0  0  0  0  0  0  0
    0.8303   -6.0726    6.3521 O   0  0  0  0  0  0  0  0  0  0  0  0
    1.1383   -7.1714    7.1264 C   0  0  0  0  0  0  0  0  0  0  0  0
    0.3953   -7.5448    8.2778 C   0  0  0  0  0  0  0  0  0  0  0  0
    0.7640   -8.6710    9.0325 C   0  0  0  0  0  0  0  0  0  0  0  0
    1.8776   -9.4438    8.6568 C   0  0  0  0  0  0  0  0  0  0  0  0
    2.6232   -9.0945    7.5249 C   0  0  0  0  0  0  0  0  0  0  0  0
    2.2531   -7.9627    6.7607 C   0  0  0  0  0  0  0  0  0  0  0  0
    3.1222   -7.6508    5.5536 C   0  0  1  0  0  0  0  0  0  0  0  0
    4.3021   -6.8670    6.1306 C   0  0  0  0  0  0  0  0  0  0  0  0
    4.2988   -5.6364    6.2085 O   0  0  0  0  0  0  0  0  0  0  0  0
    5.4512   -7.6957    6.6347 C   0  0  0  0  0  0  0  0  0  0  0  0
    5.5849   -8.9139    5.7061 C   0  0  1  0  0  0  0  0  0  0  0  0
    4.2464   -9.7999    5.8586 C   0  0  1  0  0  0  0  0  0  0  0  0
    3.7087   -9.8767    7.1906 O   0  0  0  0  0  0  0  0  0  0  0  0
    3.3858   -9.0934    4.8423 C   0  0  1  0  0  0  0  0  0  0  0  0
    2.0993   -8.9654    4.2485 O   0  0  0  0  0  0  0  0  0  0  0  0
    2.3675   -8.2731    3.0507 C   0  0  0  0  0  0  0  0  0  0  0  0
    1.3978   -7.5430    2.4870 C   0  0  0  0  0  0  0  0  0  0  0  0
    1.4776   -6.7248    1.2641 C   0  0  0  0  0  0  0  0  0  0  0  0
    2.8150   -6.2450    0.6791 C   0  0  0  0  0  0  0  0  0  0  0  0
    0.4320   -6.4057    0.7000 O   0  0  0  0  0  0  0  0  0  0  0  0
    3.8069   -8.6469    2.5810 C   0  0  1  0  0  0  0  0  0  0  0  0
    3.8624   -9.0905    1.2404 O   0  0  0  0  0  0  0  0  0  0  0  0
    5.0956   -7.8533    3.0808 C   0  0  1  0  0  0  0  0  0  0  0  0
    4.7834   -6.5011    3.2816 O   0  0  0  0  0  0  0  0  0  0  0  0
    6.1009   -8.4606    4.2148 C   0  0  1  0  0  0  0  0  0  0  0  0
    7.2183   -7.3722    4.3817 C   0  0  0  0  0  0  0  0  0  0  0  0
    6.8996   -9.6275    3.5754 C   0  0  0  0  0  0  0  0  0  0  0  0
    6.2811  -11.0293    3.5832 C   0  0  1  0  0  0  0  0  0  0  0  0
    6.7328  -11.9258    4.7724 C   0  0  0  0  0  0  0  0  0  0  0  0
    8.1324  -12.1207    4.7302 O   0  0  0  0  0  0  0  0  0  0  0  0
    4.7816  -11.0580    3.1911 C   0  0  1  0  0  0  0  0  0  0  0  0
    4.1136  -12.4544    3.4111 C   0  0  0  0  0  0  0  0  0  0  0  0
    4.7627  -13.4348    2.6164 O   0  0  0  0  0  0  0  0  0  0  0  0
    3.8185   -9.8076    3.4653 C   0  0  1  0  0  0  0  0  0  0  0  0
   -0.3861   -4.4455    6.0144 H   0  0  0  0  0  0  0  0  0  0  0  0
   -0.1597   -4.8355    7.7146 H   0  0  0  0  0  0  0  0  0  0  0  0
   -1.2085   -5.8421    6.6927 H   0  0  0  0  0  0  0  0  0  0  0  0
   -0.4593   -6.9743    8.5924 H   0  0  0  0  0  0  0  0  0  0  0  0
    0.1911   -8.9646    9.8962 H   0  0  0  0  0  0  0  0  0  0  0  0
    2.1515  -10.3215    9.2180 H   0  0  0  0  0  0  0  0  0  0  0  0
    2.5891   -6.9244    4.9438 H   0  0  0  0  0  0  0  0  0  0  0  0
    6.3588   -7.1004    6.7066 H   0  0  0  0  0  0  0  0  0  0  0  0
    5.2190   -8.0053    7.6502 H   0  0  0  0  0  0  0  0  0  0  0  0
    6.4011   -9.4648    6.1691 H   0  0  0  0  0  0  0  0  0  0  0  0
    4.4034  -10.8381    5.6032 H   0  0  0  0  0  0  0  0  0  0  0  0
    0.4517   -7.5086    3.0038 H   0  0  0  0  0  0  0  0  0  0  0  0
    3.4160   -7.0812    0.3344 H   0  0  0  0  0  0  0  0  0  0  0  0
    3.3835   -5.7049    1.4440 H   0  0  0  0  0  0  0  0  0  0  0  0
    2.6908   -5.5492   -0.1660 H   0  0  0  0  0  0  0  0  0  0  0  0
    3.8682  -10.0397    1.2387 H   0  0  0  0  0  0  0  0  0  0  0  0
    5.7127   -7.7701    2.1876 H   0  0  0  0  0  0  0  0  0  0  0  0
    4.4136   -6.1649    2.4832 H   0  0  0  0  0  0  0  0  0  0  0  0
    7.7354   -7.1821    3.4388 H   0  0  0  0  0  0  0  0  0  0  0  0
    7.9769   -7.6749    5.1087 H   0  0  0  0  0  0  0  0  0  0  0  0
    6.8379   -6.3998    4.7091 H   0  0  0  0  0  0  0  0  0  0  0  0
    7.1398   -9.3671    2.5447 H   0  0  0  0  0  0  0  0  0  0  0  0
    7.8748   -9.6992    4.0573 H   0  0  0  0  0  0  0  0  0  0  0  0
    6.7667  -11.5217    2.7387 H   0  0  0  0  0  0  0  0  0  0  0  0
    6.4674  -11.5315    5.7484 H   0  0  0  0  0  0  0  0  0  0  0  0
    6.2976  -12.9221    4.7219 H   0  0  0  0  0  0  0  0  0  0  0  0
    8.3295  -12.6294    3.9589 H   0  0  0  0  0  0  0  0  0  0  0  0
    4.8714  -11.0680    2.1093 H   0  0  0  0  0  0  0  0  0  0  0  0
    4.1116  -12.7557    4.4580 H   0  0  0  0  0  0  0  0  0  0  0  0
    3.0676  -12.4686    3.1060 H   0  0  0  0  0  0  0  0  0  0  0  0
    4.6037  -13.1838    1.7084 H   0  0  0  0  0  0  0  0  0  0  0  0
    2.9697  -10.4165    3.1267 H   0  0  0  0  0  0  0  0  0  0  0  0
  1  2  1  0
  1 37  1  0
  1 38  1  0
  1 39  1  0
  2  3  1  0
  3  8  2  0
  3  4  1  0
  4  5  2  0
  4 40  1  0
  5  6  1  0
  5 41  1  0
  6  7  2  0
  6 42  1  0
  7 15  1  0
  7  8  1  0
  8  9  1  0
  9 16  1  0
  9 10  1  0
  9 43  1  6
 10 11  2  0
 10 12  1  0
 12 13  1  0
 12 44  1  0
 12 45  1  0
 13 27  1  0
 13 14  1  0
 13 46  1  1
 14 15  1  0
 14 16  1  0
 14 47  1  6
 16 36  1  0
 16 17  1  1
 17 18  1  0
 18 19  2  3
 18 23  1  0
 19 20  1  0
 19 48  1  0
 20 21  1  0
 20 22  2  0
 21 49  1  0
 21 50  1  0
 21 51  1  0
 23 36  1  0
 23 24  1  6
 23 25  1  0
 24 52  1  0
 25 26  1  0
 25 27  1  0
 25 53  1  6
 26 54  1  0
 27 28  1  1
 27 29  1  0
 28 55  1  0
 28 56  1  0
 28 57  1  0
 29 30  1  0
 29 58  1  0
 29 59  1  0
 30 31  1  0
 30 33  1  0
 30 60  1  6
 31 32  1  0
 31 61  1  0
 31 62  1  0
 32 63  1  0
 33 34  1  0
 33 36  1  0
 33 64  1  6
 34 35  1  0
 34 65  1  0
 34 66  1  0
 35 67  1  0
 36 68  1  6
M  END
>  <i_m_ct_stereo_status>  (146) 
1

>  <s_m_source_file>  (146) 
/var/tmp/pbs.5076255.sched01/tmpe2rv0q7i/42k21vmx8r.sdf

>  <i_m_source_file_index>  (146) 
26

>  <i_lp_mmshare_version>  (146) 
48012

>  <i_f3d_flags>  (146) 
0

>  <s_epik_input>  (146) 
W0NIM11PYzFbY0hdW2NIXVtjSF1jKGMxW0NAQEhdMkMzNDUpT1tDQEBIXTNbQ0BIXShbQ0gyXUMyPU8pW0NAXTYoW0NIM10pW0NASF0oW09IXSlbQ0BdKFtPSF0pKEMoXE80KT1bQ0hdXEMoPU8pW0NIM10pW0NASF01W0NASF0oW0NIMl1bT0hdKVtDQEBIXShbQ0gyXTYpW0NIMl1bT0hd

>  <s_epik_cmdline>  (146) 
J2VwaWtfcHl0aG9uJywgJy1waHQnLCAnMi4wJywgJy1waCcsICc3LjAnLCAnLXRuJywgJzgnLCAnLW1hJywgJzIwMCcsICctaW1hZScsICc8aW5maWxlLm1hZT4nLCAnLW9tYWUnLCAnPG91dGZpbGUubWFlPic=

>  <r_lp_tautomer_probability>  (146) 
1

>  <r_epik_Ionization_Penalty>  (146) 
1.19533e-05

>  <r_epik_Ionization_Penalty_Charging>  (146) 
0

>  <r_epik_Ionization_Penalty_Neutral>  (146) 
1.19533e-05

>  <r_epik_State_Penalty>  (146) 
-0

>  <r_epik_Charging_Adjusted_Penalty>  (146) 
0

>  <i_epik_Tot_Q>  (146) 
0

>  <i_epik_Tot_abs_Q>  (146) 
0

>  <s_lp_Force_Field>  (146) 
OPLS3e

>  <r_lp_Energy>  (146) 
213.516

>  <b_lp_Chiralities_Consistent>  (146) 
1

>  <s_lp_Variant>  (146) 
45:0-1

>  <s_i_glide_gridfile>  (146) 
pfpi4k_grid

>  <i_i_glide_lignum>  (146) 
26

>  <i_i_glide_rotatable_bonds>  (146) 
8

>  <r_i_docking_score>  (146) 
-2.36892

>  <r_i_glide_ligand_efficiency>  (146) 
-0.0658034

>  <r_i_glide_ligand_efficiency_sa>  (146) 
-0.217278

>  <r_i_glide_ligand_efficiency_ln>  (146) 
-0.516835

>  <r_i_glide_gscore>  (146) 
-2.36892

>  <r_i_glide_lipo>  (146) 
-0.0615182

>  <r_i_glide_hbond>  (146) 
-0.32

>  <r_i_glide_metal>  (146) 
-0

>  <r_i_glide_rewards>  (146) 
0

>  <r_i_glide_evdw>  (146) 
-20.9681

>  <r_i_glide_ecoul>  (146) 
-7.53537

>  <r_i_glide_erotb>  (146) 
0.244518

>  <r_i_glide_esite>  (146) 
-0.0532129

>  <r_i_glide_emodel>  (146) 
-32.9744

>  <r_i_glide_energy>  (146) 
-28.5034

>  <r_i_glide_einternal>  (146) 
1.70557

>  <r_i_glide_intrahb_reward>  (146) 
-0

>  <i_i_glide_confnum>  (146) 
3

>  <i_i_glide_posenum>  (146) 
2

>  <r_i_glide_eff_state_penalty>  (146) 
0

>  <ligand_id>  (146) 
45

>  <original_smiles>  (146) 
COc1cccc2c1C1C(=O)CC3C(O2)C12OC(=CC(C)=O)C1(O)C(O)C3(C)CC(CO)C(CO)C12

>  <smiles>  (146) 
[H]OC([H])([H])C1([H])C([H])([H])C2(C([H])([H])[H])C([H])(O[H])C3(O[H])C(=C([H])C(=O)C([H])([H])[H])OC4(C5([H])C(=O)C([H])([H])C2([H])C4([H])Oc2c([H])c([H])c([H])c(OC([H])([H])[H])c25)C3([H])C1([H])C([H])([H])O[H]

$$$$
45:0:2
     RDKit          3D

 68 73  0  0  1  0  0  0  0  0999 V2000
    2.6815   -4.9394   -0.1580 C   0  0  0  0  0  0  0  0  0  0  0  0
    3.1517   -6.0072    0.6570 O   0  0  0  0  0  0  0  0  0  0  0  0
    4.3305   -5.8283    1.3462 C   0  0  0  0  0  0  0  0  0  0  0  0
    5.2358   -4.7713    1.0900 C   0  0  0  0  0  0  0  0  0  0  0  0
    6.4224   -4.6559    1.8277 C   0  0  0  0  0  0  0  0  0  0  0  0
    6.7275   -5.5846    2.8275 C   0  0  0  0  0  0  0  0  0  0  0  0
    5.8443   -6.6345    3.0997 C   0  0  0  0  0  0  0  0  0  0  0  0
    4.6520   -6.7581    2.3566 C   0  0  0  0  0  0  0  0  0  0  0  0
    3.7604   -7.9380    2.7172 C   0  0  1  0  0  0  0  0  0  0  0  0
    4.3644   -9.1028    1.9311 C   0  0  0  0  0  0  0  0  0  0  0  0
    3.9897   -9.3660    0.7945 O   0  0  0  0  0  0  0  0  0  0  0  0
    5.4739   -9.8607    2.6176 C   0  0  0  0  0  0  0  0  0  0  0  0
    5.1443   -9.8909    4.1139 C   0  0  1  0  0  0  0  0  0  0  0  0
    5.1670   -8.3794    4.6458 C   0  0  1  0  0  0  0  0  0  0  0  0
    6.1840   -7.5217    4.1026 O   0  0  0  0  0  0  0  0  0  0  0  0
    3.7528   -7.9768    4.3432 C   0  0  1  0  0  0  0  0  0  0  0  0
    2.7771   -6.9346    4.2907 O   0  0  0  0  0  0  0  0  0  0  0  0
    1.5679   -7.6638    4.1929 C   0  0  0  0  0  0  0  0  0  0  0  0
    0.4759   -7.0749    3.6256 C   0  0  0  0  0  0  0  0  0  0  0  0
   -0.8566   -7.6226    3.4116 C   0  0  0  0  0  0  0  0  0  0  0  0
   -1.1946   -9.0326    3.8565 C   0  0  0  0  0  0  0  0  0  0  0  0
   -1.7163   -6.9138    2.8839 O   0  0  0  0  0  0  0  0  0  0  0  0
    1.7548   -9.0133    4.9226 C   0  0  1  0  0  0  0  0  0  0  0  0
    0.7492   -9.2634    5.8644 O   0  0  0  0  0  0  0  0  0  0  0  0
    2.3064  -10.3200    4.1993 C   0  0  1  0  0  0  0  0  0  0  0  0
    1.8751  -10.3143    2.8541 O   0  0  0  0  0  0  0  0  0  0  0  0
    3.8417  -10.8395    4.4138 C   0  0  1  0  0  0  0  0  0  0  0  0
    3.9573  -12.1271    3.5415 C   0  0  0  0  0  0  0  0  0  0  0  0
    3.9502  -11.4194    5.8536 C   0  0  0  0  0  0  0  0  0  0  0  0
    4.2684  -10.4789    7.0269 C   0  0  1  0  0  0  0  0  0  0  0  0
    5.7748  -10.3900    7.3997 C   0  0  0  0  0  0  0  0  0  0  0  0
    6.2692  -11.6541    7.7909 O   0  0  0  0  0  0  0  0  0  0  0  0
    3.4857   -9.1428    6.9931 C   0  0  1  0  0  0  0  0  0  0  0  0
    3.9100   -8.1031    8.0851 C   0  0  0  0  0  0  0  0  0  0  0  0
    5.0393   -7.3147    7.7501 O   0  0  0  0  0  0  0  0  0  0  0  0
    2.9450   -8.5161    5.6195 C   0  0  1  0  0  0  0  0  0  0  0  0
    1.7627   -5.2459   -0.6480 H   0  0  0  0  0  0  0  0  0  0  0  0
    3.3892   -4.6593   -0.9407 H   0  0  0  0  0  0  0  0  0  0  0  0
    2.4677   -4.0647    0.4544 H   0  0  0  0  0  0  0  0  0  0  0  0
    5.0475   -4.0319    0.3233 H   0  0  0  0  0  0  0  0  0  0  0  0
    7.0998   -3.8334    1.6455 H   0  0  0  0  0  0  0  0  0  0  0  0
    7.6305   -5.4792    3.4190 H   0  0  0  0  0  0  0  0  0  0  0  0
    2.7906   -7.7730    2.2411 H   0  0  0  0  0  0  0  0  0  0  0  0
    5.6132  -10.8532    2.1860 H   0  0  0  0  0  0  0  0  0  0  0  0
    6.4043   -9.3201    2.4518 H   0  0  0  0  0  0  0  0  0  0  0  0
    6.0043  -10.3911    4.5476 H   0  0  0  0  0  0  0  0  0  0  0  0
    5.3951   -8.3828    5.6990 H   0  0  0  0  0  0  0  0  0  0  0  0
    0.6364   -6.0794    3.2551 H   0  0  0  0  0  0  0  0  0  0  0  0
   -1.1374   -9.0504    4.9187 H   0  0  0  0  0  0  0  0  0  0  0  0
   -0.4615   -9.7345    3.4604 H   0  0  0  0  0  0  0  0  0  0  0  0
   -2.1711   -9.3973    3.4714 H   0  0  0  0  0  0  0  0  0  0  0  0
    0.1228   -9.9234    5.4510 H   0  0  0  0  0  0  0  0  0  0  0  0
    1.7091  -11.1413    4.5775 H   0  0  0  0  0  0  0  0  0  0  0  0
    2.0412  -11.1733    2.4762 H   0  0  0  0  0  0  0  0  0  0  0  0
    3.2291  -12.8690    3.8671 H   0  0  0  0  0  0  0  0  0  0  0  0
    4.9460  -12.5846    3.6248 H   0  0  0  0  0  0  0  0  0  0  0  0
    3.7698  -11.9474    2.4829 H   0  0  0  0  0  0  0  0  0  0  0  0
    3.0216  -11.9485    6.0809 H   0  0  0  0  0  0  0  0  0  0  0  0
    4.6958  -12.2141    5.8640 H   0  0  0  0  0  0  0  0  0  0  0  0
    3.8485  -10.9996    7.8931 H   0  0  0  0  0  0  0  0  0  0  0  0
    6.3966   -9.9933    6.6054 H   0  0  0  0  0  0  0  0  0  0  0  0
    5.9346   -9.7492    8.2607 H   0  0  0  0  0  0  0  0  0  0  0  0
    6.0672  -12.2823    7.1064 H   0  0  0  0  0  0  0  0  0  0  0  0
    2.5762   -9.4730    7.4814 H   0  0  0  0  0  0  0  0  0  0  0  0
    3.0977   -7.4109    8.3000 H   0  0  0  0  0  0  0  0  0  0  0  0
    4.1055   -8.6286    9.0231 H   0  0  0  0  0  0  0  0  0  0  0  0
    4.9181   -6.9685    6.8745 H   0  0  0  0  0  0  0  0  0  0  0  0
    2.5815   -7.6591    6.1884 H   0  0  0  0  0  0  0  0  0  0  0  0
  1  2  1  0
  1 37  1  0
  1 38  1  0
  1 39  1  0
  2  3  1  0
  3  8  2  0
  3  4  1  0
  4  5  2  0
  4 40  1  0
  5  6  1  0
  5 41  1  0
  6  7  2  0
  6 42  1  0
  7 15  1  0
  7  8  1  0
  8  9  1  0
  9 16  1  0
  9 10  1  0
  9 43  1  6
 10 11  2  0
 10 12  1  0
 12 13  1  0
 12 44  1  0
 12 45  1  0
 13 27  1  0
 13 14  1  0
 13 46  1  1
 14 15  1  0
 14 16  1  0
 14 47  1  1
 16 36  1  0
 16 17  1  1
 17 18  1  0
 18 19  2  3
 18 23  1  0
 19 20  1  0
 19 48  1  0
 20 21  1  0
 20 22  2  0
 21 49  1  0
 21 50  1  0
 21 51  1  0
 23 36  1  0
 23 24  1  1
 23 25  1  0
 24 52  1  0
 25 26  1  0
 25 27  1  0
 25 53  1  1
 26 54  1  0
 27 28  1  6
 27 29  1  0
 28 55  1  0
 28 56  1  0
 28 57  1  0
 29 30  1  0
 29 58  1  0
 29 59  1  0
 30 31  1  0
 30 33  1  0
 30 60  1  1
 31 32  1  0
 31 61  1  0
 31 62  1  0
 32 63  1  0
 33 34  1  0
 33 36  1  0
 33 64  1  1
 34 35  1  0
 34 65  1  0
 34 66  1  0
 35 67  1  0
 36 68  1  1
M  END
>  <i_m_ct_stereo_status>  (147) 
1

>  <s_m_source_file>  (147) 
/var/tmp/pbs.5076255.sched01/tmpe2rv0q7i/42k21vmx8r.sdf

>  <i_m_source_file_index>  (147) 
26

>  <i_lp_mmshare_version>  (147) 
48012

>  <i_f3d_flags>  (147) 
0

>  <s_epik_input>  (147) 
W0NIM11PYzFbY0hdW2NIXVtjSF1jKGMxW0NAQEhdMkMzNDUpT1tDQEBIXTNbQ0BIXShbQ0gyXUMyPU8pW0NAXTYoW0NIM10pW0NASF0oW09IXSlbQ0BdKFtPSF0pKEMoXE80KT1bQ0hdXEMoPU8pW0NIM10pW0NASF01W0NASF0oW0NIMl1bT0hdKVtDQEBIXShbQ0gyXTYpW0NIMl1bT0hd

>  <s_epik_cmdline>  (147) 
J2VwaWtfcHl0aG9uJywgJy1waHQnLCAnMi4wJywgJy1waCcsICc3LjAnLCAnLXRuJywgJzgnLCAnLW1hJywgJzIwMCcsICctaW1hZScsICc8aW5maWxlLm1hZT4nLCAnLW9tYWUnLCAnPG91dGZpbGUubWFlPic=

>  <r_lp_tautomer_probability>  (147) 
1

>  <r_epik_Ionization_Penalty>  (147) 
1.19533e-05

>  <r_epik_Ionization_Penalty_Charging>  (147) 
0

>  <r_epik_Ionization_Penalty_Neutral>  (147) 
1.19533e-05

>  <r_epik_State_Penalty>  (147) 
-0

>  <r_epik_Charging_Adjusted_Penalty>  (147) 
0

>  <i_epik_Tot_Q>  (147) 
0

>  <i_epik_Tot_abs_Q>  (147) 
0

>  <s_lp_Force_Field>  (147) 
OPLS3e

>  <r_lp_Energy>  (147) 
213.516

>  <b_lp_Chiralities_Consistent>  (147) 
1

>  <s_lp_Variant>  (147) 
45:0-1

>  <s_i_glide_gridfile>  (147) 
pfpi4k_grid

>  <i_i_glide_lignum>  (147) 
26

>  <i_i_glide_rotatable_bonds>  (147) 
8

>  <r_i_docking_score>  (147) 
-2.17641

>  <r_i_glide_ligand_efficiency>  (147) 
-0.0604558

>  <r_i_glide_ligand_efficiency_sa>  (147) 
-0.199621

>  <r_i_glide_ligand_efficiency_ln>  (147) 
-0.474833

>  <r_i_glide_gscore>  (147) 
-2.17641

>  <r_i_glide_lipo>  (147) 
-0.186851

>  <r_i_glide_hbond>  (147) 
-0.145608

>  <r_i_glide_metal>  (147) 
-0

>  <r_i_glide_rewards>  (147) 
0

>  <r_i_glide_evdw>  (147) 
-20.5748

>  <r_i_glide_ecoul>  (147) 
-6.37908

>  <r_i_glide_erotb>  (147) 
0.244518

>  <r_i_glide_esite>  (147) 
-0.102865

>  <r_i_glide_emodel>  (147) 
-30.7409

>  <r_i_glide_energy>  (147) 
-26.9539

>  <r_i_glide_einternal>  (147) 
1.35321

>  <r_i_glide_intrahb_reward>  (147) 
-0

>  <i_i_glide_confnum>  (147) 
1

>  <i_i_glide_posenum>  (147) 
20

>  <r_i_glide_eff_state_penalty>  (147) 
0

>  <ligand_id>  (147) 
45

>  <original_smiles>  (147) 
COc1cccc2c1C1C(=O)CC3C(O2)C12OC(=CC(C)=O)C1(O)C(O)C3(C)CC(CO)C(CO)C12

>  <smiles>  (147) 
[H]OC([H])([H])C1([H])C([H])([H])C2(C([H])([H])[H])C([H])(O[H])C3(O[H])C(=C([H])C(=O)C([H])([H])[H])OC4(C5([H])C(=O)C([H])([H])C2([H])C4([H])Oc2c([H])c([H])c([H])c(OC([H])([H])[H])c25)C3([H])C1([H])C([H])([H])O[H]

$$$$
46:0:0
     RDKit          3D

 32 33  0  0  1  0  0  0  0  0999 V2000
    2.5949    3.6350    3.0122 C   0  0  0  0  0  0  0  0  0  0  0  0
    1.6241    2.6293    3.6489 C   0  0  0  0  0  0  0  0  0  0  0  0
    0.3359    2.8866    4.0016 C   0  0  0  0  0  0  0  0  0  0  0  0
   -0.2856    4.2423    3.9562 C   0  0  0  0  0  0  0  0  0  0  0  0
    0.3408    5.2871    4.1257 O   0  0  0  0  0  0  0  0  0  0  0  0
   -1.6419    4.2918    3.8016 O   0  0  0  0  0  0  0  0  0  0  0  0
   -2.5363    3.1746    3.8314 C   0  0  1  0  0  0  0  0  0  0  0  0
   -3.5129    3.3620    2.6636 C   0  0  0  0  0  0  0  0  0  0  0  0
   -1.8672    1.7910    3.7789 C   0  0  0  0  0  0  0  0  0  0  0  0
   -0.5516    1.7812    4.5576 C   0  0  1  0  0  0  0  0  0  0  0  0
    0.1366    0.4727    4.5323 N   0  0  0  0  0  0  0  0  0  0  0  0
   -0.6694   -0.7223    4.8353 C   0  0  0  0  0  0  0  0  0  0  0  0
    1.4909    0.3959    4.5990 C   0  0  0  0  0  0  0  0  0  0  0  0
    2.0608   -0.5617    5.1391 O   0  0  0  0  0  0  0  0  0  0  0  0
    2.1601    1.3306    3.8679 N   0  0  0  0  0  0  0  0  0  0  0  0
    3.5445    1.0236    3.4614 C   0  0  0  0  0  0  0  0  0  0  0  0
    2.1442    4.5764    2.7126 H   0  0  0  0  0  0  0  0  0  0  0  0
    3.0088    3.2438    2.0829 H   0  0  0  0  0  0  0  0  0  0  0  0
    3.4169    3.8571    3.6950 H   0  0  0  0  0  0  0  0  0  0  0  0
   -3.0978    3.2354    4.7669 H   0  0  0  0  0  0  0  0  0  0  0  0
   -4.2230    2.5454    2.5911 H   0  0  0  0  0  0  0  0  0  0  0  0
   -2.9987    3.4038    1.7087 H   0  0  0  0  0  0  0  0  0  0  0  0
   -4.0953    4.2745    2.7648 H   0  0  0  0  0  0  0  0  0  0  0  0
   -2.5669    1.0811    4.2171 H   0  0  0  0  0  0  0  0  0  0  0  0
   -1.6924    1.4827    2.7463 H   0  0  0  0  0  0  0  0  0  0  0  0
   -0.7433    2.0121    5.6083 H   0  0  0  0  0  0  0  0  0  0  0  0
   -0.0940   -1.6414    4.7361 H   0  0  0  0  0  0  0  0  0  0  0  0
   -1.5001   -0.8366    4.1459 H   0  0  0  0  0  0  0  0  0  0  0  0
   -1.0399   -0.6729    5.8549 H   0  0  0  0  0  0  0  0  0  0  0  0
    3.8196   -0.0246    3.5821 H   0  0  0  0  0  0  0  0  0  0  0  0
    4.2406    1.6067    4.0586 H   0  0  0  0  0  0  0  0  0  0  0  0
    3.7066    1.2224    2.4054 H   0  0  0  0  0  0  0  0  0  0  0  0
  1  2  1  0
  1 17  1  0
  1 18  1  0
  1 19  1  0
  2 15  1  0
  2  3  2  0
  3 10  1  0
  3  4  1  0
  4  5  2  0
  4  6  1  0
  6  7  1  0
  7  8  1  0
  7  9  1  0
  7 20  1  1
  8 21  1  0
  8 22  1  0
  8 23  1  0
  9 10  1  0
  9 24  1  0
  9 25  1  0
 10 11  1  0
 10 26  1  1
 11 12  1  0
 11 13  1  0
 12 27  1  0
 12 28  1  0
 12 29  1  0
 13 14  2  0
 13 15  1  0
 15 16  1  0
 16 30  1  0
 16 31  1  0
 16 32  1  0
M  END
>  <i_m_ct_stereo_status>  (148) 
1

>  <s_m_source_file>  (148) 
/var/tmp/pbs.5076255.sched01/tmpe2rv0q7i/42k21vmx8r.sdf

>  <i_m_source_file_index>  (148) 
27

>  <i_lp_mmshare_version>  (148) 
48012

>  <i_f3d_flags>  (148) 
0

>  <s_epik_input>  (148) 
W0NIM11DPTFOKFtDSDNdKUMoPU8pTihbQ0gzXSlbQ0BASF0oQzEyKVtDSDJdW0NASF0oW0NIM10pT0MyPU8=

>  <s_epik_cmdline>  (148) 
J2VwaWtfcHl0aG9uJywgJy1waHQnLCAnMi4wJywgJy1waCcsICc3LjAnLCAnLXRuJywgJzgnLCAnLW1hJywgJzIwMCcsICctaW1hZScsICc8aW5maWxlLm1hZT4nLCAnLW9tYWUnLCAnPG91dGZpbGUubWFlPic=

>  <r_lp_tautomer_probability>  (148) 
1

>  <r_epik_Ionization_Penalty>  (148) 
1.72906e-05

>  <r_epik_Ionization_Penalty_Charging>  (148) 
0

>  <r_epik_Ionization_Penalty_Neutral>  (148) 
1.72906e-05

>  <r_epik_State_Penalty>  (148) 
-0

>  <r_epik_Charging_Adjusted_Penalty>  (148) 
0

>  <i_epik_Tot_Q>  (148) 
0

>  <i_epik_Tot_abs_Q>  (148) 
0

>  <s_epik_Chemistry_Notes>  (148) 
This compound has an ester and may undergo hydrolysis at high or low pH.

>  <s_lp_Force_Field>  (148) 
OPLS3e

>  <r_lp_Energy>  (148) 
33.2039

>  <b_lp_Chiralities_Consistent>  (148) 
1

>  <s_lp_Variant>  (148) 
46:0-1

>  <s_i_glide_gridfile>  (148) 
pfpi4k_grid

>  <i_i_glide_lignum>  (148) 
27

>  <i_i_glide_rotatable_bonds>  (148) 
0

>  <r_i_docking_score>  (148) 
-3.16245

>  <r_i_glide_ligand_efficiency>  (148) 
-0.197653

>  <r_i_glide_ligand_efficiency_sa>  (148) 
-0.498054

>  <r_i_glide_ligand_efficiency_ln>  (148) 
-0.83827

>  <r_i_glide_gscore>  (148) 
-3.16245

>  <r_i_glide_lipo>  (148) 
-0.0322053

>  <r_i_glide_hbond>  (148) 
-0.0964686

>  <r_i_glide_metal>  (148) 
-0

>  <r_i_glide_rewards>  (148) 
-1.88007

>  <r_i_glide_evdw>  (148) 
-15.4107

>  <r_i_glide_ecoul>  (148) 
-1.85906

>  <r_i_glide_erotb>  (148) 
0

>  <r_i_glide_esite>  (148) 
-0.104307

>  <r_i_glide_emodel>  (148) 
-20.3166

>  <r_i_glide_energy>  (148) 
-17.2698

>  <r_i_glide_einternal>  (148) 
0

>  <r_i_glide_intrahb_reward>  (148) 
-0

>  <i_i_glide_confnum>  (148) 
1

>  <i_i_glide_posenum>  (148) 
18

>  <r_i_glide_eff_state_penalty>  (148) 
0

>  <ligand_id>  (148) 
46

>  <original_smiles>  (148) 
CC1=C2C(=O)OC(C)CC2N(C)C(=O)N1C

>  <smiles>  (148) 
[H]C([H])([H])C1=C2C(=O)OC([H])(C([H])([H])[H])C([H])([H])C2([H])N(C([H])([H])[H])C(=O)N1C([H])([H])[H]

$$$$
46:0:1
     RDKit          3D

 32 33  0  0  1  0  0  0  0  0999 V2000
    2.5682    3.9305    4.3906 C   0  0  0  0  0  0  0  0  0  0  0  0
    1.5833    2.7729    4.6457 C   0  0  0  0  0  0  0  0  0  0  0  0
    0.2333    2.8900    4.7563 C   0  0  0  0  0  0  0  0  0  0  0  0
   -0.4906    4.1936    4.7902 C   0  0  0  0  0  0  0  0  0  0  0  0
   -0.0024    5.2257    5.2388 O   0  0  0  0  0  0  0  0  0  0  0  0
   -1.7839    4.1747    4.3519 O   0  0  0  0  0  0  0  0  0  0  0  0
   -2.5727    3.0257    4.0460 C   0  0  1  0  0  0  0  0  0  0  0  0
   -3.3237    3.3747    2.7597 C   0  0  0  0  0  0  0  0  0  0  0  0
   -1.7751    1.7230    3.9014 C   0  0  0  0  0  0  0  0  0  0  0  0
   -0.6391    1.6505    4.9258 C   0  0  1  0  0  0  0  0  0  0  0  0
    0.1628    0.4076    4.8377 N   0  0  0  0  0  0  0  0  0  0  0  0
   -0.5735   -0.8619    4.7752 C   0  0  0  0  0  0  0  0  0  0  0  0
    1.4682    0.4150    5.1912 C   0  0  0  0  0  0  0  0  0  0  0  0
    2.0094   -0.5976    5.6615 O   0  0  0  0  0  0  0  0  0  0  0  0
    2.1860    1.4830    4.7562 N   0  0  0  0  0  0  0  0  0  0  0  0
    3.6516    1.3464    4.6187 C   0  0  0  0  0  0  0  0  0  0  0  0
    2.0951    4.8818    4.1613 H   0  0  0  0  0  0  0  0  0  0  0  0
    3.1915    3.7360    3.5196 H   0  0  0  0  0  0  0  0  0  0  0  0
    3.2074    4.0736    5.2609 H   0  0  0  0  0  0  0  0  0  0  0  0
   -3.3072    2.9106    4.8483 H   0  0  0  0  0  0  0  0  0  0  0  0
   -3.9207    2.5504    2.3748 H   0  0  0  0  0  0  0  0  0  0  0  0
   -2.6045    3.6592    2.0041 H   0  0  0  0  0  0  0  0  0  0  0  0
   -3.9914    4.2181    2.8753 H   0  0  0  0  0  0  0  0  0  0  0  0
   -2.4728    0.9112    4.0711 H   0  0  0  0  0  0  0  0  0  0  0  0
   -1.3727    1.6146    2.8907 H   0  0  0  0  0  0  0  0  0  0  0  0
   -1.0556    1.6849    5.9349 H   0  0  0  0  0  0  0  0  0  0  0  0
    0.0882   -1.7148    4.6517 H   0  0  0  0  0  0  0  0  0  0  0  0
   -1.2388   -0.8999    3.9186 H   0  0  0  0  0  0  0  0  0  0  0  0
   -1.1466   -1.0145    5.6882 H   0  0  0  0  0  0  0  0  0  0  0  0
    3.9920    0.3171    4.6142 H   0  0  0  0  0  0  0  0  0  0  0  0
    4.1598    1.8529    5.4371 H   0  0  0  0  0  0  0  0  0  0  0  0
    4.0075    1.7516    3.6770 H   0  0  0  0  0  0  0  0  0  0  0  0
  1  2  1  0
  1 17  1  0
  1 18  1  0
  1 19  1  0
  2 15  1  0
  2  3  2  0
  3 10  1  0
  3  4  1  0
  4  5  2  0
  4  6  1  0
  6  7  1  0
  7  8  1  0
  7  9  1  0
  7 20  1  1
  8 21  1  0
  8 22  1  0
  8 23  1  0
  9 10  1  0
  9 24  1  0
  9 25  1  0
 10 11  1  0
 10 26  1  1
 11 12  1  0
 11 13  1  0
 12 27  1  0
 12 28  1  0
 12 29  1  0
 13 14  2  0
 13 15  1  0
 15 16  1  0
 16 30  1  0
 16 31  1  0
 16 32  1  0
M  END
>  <i_m_ct_stereo_status>  (149) 
1

>  <s_m_source_file>  (149) 
/var/tmp/pbs.5076255.sched01/tmpe2rv0q7i/42k21vmx8r.sdf

>  <i_m_source_file_index>  (149) 
27

>  <i_lp_mmshare_version>  (149) 
48012

>  <i_f3d_flags>  (149) 
0

>  <s_epik_input>  (149) 
W0NIM11DPTFOKFtDSDNdKUMoPU8pTihbQ0gzXSlbQ0BASF0oQzEyKVtDSDJdW0NASF0oW0NIM10pT0MyPU8=

>  <s_epik_cmdline>  (149) 
J2VwaWtfcHl0aG9uJywgJy1waHQnLCAnMi4wJywgJy1waCcsICc3LjAnLCAnLXRuJywgJzgnLCAnLW1hJywgJzIwMCcsICctaW1hZScsICc8aW5maWxlLm1hZT4nLCAnLW9tYWUnLCAnPG91dGZpbGUubWFlPic=

>  <r_lp_tautomer_probability>  (149) 
1

>  <r_epik_Ionization_Penalty>  (149) 
1.72906e-05

>  <r_epik_Ionization_Penalty_Charging>  (149) 
0

>  <r_epik_Ionization_Penalty_Neutral>  (149) 
1.72906e-05

>  <r_epik_State_Penalty>  (149) 
-0

>  <r_epik_Charging_Adjusted_Penalty>  (149) 
0

>  <i_epik_Tot_Q>  (149) 
0

>  <i_epik_Tot_abs_Q>  (149) 
0

>  <s_epik_Chemistry_Notes>  (149) 
This compound has an ester and may undergo hydrolysis at high or low pH.

>  <s_lp_Force_Field>  (149) 
OPLS3e

>  <r_lp_Energy>  (149) 
33.2039

>  <b_lp_Chiralities_Consistent>  (149) 
1

>  <s_lp_Variant>  (149) 
46:0-1

>  <s_i_glide_gridfile>  (149) 
pfpi4k_grid

>  <i_i_glide_lignum>  (149) 
27

>  <i_i_glide_rotatable_bonds>  (149) 
0

>  <r_i_docking_score>  (149) 
-2.94952

>  <r_i_glide_ligand_efficiency>  (149) 
-0.184345

>  <r_i_glide_ligand_efficiency_sa>  (149) 
-0.464521

>  <r_i_glide_ligand_efficiency_ln>  (149) 
-0.78183

>  <r_i_glide_gscore>  (149) 
-2.94952

>  <r_i_glide_lipo>  (149) 
0

>  <r_i_glide_hbond>  (149) 
-0.0400976

>  <r_i_glide_metal>  (149) 
-0

>  <r_i_glide_rewards>  (149) 
-1.88007

>  <r_i_glide_evdw>  (149) 
-13.2141

>  <r_i_glide_ecoul>  (149) 
-2.12147

>  <r_i_glide_erotb>  (149) 
0

>  <r_i_glide_esite>  (149) 
-0.0504287

>  <r_i_glide_emodel>  (149) 
-18.113

>  <r_i_glide_energy>  (149) 
-15.3356

>  <r_i_glide_einternal>  (149) 
0

>  <r_i_glide_intrahb_reward>  (149) 
-0

>  <i_i_glide_confnum>  (149) 
2

>  <i_i_glide_posenum>  (149) 
35

>  <r_i_glide_eff_state_penalty>  (149) 
0

>  <ligand_id>  (149) 
46

>  <original_smiles>  (149) 
CC1=C2C(=O)OC(C)CC2N(C)C(=O)N1C

>  <smiles>  (149) 
[H]C([H])([H])C1=C2C(=O)OC([H])(C([H])([H])[H])C([H])([H])C2([H])N(C([H])([H])[H])C(=O)N1C([H])([H])[H]

$$$$
46:0:2
     RDKit          3D

 32 33  0  0  1  0  0  0  0  0999 V2000
    4.9931   -0.3765   -1.4900 C   0  0  0  0  0  0  0  0  0  0  0  0
    4.2916   -1.6710   -1.2039 C   0  0  0  0  0  0  0  0  0  0  0  0
    4.4511   -2.4377   -0.0804 C   0  0  0  0  0  0  0  0  0  0  0  0
    5.4763   -2.1673    0.9424 C   0  0  0  0  0  0  0  0  0  0  0  0
    6.5414   -1.6181    0.6711 O   0  0  0  0  0  0  0  0  0  0  0  0
    5.1967   -2.5821    2.2064 O   0  0  0  0  0  0  0  0  0  0  0  0
    4.1559   -3.4972    2.5818 C   0  0  1  0  0  0  0  0  0  0  0  0
    3.5897   -2.9191    3.8907 C   0  0  0  0  0  0  0  0  0  0  0  0
    3.0273   -3.6461    1.5420 C   0  0  0  0  0  0  0  0  0  0  0  0
    3.6143   -3.6800    0.1157 C   0  0  1  0  0  0  0  0  0  0  0  0
    2.6129   -3.8551   -0.9626 N   0  0  0  0  0  0  0  0  0  0  0  0
    1.6670   -4.9610   -0.7257 C   0  0  0  0  0  0  0  0  0  0  0  0
    2.6981   -3.1844   -2.1701 C   0  0  0  0  0  0  0  0  0  0  0  0
    2.1381   -3.5777   -3.1960 O   0  0  0  0  0  0  0  0  0  0  0  0
    3.3664   -2.0406   -2.2048 N   0  0  0  0  0  0  0  0  0  0  0  0
    3.1226   -1.1484   -3.3828 C   0  0  0  0  0  0  0  0  0  0  0  0
    5.4706    0.0105   -0.6005 H   0  0  0  0  0  0  0  0  0  0  0  0
    4.2364    0.3145   -1.8406 H   0  0  0  0  0  0  0  0  0  0  0  0
    5.6884   -0.5116   -2.3083 H   0  0  0  0  0  0  0  0  0  0  0  0
    4.5794   -4.4957    2.7821 H   0  0  0  0  0  0  0  0  0  0  0  0
    2.7341   -3.4866    4.2612 H   0  0  0  0  0  0  0  0  0  0  0  0
    3.2810   -1.8770    3.7722 H   0  0  0  0  0  0  0  0  0  0  0  0
    4.3501   -2.9264    4.6680 H   0  0  0  0  0  0  0  0  0  0  0  0
    2.5047   -4.5783    1.7596 H   0  0  0  0  0  0  0  0  0  0  0  0
    2.3031   -2.8245    1.6175 H   0  0  0  0  0  0  0  0  0  0  0  0
    4.2970   -4.5212    0.0111 H   0  0  0  0  0  0  0  0  0  0  0  0
    0.9171   -4.9987   -1.5176 H   0  0  0  0  0  0  0  0  0  0  0  0
    1.1363   -5.0276    0.2075 H   0  0  0  0  0  0  0  0  0  0  0  0
    2.1850   -5.9012   -0.6087 H   0  0  0  0  0  0  0  0  0  0  0  0
    2.3295   -1.4702   -4.0413 H   0  0  0  0  0  0  0  0  0  0  0  0
    4.0130   -1.1199   -3.9939 H   0  0  0  0  0  0  0  0  0  0  0  0
    2.7621   -0.1626   -3.1089 H   0  0  0  0  0  0  0  0  0  0  0  0
  1  2  1  0
  1 17  1  0
  1 18  1  0
  1 19  1  0
  2 15  1  0
  2  3  2  0
  3 10  1  0
  3  4  1  0
  4  5  2  0
  4  6  1  0
  6  7  1  0
  7  8  1  0
  7  9  1  0
  7 20  1  1
  8 21  1  0
  8 22  1  0
  8 23  1  0
  9 10  1  0
  9 24  1  0
  9 25  1  0
 10 11  1  0
 10 26  1  1
 11 12  1  0
 11 13  1  0
 12 27  1  0
 12 28  1  0
 12 29  1  0
 13 14  2  0
 13 15  1  0
 15 16  1  0
 16 30  1  0
 16 31  1  0
 16 32  1  0
M  END
>  <i_m_ct_stereo_status>  (150) 
1

>  <s_m_source_file>  (150) 
/var/tmp/pbs.5076255.sched01/tmpe2rv0q7i/42k21vmx8r.sdf

>  <i_m_source_file_index>  (150) 
27

>  <i_lp_mmshare_version>  (150) 
48012

>  <i_f3d_flags>  (150) 
0

>  <s_epik_input>  (150) 
W0NIM11DPTFOKFtDSDNdKUMoPU8pTihbQ0gzXSlbQ0BASF0oQzEyKVtDSDJdW0NASF0oW0NIM10pT0MyPU8=

>  <s_epik_cmdline>  (150) 
J2VwaWtfcHl0aG9uJywgJy1waHQnLCAnMi4wJywgJy1waCcsICc3LjAnLCAnLXRuJywgJzgnLCAnLW1hJywgJzIwMCcsICctaW1hZScsICc8aW5maWxlLm1hZT4nLCAnLW9tYWUnLCAnPG91dGZpbGUubWFlPic=

>  <r_lp_tautomer_probability>  (150) 
1

>  <r_epik_Ionization_Penalty>  (150) 
1.72906e-05

>  <r_epik_Ionization_Penalty_Charging>  (150) 
0

>  <r_epik_Ionization_Penalty_Neutral>  (150) 
1.72906e-05

>  <r_epik_State_Penalty>  (150) 
-0

>  <r_epik_Charging_Adjusted_Penalty>  (150) 
0

>  <i_epik_Tot_Q>  (150) 
0

>  <i_epik_Tot_abs_Q>  (150) 
0

>  <s_epik_Chemistry_Notes>  (150) 
This compound has an ester and may undergo hydrolysis at high or low pH.

>  <s_lp_Force_Field>  (150) 
OPLS3e

>  <r_lp_Energy>  (150) 
33.2039

>  <b_lp_Chiralities_Consistent>  (150) 
1

>  <s_lp_Variant>  (150) 
46:0-1

>  <s_i_glide_gridfile>  (150) 
pfpi4k_grid

>  <i_i_glide_lignum>  (150) 
27

>  <i_i_glide_rotatable_bonds>  (150) 
0

>  <r_i_docking_score>  (150) 
-2.36306

>  <r_i_glide_ligand_efficiency>  (150) 
-0.147691

>  <r_i_glide_ligand_efficiency_sa>  (150) 
-0.372159

>  <r_i_glide_ligand_efficiency_ln>  (150) 
-0.626377

>  <r_i_glide_gscore>  (150) 
-2.36306

>  <r_i_glide_lipo>  (150) 
-0.135494

>  <r_i_glide_hbond>  (150) 
0

>  <r_i_glide_metal>  (150) 
-0

>  <r_i_glide_rewards>  (150) 
-2.02282

>  <r_i_glide_evdw>  (150) 
-8.55063

>  <r_i_glide_ecoul>  (150) 
2.00623

>  <r_i_glide_erotb>  (150) 
0

>  <r_i_glide_esite>  (150) 
-0.0781489

>  <r_i_glide_emodel>  (150) 
-8.10457

>  <r_i_glide_energy>  (150) 
-6.54439

>  <r_i_glide_einternal>  (150) 
0

>  <r_i_glide_intrahb_reward>  (150) 
-0

>  <i_i_glide_confnum>  (150) 
2

>  <i_i_glide_posenum>  (150) 
5

>  <r_i_glide_eff_state_penalty>  (150) 
0

>  <ligand_id>  (150) 
46

>  <original_smiles>  (150) 
CC1=C2C(=O)OC(C)CC2N(C)C(=O)N1C

>  <smiles>  (150) 
[H]C([H])([H])C1=C2C(=O)OC([H])(C([H])([H])[H])C([H])([H])C2([H])N(C([H])([H])[H])C(=O)N1C([H])([H])[H]

$$$$
47:0:0
     RDKit          3D

 59 63  0  0  1  0  0  0  0  0999 V2000
    1.8930   -1.0225    2.5901 C   0  0  0  0  0  0  0  0  0  0  0  0
    3.2646   -1.3246    1.9651 C   0  0  2  0  0  0  0  0  0  0  0  0
    3.9814   -0.0242    1.6051 C   0  0  0  0  0  0  0  0  0  0  0  0
    5.3694   -0.3388    1.0390 C   0  0  1  0  0  0  0  0  0  0  0  0
    6.2056   -0.7493    2.0989 O   0  0  0  0  0  0  0  0  0  0  0  0
    5.3446   -1.3719   -0.1155 C   0  0  2  0  0  0  0  0  0  0  0  0
    4.7490   -0.7440   -1.4303 C   0  0  0  0  0  0  0  0  0  0  0  0
    4.4861   -1.6501   -2.6678 C   0  0  0  0  0  0  0  0  0  0  0  0
    4.0854   -3.1259   -2.4161 C   0  0  0  0  0  0  0  0  0  0  0  0
    2.5458   -3.2665   -2.3999 C   0  0  0  0  0  0  0  0  0  0  0  0
    4.6453   -3.9401   -3.6172 C   0  0  0  0  0  0  0  0  0  0  0  0
    4.7902   -3.5001   -1.1078 C   0  0  2  0  0  0  0  0  0  0  0  0
    4.9434   -4.7965   -0.3633 C   0  0  2  0  0  0  0  0  0  0  0  0
    3.8365   -5.7710   -0.0613 C   0  0  0  0  0  0  0  0  0  0  0  0
    4.0464   -6.0917    1.4120 C   0  0  2  0  0  0  0  0  0  0  0  0
    2.8404   -6.2271    2.1480 O   0  0  0  0  0  0  0  0  0  0  0  0
    3.0676   -5.7156    3.4232 C   0  0  1  0  0  0  0  0  0  0  0  0
    3.7144   -6.6422    4.2756 O   0  0  0  0  0  0  0  0  0  0  0  0
    3.9455   -4.4834    3.1932 C   0  0  0  0  0  0  0  0  0  0  0  0
    4.8337   -4.9258    2.0343 C   0  0  2  0  0  0  0  0  0  0  0  0
    5.3440   -3.9859    0.8913 C   0  0  1  0  0  0  0  0  0  0  0  0
    6.8517   -3.8251    1.1325 C   0  0  0  0  0  0  0  0  0  0  0  0
    4.6138   -2.7160    0.2110 C   0  0  1  0  0  0  0  0  0  0  0  0
    3.2037   -2.2455    0.7162 C   0  0  1  0  0  0  0  0  0  0  0  0
    2.2782   -3.2779    0.8954 O   0  0  0  0  0  0  0  0  0  0  0  0
    1.2084   -0.5583    1.8789 H   0  0  0  0  0  0  0  0  0  0  0  0
    2.0062   -0.3455    3.4360 H   0  0  0  0  0  0  0  0  0  0  0  0
    1.4286   -1.9280    2.9759 H   0  0  0  0  0  0  0  0  0  0  0  0
    3.8825   -1.7748    2.7348 H   0  0  0  0  0  0  0  0  0  0  0  0
    3.4011    0.5294    0.8668 H   0  0  0  0  0  0  0  0  0  0  0  0
    4.0671    0.6347    2.4722 H   0  0  0  0  0  0  0  0  0  0  0  0
    5.8154    0.5714    0.6470 H   0  0  0  0  0  0  0  0  0  0  0  0
    6.9732   -0.1881    2.0889 H   0  0  0  0  0  0  0  0  0  0  0  0
    6.3947   -1.5412   -0.3487 H   0  0  0  0  0  0  0  0  0  0  0  0
    3.8102   -0.2654   -1.1899 H   0  0  0  0  0  0  0  0  0  0  0  0
    5.3683    0.0665   -1.7996 H   0  0  0  0  0  0  0  0  0  0  0  0
    3.7852   -1.1535   -3.3374 H   0  0  0  0  0  0  0  0  0  0  0  0
    5.4114   -1.6802   -3.2243 H   0  0  0  0  0  0  0  0  0  0  0  0
    2.2216   -4.2187   -2.0073 H   0  0  0  0  0  0  0  0  0  0  0  0
    2.1313   -3.1512   -3.4020 H   0  0  0  0  0  0  0  0  0  0  0  0
    2.0667   -2.5100   -1.7951 H   0  0  0  0  0  0  0  0  0  0  0  0
    4.5054   -5.0025   -3.5369 H   0  0  0  0  0  0  0  0  0  0  0  0
    5.7304   -3.8145   -3.6949 H   0  0  0  0  0  0  0  0  0  0  0  0
    4.1863   -3.6187   -4.5560 H   0  0  0  0  0  0  0  0  0  0  0  0
    5.8380   -3.3720   -1.3839 H   0  0  0  0  0  0  0  0  0  0  0  0
    5.8137   -5.3361   -0.7288 H   0  0  0  0  0  0  0  0  0  0  0  0
    2.8487   -5.3507   -0.2467 H   0  0  0  0  0  0  0  0  0  0  0  0
    3.9214   -6.6766   -0.6500 H   0  0  0  0  0  0  0  0  0  0  0  0
    4.6430   -7.0050    1.4955 H   0  0  0  0  0  0  0  0  0  0  0  0
    2.1115   -5.4699    3.8891 H   0  0  0  0  0  0  0  0  0  0  0  0
    4.5982   -6.7549    3.9643 H   0  0  0  0  0  0  0  0  0  0  0  0
    3.2539   -3.6959    2.9717 H   0  0  0  0  0  0  0  0  0  0  0  0
    4.4904   -4.1923    4.0896 H   0  0  0  0  0  0  0  0  0  0  0  0
    5.6906   -5.3974    2.5193 H   0  0  0  0  0  0  0  0  0  0  0  0
    6.9896   -3.2528    2.0387 H   0  0  0  0  0  0  0  0  0  0  0  0
    7.3836   -3.3170    0.3299 H   0  0  0  0  0  0  0  0  0  0  0  0
    7.3665   -4.7792    1.2611 H   0  0  0  0  0  0  0  0  0  0  0  0
    2.7166   -1.6424   -0.0358 H   0  0  0  0  0  0  0  0  0  0  0  0
    1.5014   -2.8847    1.2665 H   0  0  0  0  0  0  0  0  0  0  0  0
  1  2  1  0
  1 26  1  0
  1 27  1  0
  1 28  1  0
  2 24  1  0
  2  3  1  0
  2 29  1  1
  3  4  1  0
  3 30  1  0
  3 31  1  0
  4  5  1  0
  4  6  1  0
  4 32  1  6
  5 33  1  0
  6 23  1  0
  6  7  1  0
  6 34  1  6
  7  8  1  0
  7 35  1  0
  7 36  1  0
  8  9  1  0
  8 37  1  0
  8 38  1  0
  9 10  1  0
  9 11  1  0
  9 12  1  0
 10 39  1  0
 10 40  1  0
 10 41  1  0
 11 42  1  0
 11 43  1  0
 11 44  1  0
 12 23  1  0
 12 13  1  0
 12 45  1  6
 13 21  1  0
 13 14  1  0
 13 46  1  6
 14 15  1  0
 14 47  1  0
 14 48  1  0
 15 20  1  0
 15 16  1  0
 15 49  1  6
 16 17  1  0
 17 18  1  0
 17 19  1  0
 17 50  1  1
 18 51  1  0
 19 20  1  0
 19 52  1  0
 19 53  1  0
 20 21  1  0
 20 54  1  1
 21 22  1  1
 23 21  1  1
 22 55  1  0
 22 56  1  0
 22 57  1  0
 23 24  1  0
 24 25  1  0
 24 58  1  6
 25 59  1  0
M  END
>  <i_m_ct_stereo_status>  (151) 
1

>  <s_m_source_file>  (151) 
/var/tmp/pbs.5076255.sched01/tmpe2rv0q7i/42k21vmx8r.sdf

>  <i_m_source_file_index>  (151) 
28

>  <i_lp_mmshare_version>  (151) 
48012

>  <i_f3d_flags>  (151) 
0

>  <s_epik_input>  (151) 
W09IXVtDQEhdMVtDQEhdKFtDSDNdKVtDSDJdW0NAQEhdKFtPSF0pW0NAQEhdKFtDQEBdMTIzKVtDSDJdW0NIMl1DKFtDSDNdKShbQ0gzXSlbQ0BASF0yW0NASF00W0NAXTMoW0NIM10pW0NAQEhdNVtDQEhdKFtDSDJdNClPW0NAQEhdKFtPSF0pW0NIMl01

>  <s_epik_cmdline>  (151) 
J2VwaWtfcHl0aG9uJywgJy1waHQnLCAnMi4wJywgJy1waCcsICc3LjAnLCAnLXRuJywgJzgnLCAnLW1hJywgJzIwMCcsICctaW1hZScsICc8aW5maWxlLm1hZT4nLCAnLW9tYWUnLCAnPG91dGZpbGUubWFlPic=

>  <r_lp_tautomer_probability>  (151) 
1

>  <r_epik_Ionization_Penalty>  (151) 
3.07032e-06

>  <r_epik_Ionization_Penalty_Charging>  (151) 
0

>  <r_epik_Ionization_Penalty_Neutral>  (151) 
3.07032e-06

>  <r_epik_State_Penalty>  (151) 
-0

>  <r_epik_Charging_Adjusted_Penalty>  (151) 
0

>  <i_epik_Tot_Q>  (151) 
0

>  <i_epik_Tot_abs_Q>  (151) 
0

>  <s_epik_Chemistry_Notes>  (151) 
This compound contains an acetal/aminal-like group ( X-CH(R)-Y where X, Y are N, S, or O) that may be acid/base labile, releasing an aldehyde.

>  <s_lp_Force_Field>  (151) 
OPLS3e

>  <r_lp_Energy>  (151) 
94.7296

>  <b_lp_Chiralities_Consistent>  (151) 
1

>  <s_lp_Variant>  (151) 
47:0-1

>  <s_i_glide_gridfile>  (151) 
pfpi4k_grid

>  <i_i_glide_lignum>  (151) 
28

>  <i_i_glide_rotatable_bonds>  (151) 
3

>  <r_i_docking_score>  (151) 
-3.31711

>  <r_i_glide_ligand_efficiency>  (151) 
-0.132685

>  <r_i_glide_ligand_efficiency_sa>  (151) 
-0.387972

>  <r_i_glide_ligand_efficiency_ln>  (151) 
-0.786255

>  <r_i_glide_gscore>  (151) 
-3.31711

>  <r_i_glide_lipo>  (151) 
-0.519263

>  <r_i_glide_hbond>  (151) 
-0.32

>  <r_i_glide_metal>  (151) 
-0

>  <r_i_glide_rewards>  (151) 
-1.01937

>  <r_i_glide_evdw>  (151) 
-13.368

>  <r_i_glide_ecoul>  (151) 
-5.26703

>  <r_i_glide_erotb>  (151) 
0

>  <r_i_glide_esite>  (151) 
-2.29405e-05

>  <r_i_glide_emodel>  (151) 
-19.523

>  <r_i_glide_energy>  (151) 
-18.6351

>  <r_i_glide_einternal>  (151) 
1.96214

>  <r_i_glide_intrahb_reward>  (151) 
-0

>  <i_i_glide_confnum>  (151) 
2

>  <i_i_glide_posenum>  (151) 
9

>  <r_i_glide_eff_state_penalty>  (151) 
0

>  <ligand_id>  (151) 
47

>  <original_smiles>  (151) 
CC1CC(O)C2CCC(C)(C)C3C4CC5OC(O)CC5C4(C)C23C1O

>  <smiles>  (151) 
[H]OC1([H])OC2([H])C([H])([H])C3([H])C4([H])C(C([H])([H])[H])(C([H])([H])[H])C([H])([H])C([H])([H])C5([H])C([H])(O[H])C([H])([H])C([H])(C([H])([H])[H])C([H])(O[H])C54C3(C([H])([H])[H])C2([H])C1([H])[H]

$$$$
47:0:1
     RDKit          3D

 59 63  0  0  1  0  0  0  0  0999 V2000
    1.9119   -0.8024    2.2247 C   0  0  0  0  0  0  0  0  0  0  0  0
    3.3093   -1.1838    1.7015 C   0  0  2  0  0  0  0  0  0  0  0  0
    4.0954    0.0667    1.3324 C   0  0  0  0  0  0  0  0  0  0  0  0
    5.4873   -0.3298    0.8622 C   0  0  1  0  0  0  0  0  0  0  0  0
    6.2185   -0.7326    1.9835 O   0  0  0  0  0  0  0  0  0  0  0  0
    5.4817   -1.4030   -0.2455 C   0  0  2  0  0  0  0  0  0  0  0  0
    4.9662   -0.8081   -1.5991 C   0  0  0  0  0  0  0  0  0  0  0  0
    4.7900   -1.7863   -2.7883 C   0  0  0  0  0  0  0  0  0  0  0  0
    4.2640   -3.2160   -2.5127 C   0  0  0  0  0  0  0  0  0  0  0  0
    2.7249   -3.2814   -2.5930 C   0  0  0  0  0  0  0  0  0  0  0  0
    4.8420   -4.1163   -3.6319 C   0  0  0  0  0  0  0  0  0  0  0  0
    4.8880   -3.5604   -1.1689 C   0  0  2  0  0  0  0  0  0  0  0  0
    4.9614   -4.8269   -0.3745 C   0  0  2  0  0  0  0  0  0  0  0  0
    3.8088   -5.7488   -0.0848 C   0  0  0  0  0  0  0  0  0  0  0  0
    3.9203   -6.0112    1.4068 C   0  0  2  0  0  0  0  0  0  0  0  0
    2.6698   -6.0518    2.0732 O   0  0  0  0  0  0  0  0  0  0  0  0
    2.8394   -5.5017    3.3347 C   0  0  1  0  0  0  0  0  0  0  0  0
    3.4171   -6.4006    4.2389 O   0  0  0  0  0  0  0  0  0  0  0  0
    3.7791   -4.3171    3.0986 C   0  0  0  0  0  0  0  0  0  0  0  0
    4.7155   -4.8509    2.0144 C   0  0  2  0  0  0  0  0  0  0  0  0
    5.3239   -3.9756    0.8573 C   0  0  1  0  0  0  0  0  0  0  0  0
    6.8274   -3.8614    1.1829 C   0  0  0  0  0  0  0  0  0  0  0  0
    4.6970   -2.7022    0.0881 C   0  0  1  0  0  0  0  0  0  0  0  0
    3.2988   -2.1480    0.4840 C   0  0  1  0  0  0  0  0  0  0  0  0
    2.3499   -3.1422    0.6544 O   0  0  0  0  0  0  0  0  0  0  0  0
    1.2958   -0.3366    1.4558 H   0  0  0  0  0  0  0  0  0  0  0  0
    2.0090   -0.0939    3.0461 H   0  0  0  0  0  0  0  0  0  0  0  0
    1.3856   -1.6708    2.6169 H   0  0  0  0  0  0  0  0  0  0  0  0
    3.8515   -1.6329    2.5285 H   0  0  0  0  0  0  0  0  0  0  0  0
    3.5846    0.5929    0.5304 H   0  0  0  0  0  0  0  0  0  0  0  0
    4.1475    0.7489    2.1816 H   0  0  0  0  0  0  0  0  0  0  0  0
    6.0041    0.5469    0.4834 H   0  0  0  0  0  0  0  0  0  0  0  0
    6.9826   -0.1625    2.0416 H   0  0  0  0  0  0  0  0  0  0  0  0
    6.5306   -1.6324   -0.4114 H   0  0  0  0  0  0  0  0  0  0  0  0
    4.0394   -0.2565   -1.4797 H   0  0  0  0  0  0  0  0  0  0  0  0
    5.6742   -0.0683   -1.9458 H   0  0  0  0  0  0  0  0  0  0  0  0
    4.2229   -1.2992   -3.5861 H   0  0  0  0  0  0  0  0  0  0  0  0
    5.8166   -1.9187   -3.1126 H   0  0  0  0  0  0  0  0  0  0  0  0
    2.3328   -4.1999   -2.1803 H   0  0  0  0  0  0  0  0  0  0  0  0
    2.3921   -3.2117   -3.6275 H   0  0  0  0  0  0  0  0  0  0  0  0
    2.2418   -2.4762   -2.0633 H   0  0  0  0  0  0  0  0  0  0  0  0
    4.6161   -5.1641   -3.4793 H   0  0  0  0  0  0  0  0  0  0  0  0
    5.9268   -3.9941   -3.6497 H   0  0  0  0  0  0  0  0  0  0  0  0
    4.4778   -3.8548   -4.6280 H   0  0  0  0  0  0  0  0  0  0  0  0
    5.9549   -3.4910   -1.3928 H   0  0  0  0  0  0  0  0  0  0  0  0
    5.8270   -5.4064   -0.6818 H   0  0  0  0  0  0  0  0  0  0  0  0
    2.8518   -5.2939   -0.3233 H   0  0  0  0  0  0  0  0  0  0  0  0
    3.8835   -6.6683   -0.6614 H   0  0  0  0  0  0  0  0  0  0  0  0
    4.4739   -6.9319    1.5735 H   0  0  0  0  0  0  0  0  0  0  0  0
    1.8811   -5.1886    3.7366 H   0  0  0  0  0  0  0  0  0  0  0  0
    2.7933   -7.1162    4.3958 H   0  0  0  0  0  0  0  0  0  0  0  0
    3.1399   -3.5115    2.7977 H   0  0  0  0  0  0  0  0  0  0  0  0
    4.2856   -4.0027    4.0119 H   0  0  0  0  0  0  0  0  0  0  0  0
    5.5266   -5.3222    2.5784 H   0  0  0  0  0  0  0  0  0  0  0  0
    6.9723   -3.2423    2.0655 H   0  0  0  0  0  0  0  0  0  0  0  0
    7.4202   -3.4324    0.3690 H   0  0  0  0  0  0  0  0  0  0  0  0
    7.2901   -4.8345    1.3921 H   0  0  0  0  0  0  0  0  0  0  0  0
    2.8853   -1.5632   -0.3233 H   0  0  0  0  0  0  0  0  0  0  0  0
    1.5614   -2.6778    0.8886 H   0  0  0  0  0  0  0  0  0  0  0  0
  1  2  1  0
  1 26  1  0
  1 27  1  0
  1 28  1  0
  2 24  1  0
  2  3  1  0
  2 29  1  1
  3  4  1  0
  3 30  1  0
  3 31  1  0
  4  5  1  0
  4  6  1  0
  4 32  1  6
  5 33  1  0
  6 23  1  0
  6  7  1  0
  6 34  1  6
  7  8  1  0
  7 35  1  0
  7 36  1  0
  8  9  1  0
  8 37  1  0
  8 38  1  0
  9 10  1  0
  9 11  1  0
  9 12  1  0
 10 39  1  0
 10 40  1  0
 10 41  1  0
 11 42  1  0
 11 43  1  0
 11 44  1  0
 12 23  1  0
 12 13  1  0
 12 45  1  6
 13 21  1  0
 13 14  1  0
 13 46  1  6
 14 15  1  0
 14 47  1  0
 14 48  1  0
 15 20  1  0
 15 16  1  0
 15 49  1  6
 16 17  1  0
 17 18  1  0
 17 19  1  0
 17 50  1  1
 18 51  1  0
 19 20  1  0
 19 52  1  0
 19 53  1  0
 20 21  1  0
 20 54  1  1
 21 22  1  1
 23 21  1  1
 22 55  1  0
 22 56  1  0
 22 57  1  0
 23 24  1  0
 24 25  1  0
 24 58  1  6
 25 59  1  0
M  END
>  <i_m_ct_stereo_status>  (152) 
1

>  <s_m_source_file>  (152) 
/var/tmp/pbs.5076255.sched01/tmpe2rv0q7i/42k21vmx8r.sdf

>  <i_m_source_file_index>  (152) 
28

>  <i_lp_mmshare_version>  (152) 
48012

>  <i_f3d_flags>  (152) 
0

>  <s_epik_input>  (152) 
W09IXVtDQEhdMVtDQEhdKFtDSDNdKVtDSDJdW0NAQEhdKFtPSF0pW0NAQEhdKFtDQEBdMTIzKVtDSDJdW0NIMl1DKFtDSDNdKShbQ0gzXSlbQ0BASF0yW0NASF00W0NAXTMoW0NIM10pW0NAQEhdNVtDQEhdKFtDSDJdNClPW0NAQEhdKFtPSF0pW0NIMl01

>  <s_epik_cmdline>  (152) 
J2VwaWtfcHl0aG9uJywgJy1waHQnLCAnMi4wJywgJy1waCcsICc3LjAnLCAnLXRuJywgJzgnLCAnLW1hJywgJzIwMCcsICctaW1hZScsICc8aW5maWxlLm1hZT4nLCAnLW9tYWUnLCAnPG91dGZpbGUubWFlPic=

>  <r_lp_tautomer_probability>  (152) 
1

>  <r_epik_Ionization_Penalty>  (152) 
3.07032e-06

>  <r_epik_Ionization_Penalty_Charging>  (152) 
0

>  <r_epik_Ionization_Penalty_Neutral>  (152) 
3.07032e-06

>  <r_epik_State_Penalty>  (152) 
-0

>  <r_epik_Charging_Adjusted_Penalty>  (152) 
0

>  <i_epik_Tot_Q>  (152) 
0

>  <i_epik_Tot_abs_Q>  (152) 
0

>  <s_epik_Chemistry_Notes>  (152) 
This compound contains an acetal/aminal-like group ( X-CH(R)-Y where X, Y are N, S, or O) that may be acid/base labile, releasing an aldehyde.

>  <s_lp_Force_Field>  (152) 
OPLS3e

>  <r_lp_Energy>  (152) 
94.7296

>  <b_lp_Chiralities_Consistent>  (152) 
1

>  <s_lp_Variant>  (152) 
47:0-1

>  <s_i_glide_gridfile>  (152) 
pfpi4k_grid

>  <i_i_glide_lignum>  (152) 
28

>  <i_i_glide_rotatable_bonds>  (152) 
3

>  <r_i_docking_score>  (152) 
-3.13076

>  <r_i_glide_ligand_efficiency>  (152) 
-0.12523

>  <r_i_glide_ligand_efficiency_sa>  (152) 
-0.366175

>  <r_i_glide_ligand_efficiency_ln>  (152) 
-0.742083

>  <r_i_glide_gscore>  (152) 
-3.13076

>  <r_i_glide_lipo>  (152) 
-0.432482

>  <r_i_glide_hbond>  (152) 
-0.32

>  <r_i_glide_metal>  (152) 
-0

>  <r_i_glide_rewards>  (152) 
-1.01937

>  <r_i_glide_evdw>  (152) 
-13.0252

>  <r_i_glide_ecoul>  (152) 
-4.71597

>  <r_i_glide_erotb>  (152) 
0

>  <r_i_glide_esite>  (152) 
-0.000246036

>  <r_i_glide_emodel>  (152) 
-18.2795

>  <r_i_glide_energy>  (152) 
-17.7412

>  <r_i_glide_einternal>  (152) 
2.17726

>  <r_i_glide_intrahb_reward>  (152) 
-0

>  <i_i_glide_confnum>  (152) 
2

>  <i_i_glide_posenum>  (152) 
5

>  <r_i_glide_eff_state_penalty>  (152) 
0

>  <ligand_id>  (152) 
47

>  <original_smiles>  (152) 
CC1CC(O)C2CCC(C)(C)C3C4CC5OC(O)CC5C4(C)C23C1O

>  <smiles>  (152) 
[H]OC1([H])OC2([H])C([H])([H])C3([H])C4([H])C(C([H])([H])[H])(C([H])([H])[H])C([H])([H])C([H])([H])C5([H])C([H])(O[H])C([H])([H])C([H])(C([H])([H])[H])C([H])(O[H])C54C3(C([H])([H])[H])C2([H])C1([H])[H]

$$$$
47:0:2
     RDKit          3D

 59 63  0  0  1  0  0  0  0  0999 V2000
    1.8660   -1.0607    2.5665 C   0  0  0  0  0  0  0  0  0  0  0  0
    3.2519   -1.3542    1.9600 C   0  0  2  0  0  0  0  0  0  0  0  0
    3.9606   -0.0494    1.6121 C   0  0  0  0  0  0  0  0  0  0  0  0
    5.3374   -0.3536    1.0245 C   0  0  1  0  0  0  0  0  0  0  0  0
    6.1723   -0.7618    2.0811 O   0  0  0  0  0  0  0  0  0  0  0  0
    5.3300   -1.3899   -0.1266 C   0  0  2  0  0  0  0  0  0  0  0  0
    4.7558   -0.7626   -1.4410 C   0  0  0  0  0  0  0  0  0  0  0  0
    4.4916   -1.6596   -2.6823 C   0  0  0  0  0  0  0  0  0  0  0  0
    4.0970   -3.1264   -2.4406 C   0  0  0  0  0  0  0  0  0  0  0  0
    2.5609   -3.2704   -2.4343 C   0  0  0  0  0  0  0  0  0  0  0  0
    4.6665   -3.9457   -3.6205 C   0  0  0  0  0  0  0  0  0  0  0  0
    4.7650   -3.5185   -1.1273 C   0  0  2  0  0  0  0  0  0  0  0  0
    4.9330   -4.8127   -0.3810 C   0  0  2  0  0  0  0  0  0  0  0  0
    3.8535   -5.8136   -0.0557 C   0  0  0  0  0  0  0  0  0  0  0  0
    4.0550   -6.1094    1.4068 C   0  0  2  0  0  0  0  0  0  0  0  0
    2.8281   -6.2379    2.1208 O   0  0  0  0  0  0  0  0  0  0  0  0
    3.0635   -5.7506    3.4022 C   0  0  1  0  0  0  0  0  0  0  0  0
    3.7024   -6.6924    4.2353 O   0  0  0  0  0  0  0  0  0  0  0  0
    3.9486   -4.5092    3.1886 C   0  0  0  0  0  0  0  0  0  0  0  0
    4.8384   -4.9431    2.0196 C   0  0  2  0  0  0  0  0  0  0  0  0
    5.3425   -3.9969    0.8639 C   0  0  1  0  0  0  0  0  0  0  0  0
    6.8459   -3.8344    1.1272 C   0  0  0  0  0  0  0  0  0  0  0  0
    4.6115   -2.7285    0.1857 C   0  0  1  0  0  0  0  0  0  0  0  0
    3.2122   -2.2537    0.6965 C   0  0  1  0  0  0  0  0  0  0  0  0
    2.3282   -3.3136    0.8346 O   0  0  0  0  0  0  0  0  0  0  0  0
    1.1994   -0.5971    1.8378 H   0  0  0  0  0  0  0  0  0  0  0  0
    1.9725   -0.3858    3.4219 H   0  0  0  0  0  0  0  0  0  0  0  0
    1.4053   -1.9816    2.9245 H   0  0  0  0  0  0  0  0  0  0  0  0
    3.8608   -1.8090    2.7342 H   0  0  0  0  0  0  0  0  0  0  0  0
    3.3675    0.5151    0.8902 H   0  0  0  0  0  0  0  0  0  0  0  0
    4.0521    0.5922    2.4951 H   0  0  0  0  0  0  0  0  0  0  0  0
    5.7800    0.5561    0.6385 H   0  0  0  0  0  0  0  0  0  0  0  0
    6.9447   -0.2114    2.0767 H   0  0  0  0  0  0  0  0  0  0  0  0
    6.3731   -1.5581   -0.3483 H   0  0  0  0  0  0  0  0  0  0  0  0
    3.8160   -0.2611   -1.2119 H   0  0  0  0  0  0  0  0  0  0  0  0
    5.3775    0.0374   -1.8122 H   0  0  0  0  0  0  0  0  0  0  0  0
    3.7492   -1.1632   -3.3270 H   0  0  0  0  0  0  0  0  0  0  0  0
    5.4010   -1.6664   -3.2498 H   0  0  0  0  0  0  0  0  0  0  0  0
    2.2081   -4.2345   -2.0448 H   0  0  0  0  0  0  0  0  0  0  0  0
    2.1367   -3.1642   -3.4273 H   0  0  0  0  0  0  0  0  0  0  0  0
    2.0793   -2.5173   -1.8440 H   0  0  0  0  0  0  0  0  0  0  0  0
    4.5967   -5.0236   -3.5267 H   0  0  0  0  0  0  0  0  0  0  0  0
    5.7407   -3.7710   -3.7340 H   0  0  0  0  0  0  0  0  0  0  0  0
    4.2177   -3.6345   -4.5685 H   0  0  0  0  0  0  0  0  0  0  0  0
    5.8261   -3.3815   -1.4042 H   0  0  0  0  0  0  0  0  0  0  0  0
    5.8146   -5.3422   -0.7285 H   0  0  0  0  0  0  0  0  0  0  0  0
    2.8536   -5.4529   -0.2797 H   0  0  0  0  0  0  0  0  0  0  0  0
    3.9798   -6.7390   -0.6059 H   0  0  0  0  0  0  0  0  0  0  0  0
    4.6497   -7.0143    1.5180 H   0  0  0  0  0  0  0  0  0  0  0  0
    2.1072   -5.4982    3.8671 H   0  0  0  0  0  0  0  0  0  0  0  0
    4.5901   -6.8173    3.9103 H   0  0  0  0  0  0  0  0  0  0  0  0
    3.2479   -3.7359    2.9487 H   0  0  0  0  0  0  0  0  0  0  0  0
    4.4829   -4.2137    4.0905 H   0  0  0  0  0  0  0  0  0  0  0  0
    5.6917   -5.3989    2.5086 H   0  0  0  0  0  0  0  0  0  0  0  0
    7.0001   -3.2706    2.0456 H   0  0  0  0  0  0  0  0  0  0  0  0
    7.3669   -3.3244    0.3251 H   0  0  0  0  0  0  0  0  0  0  0  0
    7.3464   -4.7917    1.2403 H   0  0  0  0  0  0  0  0  0  0  0  0
    2.7098   -1.6452   -0.0456 H   0  0  0  0  0  0  0  0  0  0  0  0
    2.3145   -3.7329   -0.0168 H   0  0  0  0  0  0  0  0  0  0  0  0
  1  2  1  0
  1 26  1  0
  1 27  1  0
  1 28  1  0
  2 24  1  0
  2  3  1  0
  2 29  1  1
  3  4  1  0
  3 30  1  0
  3 31  1  0
  4  5  1  0
  4  6  1  0
  4 32  1  6
  5 33  1  0
  6 23  1  0
  6  7  1  0
  6 34  1  6
  7  8  1  0
  7 35  1  0
  7 36  1  0
  8  9  1  0
  8 37  1  0
  8 38  1  0
  9 10  1  0
  9 11  1  0
  9 12  1  0
 10 39  1  0
 10 40  1  0
 10 41  1  0
 11 42  1  0
 11 43  1  0
 11 44  1  0
 12 23  1  0
 12 13  1  0
 12 45  1  6
 13 21  1  0
 13 14  1  0
 13 46  1  6
 14 15  1  0
 14 47  1  0
 14 48  1  0
 15 20  1  0
 15 16  1  0
 15 49  1  6
 16 17  1  0
 17 18  1  0
 17 19  1  0
 17 50  1  1
 18 51  1  0
 19 20  1  0
 19 52  1  0
 19 53  1  0
 20 21  1  0
 20 54  1  1
 21 22  1  1
 23 21  1  1
 22 55  1  0
 22 56  1  0
 22 57  1  0
 23 24  1  0
 24 25  1  0
 24 58  1  6
 25 59  1  0
M  END
>  <i_m_ct_stereo_status>  (153) 
1

>  <s_m_source_file>  (153) 
/var/tmp/pbs.5076255.sched01/tmpe2rv0q7i/42k21vmx8r.sdf

>  <i_m_source_file_index>  (153) 
28

>  <i_lp_mmshare_version>  (153) 
48012

>  <i_f3d_flags>  (153) 
0

>  <s_epik_input>  (153) 
W09IXVtDQEhdMVtDQEhdKFtDSDNdKVtDSDJdW0NAQEhdKFtPSF0pW0NAQEhdKFtDQEBdMTIzKVtDSDJdW0NIMl1DKFtDSDNdKShbQ0gzXSlbQ0BASF0yW0NASF00W0NAXTMoW0NIM10pW0NAQEhdNVtDQEhdKFtDSDJdNClPW0NAQEhdKFtPSF0pW0NIMl01

>  <s_epik_cmdline>  (153) 
J2VwaWtfcHl0aG9uJywgJy1waHQnLCAnMi4wJywgJy1waCcsICc3LjAnLCAnLXRuJywgJzgnLCAnLW1hJywgJzIwMCcsICctaW1hZScsICc8aW5maWxlLm1hZT4nLCAnLW9tYWUnLCAnPG91dGZpbGUubWFlPic=

>  <r_lp_tautomer_probability>  (153) 
1

>  <r_epik_Ionization_Penalty>  (153) 
3.07032e-06

>  <r_epik_Ionization_Penalty_Charging>  (153) 
0

>  <r_epik_Ionization_Penalty_Neutral>  (153) 
3.07032e-06

>  <r_epik_State_Penalty>  (153) 
-0

>  <r_epik_Charging_Adjusted_Penalty>  (153) 
0

>  <i_epik_Tot_Q>  (153) 
0

>  <i_epik_Tot_abs_Q>  (153) 
0

>  <s_epik_Chemistry_Notes>  (153) 
This compound contains an acetal/aminal-like group ( X-CH(R)-Y where X, Y are N, S, or O) that may be acid/base labile, releasing an aldehyde.

>  <s_lp_Force_Field>  (153) 
OPLS3e

>  <r_lp_Energy>  (153) 
94.7296

>  <b_lp_Chiralities_Consistent>  (153) 
1

>  <s_lp_Variant>  (153) 
47:0-1

>  <s_i_glide_gridfile>  (153) 
pfpi4k_grid

>  <i_i_glide_lignum>  (153) 
28

>  <i_i_glide_rotatable_bonds>  (153) 
3

>  <r_i_docking_score>  (153) 
-3.01576

>  <r_i_glide_ligand_efficiency>  (153) 
-0.12063

>  <r_i_glide_ligand_efficiency_sa>  (153) 
-0.352725

>  <r_i_glide_ligand_efficiency_ln>  (153) 
-0.714826

>  <r_i_glide_gscore>  (153) 
-3.01576

>  <r_i_glide_lipo>  (153) 
-0.520375

>  <r_i_glide_hbond>  (153) 
-0.32

>  <r_i_glide_metal>  (153) 
-0

>  <r_i_glide_rewards>  (153) 
-1.01937

>  <r_i_glide_evdw>  (153) 
-14.9671

>  <r_i_glide_ecoul>  (153) 
-2.71755

>  <r_i_glide_erotb>  (153) 
0

>  <r_i_glide_esite>  (153) 
-2.79735e-05

>  <r_i_glide_emodel>  (153) 
-18.4226

>  <r_i_glide_energy>  (153) 
-17.6846

>  <r_i_glide_einternal>  (153) 
1.76375

>  <r_i_glide_intrahb_reward>  (153) 
-0

>  <i_i_glide_confnum>  (153) 
1

>  <i_i_glide_posenum>  (153) 
8

>  <r_i_glide_eff_state_penalty>  (153) 
0

>  <ligand_id>  (153) 
47

>  <original_smiles>  (153) 
CC1CC(O)C2CCC(C)(C)C3C4CC5OC(O)CC5C4(C)C23C1O

>  <smiles>  (153) 
[H]OC1([H])OC2([H])C([H])([H])C3([H])C4([H])C(C([H])([H])[H])(C([H])([H])[H])C([H])([H])C([H])([H])C5([H])C([H])(O[H])C([H])([H])C([H])(C([H])([H])[H])C([H])(O[H])C54C3(C([H])([H])[H])C2([H])C1([H])[H]

$$$$
48:0:0
     RDKit          3D

 63 67  0  0  1  0  0  0  0  0999 V2000
    6.8175   -2.5758    1.0616 C   0  0  0  0  0  0  0  0  0  0  0  0
    5.6574   -3.6049    1.1226 C   0  0  2  0  0  0  0  0  0  0  0  0
    5.2766   -4.0824   -0.3049 C   0  0  0  0  0  0  0  0  0  0  0  0
    4.5459   -3.0275   -1.1653 C   0  0  1  0  0  0  0  0  0  0  0  0
    4.2225   -3.5601   -2.4363 O   0  0  0  0  0  0  0  0  0  0  0  0
    3.2860   -2.4703   -0.4817 C   0  0  1  0  0  0  0  0  0  0  0  0
    2.3466   -3.5252   -0.4658 O   0  0  0  0  0  0  0  0  0  0  0  0
    3.5808   -1.8854    0.9388 C   0  0  1  0  0  0  0  0  0  0  0  0
    4.4308   -0.5666    0.7944 C   0  0  0  0  0  0  0  0  0  0  0  0
    2.2483   -1.4853    1.6771 C   0  0  0  0  0  0  0  0  0  0  0  0
    1.7644   -0.2195    1.2855 O   0  0  0  0  0  0  0  0  0  0  0  0
    4.3895   -2.9515    1.8054 C   0  0  1  0  0  0  0  0  0  0  0  0
    3.5048   -4.0548    2.4405 C   0  0  0  0  0  0  0  0  0  0  0  0
    4.2658   -4.8504    3.5071 C   0  0  0  0  0  0  0  0  0  0  0  0
    5.5738   -5.3900    2.9861 C   0  0  0  0  0  0  0  0  0  0  0  0
    6.1805   -4.8453    1.8989 C   0  0  0  0  0  0  0  0  0  0  0  0
    7.4756   -5.4826    1.4137 C   0  0  0  0  0  0  0  0  0  0  0  0
    7.2884   -6.9953    1.3438 C   0  0  0  0  0  0  0  0  0  0  0  0
    6.8080   -7.6202    2.6808 C   0  0  2  0  0  0  0  0  0  0  0  0
    5.7789   -8.8070    2.5389 C   0  0  0  0  0  0  0  0  0  0  0  0
    4.7074   -8.6078    1.4421 C   0  0  0  0  0  0  0  0  0  0  0  0
    6.4928  -10.1485    2.3126 C   0  0  0  0  0  0  0  0  0  0  0  0
    5.0749   -8.7897    3.8727 C   0  0  1  0  0  0  0  0  0  0  0  0
    5.8710   -8.6896    5.0571 O   0  0  0  0  0  0  0  0  0  0  0  0
    5.2846   -7.4793    4.5246 C   0  0  1  0  0  0  0  0  0  0  0  0
    6.2229   -6.5935    3.7159 C   0  0  2  0  0  0  0  0  0  0  0  0
    7.2931   -6.0701    4.6988 C   0  0  0  0  0  0  0  0  0  0  0  0
    6.6850   -1.8025    0.3172 H   0  0  0  0  0  0  0  0  0  0  0  0
    7.7839   -3.0036    0.8095 H   0  0  0  0  0  0  0  0  0  0  0  0
    6.9263   -2.0723    2.0164 H   0  0  0  0  0  0  0  0  0  0  0  0
    6.1740   -4.3805   -0.8487 H   0  0  0  0  0  0  0  0  0  0  0  0
    4.6607   -4.9835   -0.2288 H   0  0  0  0  0  0  0  0  0  0  0  0
    5.2316   -2.2128   -1.3784 H   0  0  0  0  0  0  0  0  0  0  0  0
    3.7597   -4.3908   -2.3144 H   0  0  0  0  0  0  0  0  0  0  0  0
    2.8911   -1.6737   -1.1062 H   0  0  0  0  0  0  0  0  0  0  0  0
    2.0567   -3.6488   -1.3699 H   0  0  0  0  0  0  0  0  0  0  0  0
    5.0012   -0.3527    1.7009 H   0  0  0  0  0  0  0  0  0  0  0  0
    3.8874    0.3493    0.5527 H   0  0  0  0  0  0  0  0  0  0  0  0
    5.1145   -0.6010   -0.0433 H   0  0  0  0  0  0  0  0  0  0  0  0
    1.4375   -2.2000    1.4951 H   0  0  0  0  0  0  0  0  0  0  0  0
    2.3898   -1.4495    2.7615 H   0  0  0  0  0  0  0  0  0  0  0  0
    1.4223   -0.3410    0.3880 H   0  0  0  0  0  0  0  0  0  0  0  0
    4.7492   -2.3993    2.6715 H   0  0  0  0  0  0  0  0  0  0  0  0
    2.6012   -3.6642    2.9084 H   0  0  0  0  0  0  0  0  0  0  0  0
    3.1732   -4.7545    1.6712 H   0  0  0  0  0  0  0  0  0  0  0  0
    4.4811   -4.2250    4.3728 H   0  0  0  0  0  0  0  0  0  0  0  0
    3.6048   -5.6550    3.8262 H   0  0  0  0  0  0  0  0  0  0  0  0
    7.7729   -5.1437    0.4208 H   0  0  0  0  0  0  0  0  0  0  0  0
    8.3066   -5.2201    2.0723 H   0  0  0  0  0  0  0  0  0  0  0  0
    6.5531   -7.1341    0.5581 H   0  0  0  0  0  0  0  0  0  0  0  0
    8.2036   -7.4880    1.0147 H   0  0  0  0  0  0  0  0  0  0  0  0
    7.7030   -8.0413    3.1536 H   0  0  0  0  0  0  0  0  0  0  0  0
    3.9143   -9.3433    1.5342 H   0  0  0  0  0  0  0  0  0  0  0  0
    5.1131   -8.7333    0.4427 H   0  0  0  0  0  0  0  0  0  0  0  0
    4.2482   -7.6257    1.5025 H   0  0  0  0  0  0  0  0  0  0  0  0
    5.7851  -10.9768    2.2800 H   0  0  0  0  0  0  0  0  0  0  0  0
    7.2128  -10.3553    3.1062 H   0  0  0  0  0  0  0  0  0  0  0  0
    7.0122  -10.1370    1.3575 H   0  0  0  0  0  0  0  0  0  0  0  0
    4.1470   -9.3443    3.9860 H   0  0  0  0  0  0  0  0  0  0  0  0
    4.5635   -7.0330    5.2068 H   0  0  0  0  0  0  0  0  0  0  0  0
    7.8048   -6.8886    5.2099 H   0  0  0  0  0  0  0  0  0  0  0  0
    6.8358   -5.4436    5.4659 H   0  0  0  0  0  0  0  0  0  0  0  0
    8.0561   -5.4733    4.2072 H   0  0  0  0  0  0  0  0  0  0  0  0
  2  1  1  6
  1 28  1  0
  1 29  1  0
  1 30  1  0
  2 12  1  0
  2 16  1  0
  2  3  1  0
  3  4  1  0
  3 31  1  0
  3 32  1  0
  4  5  1  0
  4  6  1  0
  4 33  1  6
  5 34  1  0
  6  7  1  0
  6  8  1  0
  6 35  1  6
  7 36  1  0
  8  9  1  6
  8 10  1  0
  8 12  1  0
  9 37  1  0
  9 38  1  0
  9 39  1  0
 10 11  1  0
 10 40  1  0
 10 41  1  0
 11 42  1  0
 12 13  1  0
 12 43  1  1
 13 14  1  0
 13 44  1  0
 13 45  1  0
 14 15  1  0
 14 46  1  0
 14 47  1  0
 15 26  1  0
 15 16  2  0
 16 17  1  0
 17 18  1  0
 17 48  1  0
 17 49  1  0
 18 19  1  0
 18 50  1  0
 18 51  1  0
 19 26  1  0
 19 20  1  0
 19 52  1  1
 20 21  1  0
 20 22  1  0
 20 23  1  0
 21 53  1  0
 21 54  1  0
 21 55  1  0
 22 56  1  0
 22 57  1  0
 22 58  1  0
 23 25  1  0
 23 24  1  0
 23 59  1  1
 24 25  1  0
 25 26  1  0
 25 60  1  1
 26 27  1  1
 27 61  1  0
 27 62  1  0
 27 63  1  0
M  END
>  <i_m_ct_stereo_status>  (154) 
1

>  <s_m_source_file>  (154) 
/var/tmp/pbs.5076255.sched01/tmpe2rv0q7i/42k21vmx8r.sdf

>  <i_m_source_file_index>  (154) 
29

>  <i_lp_mmshare_version>  (154) 
48012

>  <i_f3d_flags>  (154) 
0

>  <s_epik_input>  (154) 
W0NIMl0xW0NAQEhdKFtPSF0pW0NAQEhdKFtPSF0pW0NAQF0oW0NIM10pKFtDSDJdW09IXSlbQ0BIXShbQ0BdMTJbQ0gzXSlbQ0gyXVtDSDJdQzM9QzJbQ0gyXVtDSDJdW0NASF00W0NAXTMoW0NIM10pW0NASF01W0NAQEhdKE81KUM0KFtDSDNdKVtDSDNd

>  <s_epik_cmdline>  (154) 
J2VwaWtfcHl0aG9uJywgJy1waHQnLCAnMi4wJywgJy1waCcsICc3LjAnLCAnLXRuJywgJzgnLCAnLW1hJywgJzIwMCcsICctaW1hZScsICc8aW5maWxlLm1hZT4nLCAnLW9tYWUnLCAnPG91dGZpbGUubWFlPic=

>  <r_lp_tautomer_probability>  (154) 
1

>  <r_epik_Ionization_Penalty>  (154) 
1.17691e-06

>  <r_epik_Ionization_Penalty_Charging>  (154) 
0

>  <r_epik_Ionization_Penalty_Neutral>  (154) 
1.17691e-06

>  <r_epik_State_Penalty>  (154) 
-0

>  <r_epik_Charging_Adjusted_Penalty>  (154) 
0

>  <i_epik_Tot_Q>  (154) 
0

>  <i_epik_Tot_abs_Q>  (154) 
0

>  <s_lp_Force_Field>  (154) 
OPLS3e

>  <r_lp_Energy>  (154) 
65.883

>  <b_lp_Chiralities_Consistent>  (154) 
1

>  <s_lp_Variant>  (154) 
48:0-1

>  <s_i_glide_gridfile>  (154) 
pfpi4k_grid

>  <i_i_glide_lignum>  (154) 
29

>  <i_i_glide_rotatable_bonds>  (154) 
4

>  <r_i_docking_score>  (154) 
-3.54122

>  <r_i_glide_ligand_efficiency>  (154) 
-0.131156

>  <r_i_glide_ligand_efficiency_sa>  (154) 
-0.393468

>  <r_i_glide_ligand_efficiency_ln>  (154) 
-0.824337

>  <r_i_glide_gscore>  (154) 
-3.54122

>  <r_i_glide_lipo>  (154) 
-0.53619

>  <r_i_glide_hbond>  (154) 
-0.139947

>  <r_i_glide_metal>  (154) 
-0

>  <r_i_glide_rewards>  (154) 
-0.841844

>  <r_i_glide_evdw>  (154) 
-13.448

>  <r_i_glide_ecoul>  (154) 
-9.91588

>  <r_i_glide_erotb>  (154) 
0.136545

>  <r_i_glide_esite>  (154) 
0

>  <r_i_glide_emodel>  (154) 
-25.4883

>  <r_i_glide_energy>  (154) 
-23.3638

>  <r_i_glide_einternal>  (154) 
3.6527

>  <r_i_glide_intrahb_reward>  (154) 
-0

>  <i_i_glide_confnum>  (154) 
2

>  <i_i_glide_posenum>  (154) 
30

>  <r_i_glide_eff_state_penalty>  (154) 
0

>  <ligand_id>  (154) 
48

>  <original_smiles>  (154) 
CC12CC(O)C(O)C(C)(CO)C1CCC1=C2CCC2C(C)(C)C3OC3C12C

>  <smiles>  (154) 
[H]OC([H])([H])C1(C([H])([H])[H])C([H])(O[H])C([H])(O[H])C([H])([H])C2(C([H])([H])[H])C3=C(C([H])([H])C([H])([H])C21[H])C1(C([H])([H])[H])C2([H])OC2([H])C(C([H])([H])[H])(C([H])([H])[H])C1([H])C([H])([H])C3([H])[H]

$$$$
48:0:1
     RDKit          3D

 63 67  0  0  1  0  0  0  0  0999 V2000
    6.3713   -4.5860    1.4668 C   0  0  0  0  0  0  0  0  0  0  0  0
    4.8499   -4.4985    1.1634 C   0  0  2  0  0  0  0  0  0  0  0  0
    4.5566   -4.8726   -0.3149 C   0  0  0  0  0  0  0  0  0  0  0  0
    5.0015   -3.8163   -1.3475 C   0  0  1  0  0  0  0  0  0  0  0  0
    4.6839   -4.2206   -2.6641 O   0  0  0  0  0  0  0  0  0  0  0  0
    4.4125   -2.4163   -1.0670 C   0  0  1  0  0  0  0  0  0  0  0  0
    3.0170   -2.4878   -1.3107 O   0  0  0  0  0  0  0  0  0  0  0  0
    4.7178   -1.9253    0.3772 C   0  0  1  0  0  0  0  0  0  0  0  0
    6.2274   -1.5474    0.4635 C   0  0  0  0  0  0  0  0  0  0  0  0
    3.9801   -0.5731    0.6202 C   0  0  0  0  0  0  0  0  0  0  0  0
    4.2389   -0.0413    1.9064 O   0  0  0  0  0  0  0  0  0  0  0  0
    4.3276   -3.0313    1.4486 C   0  0  1  0  0  0  0  0  0  0  0  0
    2.8173   -3.0667    1.7809 C   0  0  0  0  0  0  0  0  0  0  0  0
    2.5250   -3.9005    3.0179 C   0  0  0  0  0  0  0  0  0  0  0  0
    3.1196   -5.2894    2.9077 C   0  0  0  0  0  0  0  0  0  0  0  0
    4.1387   -5.5488    2.0516 C   0  0  0  0  0  0  0  0  0  0  0  0
    4.6421   -6.9917    1.9681 C   0  0  0  0  0  0  0  0  0  0  0  0
    3.4495   -7.9420    1.8586 C   0  0  0  0  0  0  0  0  0  0  0  0
    2.4065   -7.7459    2.9942 C   0  0  2  0  0  0  0  0  0  0  0  0
    0.9036   -7.8993    2.5621 C   0  0  0  0  0  0  0  0  0  0  0  0
    0.5643   -7.2574    1.1989 C   0  0  0  0  0  0  0  0  0  0  0  0
    0.4726   -9.3739    2.5540 C   0  0  0  0  0  0  0  0  0  0  0  0
    0.1642   -7.1185    3.6109 C   0  0  1  0  0  0  0  0  0  0  0  0
    0.5218   -7.3263    4.9794 O   0  0  0  0  0  0  0  0  0  0  0  0
    1.1095   -6.2002    4.2956 C   0  0  1  0  0  0  0  0  0  0  0  0
    2.5347   -6.4041    3.8080 C   0  0  2  0  0  0  0  0  0  0  0  0
    3.4222   -6.5520    5.0603 C   0  0  0  0  0  0  0  0  0  0  0  0
    6.9873   -4.0839    0.7324 H   0  0  0  0  0  0  0  0  0  0  0  0
    6.7631   -5.6011    1.4910 H   0  0  0  0  0  0  0  0  0  0  0  0
    6.5991   -4.1556    2.4391 H   0  0  0  0  0  0  0  0  0  0  0  0
    5.0316   -5.8179   -0.5759 H   0  0  0  0  0  0  0  0  0  0  0  0
    3.4853   -5.0495   -0.4224 H   0  0  0  0  0  0  0  0  0  0  0  0
    6.0887   -3.7608   -1.3397 H   0  0  0  0  0  0  0  0  0  0  0  0
    3.9359   -4.8136   -2.6171 H   0  0  0  0  0  0  0  0  0  0  0  0
    4.8433   -1.7106   -1.7761 H   0  0  0  0  0  0  0  0  0  0  0  0
    2.5941   -1.6458   -1.1587 H   0  0  0  0  0  0  0  0  0  0  0  0
    6.5906   -1.5891    1.4925 H   0  0  0  0  0  0  0  0  0  0  0  0
    6.4133   -0.5334    0.1059 H   0  0  0  0  0  0  0  0  0  0  0  0
    6.8694   -2.1788   -0.1425 H   0  0  0  0  0  0  0  0  0  0  0  0
    4.3039    0.1464   -0.1293 H   0  0  0  0  0  0  0  0  0  0  0  0
    2.9008   -0.6491    0.4913 H   0  0  0  0  0  0  0  0  0  0  0  0
    3.7661    0.7735    1.9856 H   0  0  0  0  0  0  0  0  0  0  0  0
    4.7899   -2.7089    2.3811 H   0  0  0  0  0  0  0  0  0  0  0  0
    2.4075   -2.0815    1.9800 H   0  0  0  0  0  0  0  0  0  0  0  0
    2.2548   -3.4763    0.9419 H   0  0  0  0  0  0  0  0  0  0  0  0
    2.9314   -3.4261    3.9100 H   0  0  0  0  0  0  0  0  0  0  0  0
    1.4429   -3.9408    3.1102 H   0  0  0  0  0  0  0  0  0  0  0  0
    5.2927   -7.1585    1.1116 H   0  0  0  0  0  0  0  0  0  0  0  0
    5.2508   -7.2150    2.8492 H   0  0  0  0  0  0  0  0  0  0  0  0
    3.0089   -7.7615    0.8878 H   0  0  0  0  0  0  0  0  0  0  0  0
    3.7916   -8.9775    1.8402 H   0  0  0  0  0  0  0  0  0  0  0  0
    2.6033   -8.5474    3.7135 H   0  0  0  0  0  0  0  0  0  0  0  0
   -0.5088   -7.2174    1.0324 H   0  0  0  0  0  0  0  0  0  0  0  0
    0.9627   -7.8525    0.3836 H   0  0  0  0  0  0  0  0  0  0  0  0
    0.9603   -6.2496    1.1051 H   0  0  0  0  0  0  0  0  0  0  0  0
   -0.5814   -9.4817    2.2929 H   0  0  0  0  0  0  0  0  0  0  0  0
    0.6176   -9.8361    3.5339 H   0  0  0  0  0  0  0  0  0  0  0  0
    1.0515   -9.9498    1.8265 H   0  0  0  0  0  0  0  0  0  0  0  0
   -0.8730   -6.8442    3.4331 H   0  0  0  0  0  0  0  0  0  0  0  0
    0.8113   -5.2392    4.7115 H   0  0  0  0  0  0  0  0  0  0  0  0
    3.0826   -7.3698    5.6953 H   0  0  0  0  0  0  0  0  0  0  0  0
    3.3885   -5.6421    5.6548 H   0  0  0  0  0  0  0  0  0  0  0  0
    4.4673   -6.7399    4.8205 H   0  0  0  0  0  0  0  0  0  0  0  0
  2  1  1  6
  1 28  1  0
  1 29  1  0
  1 30  1  0
  2 12  1  0
  2 16  1  0
  2  3  1  0
  3  4  1  0
  3 31  1  0
  3 32  1  0
  4  5  1  0
  4  6  1  0
  4 33  1  6
  5 34  1  0
  6  7  1  0
  6  8  1  0
  6 35  1  6
  7 36  1  0
  8  9  1  6
  8 10  1  0
  8 12  1  0
  9 37  1  0
  9 38  1  0
  9 39  1  0
 10 11  1  0
 10 40  1  0
 10 41  1  0
 11 42  1  0
 12 13  1  0
 12 43  1  1
 13 14  1  0
 13 44  1  0
 13 45  1  0
 14 15  1  0
 14 46  1  0
 14 47  1  0
 15 26  1  0
 15 16  2  0
 16 17  1  0
 17 18  1  0
 17 48  1  0
 17 49  1  0
 18 19  1  0
 18 50  1  0
 18 51  1  0
 19 26  1  0
 19 20  1  0
 19 52  1  1
 20 21  1  0
 20 22  1  0
 20 23  1  0
 21 53  1  0
 21 54  1  0
 21 55  1  0
 22 56  1  0
 22 57  1  0
 22 58  1  0
 23 25  1  0
 23 24  1  0
 23 59  1  1
 24 25  1  0
 25 26  1  0
 25 60  1  1
 26 27  1  1
 27 61  1  0
 27 62  1  0
 27 63  1  0
M  END
>  <i_m_ct_stereo_status>  (155) 
1

>  <s_m_source_file>  (155) 
/var/tmp/pbs.5076255.sched01/tmpe2rv0q7i/42k21vmx8r.sdf

>  <i_m_source_file_index>  (155) 
29

>  <i_lp_mmshare_version>  (155) 
48012

>  <i_f3d_flags>  (155) 
0

>  <s_epik_input>  (155) 
W0NIMl0xW0NAQEhdKFtPSF0pW0NAQEhdKFtPSF0pW0NAQF0oW0NIM10pKFtDSDJdW09IXSlbQ0BIXShbQ0BdMTJbQ0gzXSlbQ0gyXVtDSDJdQzM9QzJbQ0gyXVtDSDJdW0NASF00W0NAXTMoW0NIM10pW0NASF01W0NAQEhdKE81KUM0KFtDSDNdKVtDSDNd

>  <s_epik_cmdline>  (155) 
J2VwaWtfcHl0aG9uJywgJy1waHQnLCAnMi4wJywgJy1waCcsICc3LjAnLCAnLXRuJywgJzgnLCAnLW1hJywgJzIwMCcsICctaW1hZScsICc8aW5maWxlLm1hZT4nLCAnLW9tYWUnLCAnPG91dGZpbGUubWFlPic=

>  <r_lp_tautomer_probability>  (155) 
1

>  <r_epik_Ionization_Penalty>  (155) 
1.17691e-06

>  <r_epik_Ionization_Penalty_Charging>  (155) 
0

>  <r_epik_Ionization_Penalty_Neutral>  (155) 
1.17691e-06

>  <r_epik_State_Penalty>  (155) 
-0

>  <r_epik_Charging_Adjusted_Penalty>  (155) 
0

>  <i_epik_Tot_Q>  (155) 
0

>  <i_epik_Tot_abs_Q>  (155) 
0

>  <s_lp_Force_Field>  (155) 
OPLS3e

>  <r_lp_Energy>  (155) 
65.883

>  <b_lp_Chiralities_Consistent>  (155) 
1

>  <s_lp_Variant>  (155) 
48:0-1

>  <s_i_glide_gridfile>  (155) 
pfpi4k_grid

>  <i_i_glide_lignum>  (155) 
29

>  <i_i_glide_rotatable_bonds>  (155) 
4

>  <r_i_docking_score>  (155) 
-3.05423

>  <r_i_glide_ligand_efficiency>  (155) 
-0.11312

>  <r_i_glide_ligand_efficiency_sa>  (155) 
-0.339359

>  <r_i_glide_ligand_efficiency_ln>  (155) 
-0.710974

>  <r_i_glide_gscore>  (155) 
-3.05423

>  <r_i_glide_lipo>  (155) 
-0.306716

>  <r_i_glide_hbond>  (155) 
0

>  <r_i_glide_metal>  (155) 
-0

>  <r_i_glide_rewards>  (155) 
-0.841844

>  <r_i_glide_evdw>  (155) 
-18.9095

>  <r_i_glide_ecoul>  (155) 
-7.3116

>  <r_i_glide_erotb>  (155) 
0.136545

>  <r_i_glide_esite>  (155) 
0

>  <r_i_glide_emodel>  (155) 
-29.8363

>  <r_i_glide_energy>  (155) 
-26.221

>  <r_i_glide_einternal>  (155) 
1.75199

>  <r_i_glide_intrahb_reward>  (155) 
-0

>  <i_i_glide_confnum>  (155) 
5

>  <i_i_glide_posenum>  (155) 
16

>  <r_i_glide_eff_state_penalty>  (155) 
0

>  <ligand_id>  (155) 
48

>  <original_smiles>  (155) 
CC12CC(O)C(O)C(C)(CO)C1CCC1=C2CCC2C(C)(C)C3OC3C12C

>  <smiles>  (155) 
[H]OC([H])([H])C1(C([H])([H])[H])C([H])(O[H])C([H])(O[H])C([H])([H])C2(C([H])([H])[H])C3=C(C([H])([H])C([H])([H])C21[H])C1(C([H])([H])[H])C2([H])OC2([H])C(C([H])([H])[H])(C([H])([H])[H])C1([H])C([H])([H])C3([H])[H]

$$$$
48:0:2
     RDKit          3D

 63 67  0  0  1  0  0  0  0  0999 V2000
    6.5482   -3.4802    0.3851 C   0  0  0  0  0  0  0  0  0  0  0  0
    5.0742   -3.9122    0.1423 C   0  0  2  0  0  0  0  0  0  0  0  0
    4.9654   -4.8283   -1.1316 C   0  0  0  0  0  0  0  0  0  0  0  0
    5.1685   -4.0443   -2.4886 C   0  0  1  0  0  0  0  0  0  0  0  0
    4.9055   -4.7117   -3.6929 O   0  0  0  0  0  0  0  0  0  0  0  0
    4.1858   -2.9173   -2.6621 C   0  0  1  0  0  0  0  0  0  0  0  0
    2.8631   -3.4476   -2.8198 O   0  0  0  0  0  0  0  0  0  0  0  0
    4.3281   -1.9401   -1.5102 C   0  0  1  0  0  0  0  0  0  0  0  0
    5.6878   -1.1726   -1.6049 C   0  0  0  0  0  0  0  0  0  0  0  0
    3.2023   -0.9436   -1.7798 C   0  0  0  0  0  0  0  0  0  0  0  0
    3.4707   -0.1318   -2.9157 O   0  0  0  0  0  0  0  0  0  0  0  0
    4.1625   -2.6498   -0.0961 C   0  0  1  0  0  0  0  0  0  0  0  0
    2.7018   -3.0148    0.2808 C   0  0  0  0  0  0  0  0  0  0  0  0
    2.5871   -3.3730    1.7659 C   0  0  0  0  0  0  0  0  0  0  0  0
    3.5180   -4.4972    2.1288 C   0  0  0  0  0  0  0  0  0  0  0  0
    4.6404   -4.7439    1.3849 C   0  0  0  0  0  0  0  0  0  0  0  0
    5.4991   -5.9371    1.7807 C   0  0  0  0  0  0  0  0  0  0  0  0
    4.6072   -7.1520    2.0518 C   0  0  0  0  0  0  0  0  0  0  0  0
    3.4675   -6.8538    3.0792 C   0  0  2  0  0  0  0  0  0  0  0  0
    2.0658   -7.5464    2.8215 C   0  0  0  0  0  0  0  0  0  0  0  0
    1.6690   -7.5618    1.3555 C   0  0  0  0  0  0  0  0  0  0  0  0
    2.0698   -8.9960    3.3515 C   0  0  0  0  0  0  0  0  0  0  0  0
    1.0909   -6.6708    3.5647 C   0  0  1  0  0  0  0  0  0  0  0  0
    1.4743   -6.3022    4.9025 O   0  0  0  0  0  0  0  0  0  0  0  0
    1.7365   -5.3473    3.8365 C   0  0  1  0  0  0  0  0  0  0  0  0
    3.1939   -5.3330    3.3721 C   0  0  2  0  0  0  0  0  0  0  0  0
    4.0274   -4.7845    4.5593 C   0  0  0  0  0  0  0  0  0  0  0  0
    7.0524   -3.1462   -0.5086 H   0  0  0  0  0  0  0  0  0  0  0  0
    7.1910   -4.2790    0.7436 H   0  0  0  0  0  0  0  0  0  0  0  0
    6.6088   -2.6719    1.1182 H   0  0  0  0  0  0  0  0  0  0  0  0
    5.6866   -5.6402   -1.0267 H   0  0  0  0  0  0  0  0  0  0  0  0
    3.9766   -5.2927   -1.0701 H   0  0  0  0  0  0  0  0  0  0  0  0
    6.2285   -3.7439   -2.5431 H   0  0  0  0  0  0  0  0  0  0  0  0
    4.3502   -5.4736   -3.4281 H   0  0  0  0  0  0  0  0  0  0  0  0
    4.4440   -2.4247   -3.5933 H   0  0  0  0  0  0  0  0  0  0  0  0
    2.9418   -4.3615   -3.0678 H   0  0  0  0  0  0  0  0  0  0  0  0
    5.9769   -0.7735   -0.6228 H   0  0  0  0  0  0  0  0  0  0  0  0
    5.6216   -0.3292   -2.3077 H   0  0  0  0  0  0  0  0  0  0  0  0
    6.5074   -1.8084   -1.9589 H   0  0  0  0  0  0  0  0  0  0  0  0
    2.2244   -1.3969   -1.9739 H   0  0  0  0  0  0  0  0  0  0  0  0
    3.1495   -0.3570   -0.8717 H   0  0  0  0  0  0  0  0  0  0  0  0
    2.8740    0.6340   -2.9315 H   0  0  0  0  0  0  0  0  0  0  0  0
    4.4578   -1.8937    0.6523 H   0  0  0  0  0  0  0  0  0  0  0  0
    2.0579   -2.1747    0.1445 H   0  0  0  0  0  0  0  0  0  0  0  0
    2.3149   -3.8338   -0.3500 H   0  0  0  0  0  0  0  0  0  0  0  0
    2.8048   -2.4993    2.3923 H   0  0  0  0  0  0  0  0  0  0  0  0
    1.5542   -3.6388    1.9521 H   0  0  0  0  0  0  0  0  0  0  0  0
    6.2221   -6.2141    1.0092 H   0  0  0  0  0  0  0  0  0  0  0  0
    6.0768   -5.6948    2.6670 H   0  0  0  0  0  0  0  0  0  0  0  0
    4.1946   -7.4141    1.0813 H   0  0  0  0  0  0  0  0  0  0  0  0
    5.1992   -8.0235    2.3778 H   0  0  0  0  0  0  0  0  0  0  0  0
    3.8398   -7.2600    4.0157 H   0  0  0  0  0  0  0  0  0  0  0  0
    0.6386   -7.8467    1.2158 H   0  0  0  0  0  0  0  0  0  0  0  0
    2.2563   -8.3173    0.8808 H   0  0  0  0  0  0  0  0  0  0  0  0
    1.8100   -6.6121    0.8537 H   0  0  0  0  0  0  0  0  0  0  0  0
    1.0931   -9.4522    3.1852 H   0  0  0  0  0  0  0  0  0  0  0  0
    2.2845   -9.0246    4.4204 H   0  0  0  0  0  0  0  0  0  0  0  0
    2.8146   -9.6031    2.8327 H   0  0  0  0  0  0  0  0  0  0  0  0
    0.0032   -6.7800    3.3370 H   0  0  0  0  0  0  0  0  0  0  0  0
    1.1621   -4.3978    3.9163 H   0  0  0  0  0  0  0  0  0  0  0  0
    3.8873   -5.3829    5.4638 H   0  0  0  0  0  0  0  0  0  0  0  0
    3.7169   -3.7627    4.7991 H   0  0  0  0  0  0  0  0  0  0  0  0
    5.0944   -4.7532    4.3537 H   0  0  0  0  0  0  0  0  0  0  0  0
  2  1  1  1
  1 28  1  0
  1 29  1  0
  1 30  1  0
  2 12  1  0
  2 16  1  0
  2  3  1  0
  3  4  1  0
  3 31  1  0
  3 32  1  0
  4  5  1  0
  4  6  1  0
  4 33  1  6
  5 34  1  0
  6  7  1  0
  6  8  1  0
  6 35  1  6
  7 36  1  0
  8  9  1  1
  8 10  1  0
  8 12  1  0
  9 37  1  0
  9 38  1  0
  9 39  1  0
 10 11  1  0
 10 40  1  0
 10 41  1  0
 11 42  1  0
 12 13  1  0
 12 43  1  1
 13 14  1  0
 13 44  1  0
 13 45  1  0
 14 15  1  0
 14 46  1  0
 14 47  1  0
 15 26  1  0
 15 16  2  0
 16 17  1  0
 17 18  1  0
 17 48  1  0
 17 49  1  0
 18 19  1  0
 18 50  1  0
 18 51  1  0
 19 26  1  0
 19 20  1  0
 19 52  1  1
 20 21  1  0
 20 22  1  0
 20 23  1  0
 21 53  1  0
 21 54  1  0
 21 55  1  0
 22 56  1  0
 22 57  1  0
 22 58  1  0
 23 25  1  0
 23 24  1  0
 23 59  1  1
 24 25  1  0
 25 26  1  0
 25 60  1  1
 26 27  1  1
 27 61  1  0
 27 62  1  0
 27 63  1  0
M  END
>  <i_m_ct_stereo_status>  (156) 
1

>  <s_m_source_file>  (156) 
/var/tmp/pbs.5076255.sched01/tmpe2rv0q7i/42k21vmx8r.sdf

>  <i_m_source_file_index>  (156) 
29

>  <i_lp_mmshare_version>  (156) 
48012

>  <i_f3d_flags>  (156) 
0

>  <s_epik_input>  (156) 
W0NIMl0xW0NAQEhdKFtPSF0pW0NAQEhdKFtPSF0pW0NAQF0oW0NIM10pKFtDSDJdW09IXSlbQ0BIXShbQ0BdMTJbQ0gzXSlbQ0gyXVtDSDJdQzM9QzJbQ0gyXVtDSDJdW0NASF00W0NAXTMoW0NIM10pW0NASF01W0NAQEhdKE81KUM0KFtDSDNdKVtDSDNd

>  <s_epik_cmdline>  (156) 
J2VwaWtfcHl0aG9uJywgJy1waHQnLCAnMi4wJywgJy1waCcsICc3LjAnLCAnLXRuJywgJzgnLCAnLW1hJywgJzIwMCcsICctaW1hZScsICc8aW5maWxlLm1hZT4nLCAnLW9tYWUnLCAnPG91dGZpbGUubWFlPic=

>  <r_lp_tautomer_probability>  (156) 
1

>  <r_epik_Ionization_Penalty>  (156) 
1.17691e-06

>  <r_epik_Ionization_Penalty_Charging>  (156) 
0

>  <r_epik_Ionization_Penalty_Neutral>  (156) 
1.17691e-06

>  <r_epik_State_Penalty>  (156) 
-0

>  <r_epik_Charging_Adjusted_Penalty>  (156) 
0

>  <i_epik_Tot_Q>  (156) 
0

>  <i_epik_Tot_abs_Q>  (156) 
0

>  <s_lp_Force_Field>  (156) 
OPLS3e

>  <r_lp_Energy>  (156) 
65.883

>  <b_lp_Chiralities_Consistent>  (156) 
1

>  <s_lp_Variant>  (156) 
48:0-1

>  <s_i_glide_gridfile>  (156) 
pfpi4k_grid

>  <i_i_glide_lignum>  (156) 
29

>  <i_i_glide_rotatable_bonds>  (156) 
4

>  <r_i_docking_score>  (156) 
-1.43081

>  <r_i_glide_ligand_efficiency>  (156) 
-0.0529929

>  <r_i_glide_ligand_efficiency_sa>  (156) 
-0.158979

>  <r_i_glide_ligand_efficiency_ln>  (156) 
-0.333068

>  <r_i_glide_gscore>  (156) 
-1.43081

>  <r_i_glide_lipo>  (156) 
-0.259387

>  <r_i_glide_hbond>  (156) 
0

>  <r_i_glide_metal>  (156) 
-0

>  <r_i_glide_rewards>  (156) 
-0.841844

>  <r_i_glide_evdw>  (156) 
9.78381

>  <r_i_glide_ecoul>  (156) 
-11.7218

>  <r_i_glide_erotb>  (156) 
0.136545

>  <r_i_glide_esite>  (156) 
0

>  <r_i_glide_emodel>  (156) 
3.50268

>  <r_i_glide_energy>  (156) 
-1.93795

>  <r_i_glide_einternal>  (156) 
3.79076

>  <r_i_glide_intrahb_reward>  (156) 
-0

>  <i_i_glide_confnum>  (156) 
5

>  <i_i_glide_posenum>  (156) 
26

>  <r_i_glide_eff_state_penalty>  (156) 
0

>  <ligand_id>  (156) 
48

>  <original_smiles>  (156) 
CC12CC(O)C(O)C(C)(CO)C1CCC1=C2CCC2C(C)(C)C3OC3C12C

>  <smiles>  (156) 
[H]OC([H])([H])C1(C([H])([H])[H])C([H])(O[H])C([H])(O[H])C([H])([H])C2(C([H])([H])[H])C3=C(C([H])([H])C([H])([H])C21[H])C1(C([H])([H])[H])C2([H])OC2([H])C(C([H])([H])[H])(C([H])([H])[H])C1([H])C([H])([H])C3([H])[H]

$$$$
49:0:0
     RDKit          3D

 40 42  0  0  1  0  0  0  0  0999 V2000
    5.7960   -4.3952    0.1780 C   0  0  0  0  0  0  0  0  0  0  0  0
    4.6803   -4.2235   -0.7932 N   0  0  2  0  0  0  0  0  0  0  0  0
    5.1060   -3.3822   -1.9340 C   0  0  0  0  0  0  0  0  0  0  0  0
    4.0205   -3.2685   -3.0142 C   0  0  0  0  0  0  0  0  0  0  0  0
    2.7110   -2.7329   -2.4258 C   0  0  0  0  0  0  0  0  0  0  0  0
    2.2849   -3.5657   -1.2135 C   0  0  0  0  0  0  0  0  0  0  0  0
    3.4236   -3.6821   -0.1775 C   0  0  1  0  0  0  0  0  0  0  0  0
    2.9339   -4.5335    1.0109 C   0  0  0  0  0  0  0  0  0  0  0  0
    2.4331   -3.9507    1.9774 O   0  0  0  0  0  0  0  0  0  0  0  0
    3.1713   -5.8832    0.8242 N   0  0  0  0  0  0  0  0  0  0  0  0
    2.6889   -6.7372    1.6672 C   0  0  0  0  0  0  0  0  0  0  0  0
    1.5069   -6.5236    3.0451 S   0  0  0  0  0  0  0  0  0  0  0  0
    1.4972   -8.2079    3.4162 C   0  0  0  0  0  0  0  0  0  0  0  0
    0.7108   -8.8045    4.4027 C   0  0  0  0  0  0  0  0  0  0  0  0
    0.8042  -10.1984    4.5769 C   0  0  0  0  0  0  0  0  0  0  0  0
    1.6703  -10.9659    3.7474 C   0  0  0  0  0  0  0  0  0  0  0  0
    2.4591  -10.3416    2.7489 C   0  0  0  0  0  0  0  0  0  0  0  0
    2.3601   -8.9443    2.5901 C   0  0  0  0  0  0  0  0  0  0  0  0
    2.9957   -8.1056    1.6638 N   0  0  0  0  0  0  0  0  0  0  0  0
    3.9529   -8.7581    0.7584 C   0  0  0  0  0  0  0  0  0  0  0  0
    6.0013   -3.4397    0.6767 H   0  0  0  0  0  0  0  0  0  0  0  0
    6.7086   -4.7031   -0.3174 H   0  0  0  0  0  0  0  0  0  0  0  0
    5.5789   -5.1415    0.9567 H   0  0  0  0  0  0  0  0  0  0  0  0
    5.3624   -2.3839   -1.5665 H   0  0  0  0  0  0  0  0  0  0  0  0
    6.0088   -3.7993   -2.3787 H   0  0  0  0  0  0  0  0  0  0  0  0
    4.3580   -2.6170   -3.8147 H   0  0  0  0  0  0  0  0  0  0  0  0
    3.8501   -4.2462   -3.4710 H   0  0  0  0  0  0  0  0  0  0  0  0
    2.8359   -1.6905   -2.1164 H   0  0  0  0  0  0  0  0  0  0  0  0
    1.9160   -2.7410   -3.1742 H   0  0  0  0  0  0  0  0  0  0  0  0
    1.4224   -3.0944   -0.7427 H   0  0  0  0  0  0  0  0  0  0  0  0
    1.9331   -4.5546   -1.5212 H   0  0  0  0  0  0  0  0  0  0  0  0
    3.6378   -2.6903    0.2155 H   0  0  0  0  0  0  0  0  0  0  0  0
    0.0614   -8.1957    5.0099 H   0  0  0  0  0  0  0  0  0  0  0  0
    0.2164  -10.6786    5.3362 H   0  0  0  0  0  0  0  0  0  0  0  0
    1.7223  -12.0321    3.8898 H   0  0  0  0  0  0  0  0  0  0  0  0
    3.1070  -10.9366    2.1201 H   0  0  0  0  0  0  0  0  0  0  0  0
    3.4553   -9.5067    0.1418 H   0  0  0  0  0  0  0  0  0  0  0  0
    4.7623   -9.2652    1.2833 H   0  0  0  0  0  0  0  0  0  0  0  0
    4.4261   -8.0536    0.0665 H   0  0  0  0  0  0  0  0  0  0  0  0
    4.4226   -5.1366   -1.1673 H   0  0  0  0  0  0  0  0  0  0  0  0
  1  2  1  0
  1 21  1  0
  1 22  1  0
  1 23  1  0
  2  7  1  0
  2  3  1  0
  2 40  1  6
  3  4  1  0
  3 24  1  0
  3 25  1  0
  4  5  1  0
  4 26  1  0
  4 27  1  0
  5  6  1  0
  5 28  1  0
  5 29  1  0
  6  7  1  0
  6 30  1  0
  6 31  1  0
  7  8  1  0
  7 32  1  1
  8  9  2  0
  8 10  1  0
 10 11  2  3
 11 19  1  0
 11 12  1  0
 12 13  1  0
 13 18  2  0
 13 14  1  0
 14 15  2  0
 14 33  1  0
 15 16  1  0
 15 34  1  0
 16 17  2  0
 16 35  1  0
 17 18  1  0
 17 36  1  0
 18 19  1  0
 19 20  1  0
 20 37  1  0
 20 38  1  0
 20 39  1  0
M  CHG  1   2   1
M  END
>  <i_m_ct_stereo_status>  (157) 
1

>  <s_m_source_file>  (157) 
/var/tmp/pbs.5076255.sched01/tmpe2rv0q7i/42k21vmx8r.sdf

>  <i_m_source_file_index>  (157) 
30

>  <i_lp_mmshare_version>  (157) 
48012

>  <i_f3d_flags>  (157) 
0

>  <s_epik_input>  (157) 
W0NIM11OMVtDSDJdW0NIMl1bQ0gyXVtDSDJdW0NASF0xQyg9TykvTj1jKFxzMiluKFtDSDNdKWMoYzIzKVtjSF1bY0hdW2NIXVtjSF0z

>  <s_epik_cmdline>  (157) 
J2VwaWtfcHl0aG9uJywgJy1waHQnLCAnMi4wJywgJy1waCcsICc3LjAnLCAnLXRuJywgJzgnLCAnLW1hJywgJzIwMCcsICctaW1hZScsICc8aW5maWxlLm1hZT4nLCAnLW9tYWUnLCAnPG91dGZpbGUubWFlPic=

>  <r_epik_Ionization_Penalty>  (157) 
0.00557667

>  <r_epik_Ionization_Penalty_Charging>  (157) 
0.00557655

>  <r_epik_Ionization_Penalty_Neutral>  (157) 
1.20339e-07

>  <r_epik_State_Penalty>  (157) 
0.00408436

>  <r_epik_Charging_Adjusted_Penalty>  (157) 
0.00966091

>  <i_epik_Tot_Q>  (157) 
1

>  <i_epik_Tot_abs_Q>  (157) 
1

>  <s_lp_Force_Field>  (157) 
OPLS3e

>  <r_lp_Energy>  (157) 
30.7232

>  <b_lp_Chiralities_Consistent>  (157) 
1

>  <s_lp_Variant>  (157) 
49:0-1

>  <s_i_glide_gridfile>  (157) 
pfpi4k_grid

>  <i_i_glide_lignum>  (157) 
30

>  <i_i_glide_rotatable_bonds>  (157) 
2

>  <r_i_docking_score>  (157) 
-3.00165

>  <r_i_glide_ligand_efficiency>  (157) 
-0.150082

>  <r_i_glide_ligand_efficiency_sa>  (157) 
-0.407386

>  <r_i_glide_ligand_efficiency_ln>  (157) 
-0.751214

>  <r_i_glide_gscore>  (157) 
-3.00165

>  <r_i_glide_lipo>  (157) 
-0.299106

>  <r_i_glide_hbond>  (157) 
0

>  <r_i_glide_metal>  (157) 
-0

>  <r_i_glide_rewards>  (157) 
-1.42906

>  <r_i_glide_evdw>  (157) 
-23.8599

>  <r_i_glide_ecoul>  (157) 
-3.22425

>  <r_i_glide_erotb>  (157) 
0.432192

>  <r_i_glide_esite>  (157) 
-0.0290446

>  <r_i_glide_emodel>  (157) 
-31.3453

>  <r_i_glide_energy>  (157) 
-27.0842

>  <r_i_glide_einternal>  (157) 
3.11327

>  <r_i_glide_intrahb_reward>  (157) 
-0

>  <i_i_glide_confnum>  (157) 
6

>  <i_i_glide_posenum>  (157) 
31

>  <r_i_glide_eff_state_penalty>  (157) 
0

>  <ligand_id>  (157) 
49

>  <original_smiles>  (157) 
CN1CCCCC1C(=O)N=c1sc2ccccc2n1C

>  <smiles>  (157) 
[H]c1c([H])c([H])c2c(sc(=NC(=O)C3([H])C([H])([H])C([H])([H])C([H])([H])C([H])([H])[N+]3([H])C([H])([H])[H])n2C([H])([H])[H])c1[H]

$$$$
49:0:1
     RDKit          3D

 40 42  0  0  1  0  0  0  0  0999 V2000
    3.4489  -10.1975    6.7264 C   0  0  0  0  0  0  0  0  0  0  0  0
    2.1278  -10.2587    6.0408 N   0  0  2  0  0  0  0  0  0  0  0  0
    2.2106  -11.0407    4.7876 C   0  0  0  0  0  0  0  0  0  0  0  0
    0.8397  -11.2257    4.1212 C   0  0  0  0  0  0  0  0  0  0  0  0
    0.1678   -9.8706    3.8494 C   0  0  0  0  0  0  0  0  0  0  0  0
    0.1040   -9.0379    5.1355 C   0  0  0  0  0  0  0  0  0  0  0  0
    1.4986   -8.9221    5.7914 C   0  0  1  0  0  0  0  0  0  0  0  0
    1.3329   -8.1272    7.0917 C   0  0  0  0  0  0  0  0  0  0  0  0
    1.0272   -8.7470    8.1137 O   0  0  0  0  0  0  0  0  0  0  0  0
    1.5408   -6.7644    6.9149 N   0  0  0  0  0  0  0  0  0  0  0  0
    1.1302   -5.9406    7.8333 C   0  0  0  0  0  0  0  0  0  0  0  0
    0.2187   -6.2453    9.3829 S   0  0  0  0  0  0  0  0  0  0  0  0
    0.0987   -4.5677    9.7576 C   0  0  0  0  0  0  0  0  0  0  0  0
   -0.5599   -4.0544   10.8835 C   0  0  0  0  0  0  0  0  0  0  0  0
   -0.5501   -2.6553   11.0566 C   0  0  0  0  0  0  0  0  0  0  0  0
    0.1075   -1.8259   10.1083 C   0  0  0  0  0  0  0  0  0  0  0  0
    0.7550   -2.3690    8.9662 C   0  0  0  0  0  0  0  0  0  0  0  0
    0.7406   -3.7682    8.8098 C   0  0  0  0  0  0  0  0  0  0  0  0
    1.3029   -4.5456    7.7869 N   0  0  0  0  0  0  0  0  0  0  0  0
    2.0053   -3.8320    6.7189 C   0  0  0  0  0  0  0  0  0  0  0  0
    4.1352   -9.5656    6.1594 H   0  0  0  0  0  0  0  0  0  0  0  0
    3.8938  -11.1905    6.8325 H   0  0  0  0  0  0  0  0  0  0  0  0
    3.4132   -9.7910    7.7402 H   0  0  0  0  0  0  0  0  0  0  0  0
    2.8860  -10.5336    4.0938 H   0  0  0  0  0  0  0  0  0  0  0  0
    2.6395  -12.0225    5.0003 H   0  0  0  0  0  0  0  0  0  0  0  0
    0.9481  -11.7811    3.1901 H   0  0  0  0  0  0  0  0  0  0  0  0
    0.2140  -11.8344    4.7728 H   0  0  0  0  0  0  0  0  0  0  0  0
    0.7274   -9.3244    3.0888 H   0  0  0  0  0  0  0  0  0  0  0  0
   -0.8384  -10.0140    3.4569 H   0  0  0  0  0  0  0  0  0  0  0  0
   -0.3094   -8.0444    4.9152 H   0  0  0  0  0  0  0  0  0  0  0  0
   -0.5954   -9.4937    5.8399 H   0  0  0  0  0  0  0  0  0  0  0  0
    2.1483   -8.3629    5.1103 H   0  0  0  0  0  0  0  0  0  0  0  0
   -1.0338   -4.7246   11.5792 H   0  0  0  0  0  0  0  0  0  0  0  0
   -1.0320   -2.2317   11.9150 H   0  0  0  0  0  0  0  0  0  0  0  0
    0.1195   -0.7599   10.2676 H   0  0  0  0  0  0  0  0  0  0  0  0
    1.2581   -1.7320    8.2462 H   0  0  0  0  0  0  0  0  0  0  0  0
    2.8403   -3.2513    7.1247 H   0  0  0  0  0  0  0  0  0  0  0  0
    1.3308   -3.1451    6.1966 H   0  0  0  0  0  0  0  0  0  0  0  0
    2.4246   -4.5028    5.9621 H   0  0  0  0  0  0  0  0  0  0  0  0
    1.5203  -10.8062    6.6614 H   0  0  0  0  0  0  0  0  0  0  0  0
  1  2  1  0
  1 21  1  0
  1 22  1  0
  1 23  1  0
  2  7  1  0
  2  3  1  0
  2 40  1  1
  3  4  1  0
  3 24  1  0
  3 25  1  0
  4  5  1  0
  4 26  1  0
  4 27  1  0
  5  6  1  0
  5 28  1  0
  5 29  1  0
  6  7  1  0
  6 30  1  0
  6 31  1  0
  7  8  1  0
  7 32  1  6
  8  9  2  0
  8 10  1  0
 10 11  2  3
 11 19  1  0
 11 12  1  0
 12 13  1  0
 13 18  2  0
 13 14  1  0
 14 15  2  0
 14 33  1  0
 15 16  1  0
 15 34  1  0
 16 17  2  0
 16 35  1  0
 17 18  1  0
 17 36  1  0
 18 19  1  0
 19 20  1  0
 20 37  1  0
 20 38  1  0
 20 39  1  0
M  CHG  1   2   1
M  END
>  <i_m_ct_stereo_status>  (158) 
1

>  <s_m_source_file>  (158) 
/var/tmp/pbs.5076255.sched01/tmpe2rv0q7i/42k21vmx8r.sdf

>  <i_m_source_file_index>  (158) 
30

>  <i_lp_mmshare_version>  (158) 
48012

>  <i_f3d_flags>  (158) 
0

>  <s_epik_input>  (158) 
W0NIM11OMVtDSDJdW0NIMl1bQ0gyXVtDSDJdW0NASF0xQyg9TykvTj1jKFxzMiluKFtDSDNdKWMoYzIzKVtjSF1bY0hdW2NIXVtjSF0z

>  <s_epik_cmdline>  (158) 
J2VwaWtfcHl0aG9uJywgJy1waHQnLCAnMi4wJywgJy1waCcsICc3LjAnLCAnLXRuJywgJzgnLCAnLW1hJywgJzIwMCcsICctaW1hZScsICc8aW5maWxlLm1hZT4nLCAnLW9tYWUnLCAnPG91dGZpbGUubWFlPic=

>  <r_epik_Ionization_Penalty>  (158) 
0.00557667

>  <r_epik_Ionization_Penalty_Charging>  (158) 
0.00557655

>  <r_epik_Ionization_Penalty_Neutral>  (158) 
1.20339e-07

>  <r_epik_State_Penalty>  (158) 
0.00408436

>  <r_epik_Charging_Adjusted_Penalty>  (158) 
0.00966091

>  <i_epik_Tot_Q>  (158) 
1

>  <i_epik_Tot_abs_Q>  (158) 
1

>  <s_lp_Force_Field>  (158) 
OPLS3e

>  <r_lp_Energy>  (158) 
30.7232

>  <b_lp_Chiralities_Consistent>  (158) 
1

>  <s_lp_Variant>  (158) 
49:0-1

>  <s_i_glide_gridfile>  (158) 
pfpi4k_grid

>  <i_i_glide_lignum>  (158) 
30

>  <i_i_glide_rotatable_bonds>  (158) 
2

>  <r_i_docking_score>  (158) 
-2.99112

>  <r_i_glide_ligand_efficiency>  (158) 
-0.149556

>  <r_i_glide_ligand_efficiency_sa>  (158) 
-0.405957

>  <r_i_glide_ligand_efficiency_ln>  (158) 
-0.748578

>  <r_i_glide_gscore>  (158) 
-2.99112

>  <r_i_glide_lipo>  (158) 
-0.0552928

>  <r_i_glide_hbond>  (158) 
-0.189553

>  <r_i_glide_metal>  (158) 
-0

>  <r_i_glide_rewards>  (158) 
-1.42906

>  <r_i_glide_evdw>  (158) 
-14.754

>  <r_i_glide_ecoul>  (158) 
-5.94008

>  <r_i_glide_erotb>  (158) 
0.432192

>  <r_i_glide_esite>  (158) 
-0.120698

>  <r_i_glide_emodel>  (158) 
-26.0224

>  <r_i_glide_energy>  (158) 
-20.694

>  <r_i_glide_einternal>  (158) 
0.941118

>  <r_i_glide_intrahb_reward>  (158) 
-0

>  <i_i_glide_confnum>  (158) 
3

>  <i_i_glide_posenum>  (158) 
11

>  <r_i_glide_eff_state_penalty>  (158) 
0

>  <ligand_id>  (158) 
49

>  <original_smiles>  (158) 
CN1CCCCC1C(=O)N=c1sc2ccccc2n1C

>  <smiles>  (158) 
[H]c1c([H])c([H])c2c(sc(=NC(=O)C3([H])C([H])([H])C([H])([H])C([H])([H])C([H])([H])[N+]3([H])C([H])([H])[H])n2C([H])([H])[H])c1[H]

$$$$
49:0:2
     RDKit          3D

 40 42  0  0  1  0  0  0  0  0999 V2000
    4.5663   -1.5838    0.6627 C   0  0  0  0  0  0  0  0  0  0  0  0
    3.2602   -1.0308    1.1219 N   0  0  2  0  0  0  0  0  0  0  0  0
    3.3745    0.4200    1.3723 C   0  0  0  0  0  0  0  0  0  0  0  0
    2.0199    1.0402    1.7272 C   0  0  0  0  0  0  0  0  0  0  0  0
    1.4038    0.3616    2.9589 C   0  0  0  0  0  0  0  0  0  0  0  0
    1.3420   -1.1521    2.7412 C   0  0  0  0  0  0  0  0  0  0  0  0
    2.7185   -1.7303    2.3278 C   0  0  1  0  0  0  0  0  0  0  0  0
    2.5506   -3.2383    2.0581 C   0  0  0  0  0  0  0  0  0  0  0  0
    2.4902   -3.6149    0.8877 O   0  0  0  0  0  0  0  0  0  0  0  0
    2.4373   -3.9847    3.2202 N   0  0  0  0  0  0  0  0  0  0  0  0
    2.2701   -5.2754    3.1187 C   0  0  0  0  0  0  0  0  0  0  0  0
    2.2047   -6.3499    1.6470 S   0  0  0  0  0  0  0  0  0  0  0  0
    1.9646   -7.7750    2.5797 C   0  0  0  0  0  0  0  0  0  0  0  0
    1.8251   -9.0695    2.0683 C   0  0  0  0  0  0  0  0  0  0  0  0
    1.6265  -10.1299    2.9713 C   0  0  0  0  0  0  0  0  0  0  0  0
    1.5736   -9.8778    4.3628 C   0  0  0  0  0  0  0  0  0  0  0  0
    1.7206   -8.5633    4.8683 C   0  0  0  0  0  0  0  0  0  0  0  0
    1.9198   -7.5146    3.9488 C   0  0  0  0  0  0  0  0  0  0  0  0
    2.0955   -6.1395    4.2049 N   0  0  0  0  0  0  0  0  0  0  0  0
    2.0610   -5.7089    5.6045 C   0  0  0  0  0  0  0  0  0  0  0  0
    5.2774   -1.5438    1.4947 H   0  0  0  0  0  0  0  0  0  0  0  0
    4.9600   -0.9716   -0.1467 H   0  0  0  0  0  0  0  0  0  0  0  0
    4.4914   -2.6202    0.3194 H   0  0  0  0  0  0  0  0  0  0  0  0
    4.0807    0.5802    2.1828 H   0  0  0  0  0  0  0  0  0  0  0  0
    3.7883    0.8987    0.4822 H   0  0  0  0  0  0  0  0  0  0  0  0
    2.1357    2.1074    1.9214 H   0  0  0  0  0  0  0  0  0  0  0  0
    1.3314    0.9525    0.8851 H   0  0  0  0  0  0  0  0  0  0  0  0
    2.0021    0.5761    3.8479 H   0  0  0  0  0  0  0  0  0  0  0  0
    0.4010    0.7528    3.1490 H   0  0  0  0  0  0  0  0  0  0  0  0
    0.9623   -1.6408    3.6472 H   0  0  0  0  0  0  0  0  0  0  0  0
    0.6266   -1.3755    1.9504 H   0  0  0  0  0  0  0  0  0  0  0  0
    3.4134   -1.6088    3.1662 H   0  0  0  0  0  0  0  0  0  0  0  0
    1.8669   -9.2412    1.0081 H   0  0  0  0  0  0  0  0  0  0  0  0
    1.5149  -11.1327    2.5967 H   0  0  0  0  0  0  0  0  0  0  0  0
    1.4224  -10.6945    5.0493 H   0  0  0  0  0  0  0  0  0  0  0  0
    1.6839   -8.3753    5.9277 H   0  0  0  0  0  0  0  0  0  0  0  0
    2.8488   -6.1985    6.1767 H   0  0  0  0  0  0  0  0  0  0  0  0
    1.0998   -5.9436    6.0625 H   0  0  0  0  0  0  0  0  0  0  0  0
    2.2122   -4.6271    5.7147 H   0  0  0  0  0  0  0  0  0  0  0  0
    2.5606   -1.1574    0.3923 H   0  0  0  0  0  0  0  0  0  0  0  0
  1  2  1  0
  1 21  1  0
  1 22  1  0
  1 23  1  0
  2  7  1  0
  2  3  1  0
  2 40  1  6
  3  4  1  0
  3 24  1  0
  3 25  1  0
  4  5  1  0
  4 26  1  0
  4 27  1  0
  5  6  1  0
  5 28  1  0
  5 29  1  0
  6  7  1  0
  6 30  1  0
  6 31  1  0
  7  8  1  0
  7 32  1  1
  8  9  2  0
  8 10  1  0
 10 11  2  3
 11 19  1  0
 11 12  1  0
 12 13  1  0
 13 18  2  0
 13 14  1  0
 14 15  2  0
 14 33  1  0
 15 16  1  0
 15 34  1  0
 16 17  2  0
 16 35  1  0
 17 18  1  0
 17 36  1  0
 18 19  1  0
 19 20  1  0
 20 37  1  0
 20 38  1  0
 20 39  1  0
M  CHG  1   2   1
M  END
>  <i_m_ct_stereo_status>  (159) 
1

>  <s_m_source_file>  (159) 
/var/tmp/pbs.5076255.sched01/tmpe2rv0q7i/42k21vmx8r.sdf

>  <i_m_source_file_index>  (159) 
30

>  <i_lp_mmshare_version>  (159) 
48012

>  <i_f3d_flags>  (159) 
0

>  <s_epik_input>  (159) 
W0NIM11OMVtDSDJdW0NIMl1bQ0gyXVtDSDJdW0NASF0xQyg9TykvTj1jKFxzMiluKFtDSDNdKWMoYzIzKVtjSF1bY0hdW2NIXVtjSF0z

>  <s_epik_cmdline>  (159) 
J2VwaWtfcHl0aG9uJywgJy1waHQnLCAnMi4wJywgJy1waCcsICc3LjAnLCAnLXRuJywgJzgnLCAnLW1hJywgJzIwMCcsICctaW1hZScsICc8aW5maWxlLm1hZT4nLCAnLW9tYWUnLCAnPG91dGZpbGUubWFlPic=

>  <r_epik_Ionization_Penalty>  (159) 
0.00557667

>  <r_epik_Ionization_Penalty_Charging>  (159) 
0.00557655

>  <r_epik_Ionization_Penalty_Neutral>  (159) 
1.20339e-07

>  <r_epik_State_Penalty>  (159) 
0.00408436

>  <r_epik_Charging_Adjusted_Penalty>  (159) 
0.00966091

>  <i_epik_Tot_Q>  (159) 
1

>  <i_epik_Tot_abs_Q>  (159) 
1

>  <s_lp_Force_Field>  (159) 
OPLS3e

>  <r_lp_Energy>  (159) 
30.7232

>  <b_lp_Chiralities_Consistent>  (159) 
1

>  <s_lp_Variant>  (159) 
49:0-1

>  <s_i_glide_gridfile>  (159) 
pfpi4k_grid

>  <i_i_glide_lignum>  (159) 
30

>  <i_i_glide_rotatable_bonds>  (159) 
2

>  <r_i_docking_score>  (159) 
-2.88255

>  <r_i_glide_ligand_efficiency>  (159) 
-0.144127

>  <r_i_glide_ligand_efficiency_sa>  (159) 
-0.391222

>  <r_i_glide_ligand_efficiency_ln>  (159) 
-0.721406

>  <r_i_glide_gscore>  (159) 
-2.88255

>  <r_i_glide_lipo>  (159) 
-0.221892

>  <r_i_glide_hbond>  (159) 
-0.118957

>  <r_i_glide_metal>  (159) 
-0

>  <r_i_glide_rewards>  (159) 
-1.42906

>  <r_i_glide_evdw>  (159) 
-18.02

>  <r_i_glide_ecoul>  (159) 
-3.95711

>  <r_i_glide_erotb>  (159) 
0.432192

>  <r_i_glide_esite>  (159) 
-0.0502663

>  <r_i_glide_emodel>  (159) 
-26.7335

>  <r_i_glide_energy>  (159) 
-21.9771

>  <r_i_glide_einternal>  (159) 
1.02558

>  <r_i_glide_intrahb_reward>  (159) 
-0

>  <i_i_glide_confnum>  (159) 
1

>  <i_i_glide_posenum>  (159) 
3

>  <r_i_glide_eff_state_penalty>  (159) 
0

>  <ligand_id>  (159) 
49

>  <original_smiles>  (159) 
CN1CCCCC1C(=O)N=c1sc2ccccc2n1C

>  <smiles>  (159) 
[H]c1c([H])c([H])c2c(sc(=NC(=O)C3([H])C([H])([H])C([H])([H])C([H])([H])C([H])([H])[N+]3([H])C([H])([H])[H])n2C([H])([H])[H])c1[H]

$$$$
49:1:0
     RDKit          3D

 40 42  0  0  1  0  0  0  0  0999 V2000
   -8.6627  -12.8761   -9.9936 C   0  0  0  0  0  0  0  0  0  0  0  0
   -7.2468  -12.4192   -9.7821 N   0  0  2  0  0  0  0  0  0  0  0  0
   -6.2582  -13.3266  -10.4471 C   0  0  0  0  0  0  0  0  0  0  0  0
   -4.8014  -12.8208  -10.3788 C   0  0  0  0  0  0  0  0  0  0  0  0
   -4.3948  -12.5525   -8.9407 C   0  0  0  0  0  0  0  0  0  0  0  0
   -5.4103  -11.6525   -8.2463 C   0  0  0  0  0  0  0  0  0  0  0  0
   -6.8839  -12.1740   -8.3424 C   0  0  1  0  0  0  0  0  0  0  0  0
   -7.8433  -11.1862   -7.6519 C   0  0  0  0  0  0  0  0  0  0  0  0
   -8.4825  -11.5845   -6.6623 O   0  0  0  0  0  0  0  0  0  0  0  0
   -7.9427   -9.9751   -8.2976 N   0  0  0  0  0  0  0  0  0  0  0  0
   -7.6620   -8.8657   -7.6615 C   0  0  0  0  0  0  0  0  0  0  0  0
   -7.9597   -7.2350   -8.3888 S   0  0  0  0  0  0  0  0  0  0  0  0
   -7.4660   -6.4109   -6.9360 C   0  0  0  0  0  0  0  0  0  0  0  0
   -7.5299   -5.0237   -6.7215 C   0  0  0  0  0  0  0  0  0  0  0  0
   -7.0715   -4.4987   -5.4910 C   0  0  0  0  0  0  0  0  0  0  0  0
   -6.5858   -5.3784   -4.4975 C   0  0  0  0  0  0  0  0  0  0  0  0
   -6.5299   -6.7688   -4.7229 C   0  0  0  0  0  0  0  0  0  0  0  0
   -6.9726   -7.2762   -5.9691 C   0  0  0  0  0  0  0  0  0  0  0  0
   -7.0611   -8.6066   -6.4235 N   0  0  0  0  0  0  0  0  0  0  0  0
   -6.5578   -9.5774   -5.4805 C   0  0  0  0  0  0  0  0  0  0  0  0
   -8.8531  -13.7848   -9.4235 H   0  0  0  0  0  0  0  0  0  0  0  0
   -8.8625  -13.0960  -11.0462 H   0  0  0  0  0  0  0  0  0  0  0  0
   -9.4265  -12.1453   -9.7053 H   0  0  0  0  0  0  0  0  0  0  0  0
   -6.3239  -14.3044   -9.9679 H   0  0  0  0  0  0  0  0  0  0  0  0
   -6.5444  -13.4539  -11.4908 H   0  0  0  0  0  0  0  0  0  0  0  0
   -4.1349  -13.5482  -10.8297 H   0  0  0  0  0  0  0  0  0  0  0  0
   -4.6637  -11.9156  -10.9582 H   0  0  0  0  0  0  0  0  0  0  0  0
   -4.3395  -13.4829   -8.3736 H   0  0  0  0  0  0  0  0  0  0  0  0
   -3.4149  -12.0738   -8.8758 H   0  0  0  0  0  0  0  0  0  0  0  0
   -5.0301  -11.6483   -7.2141 H   0  0  0  0  0  0  0  0  0  0  0  0
   -5.3424  -10.6300   -8.6375 H   0  0  0  0  0  0  0  0  0  0  0  0
   -6.9154  -13.1352   -7.8061 H   0  0  0  0  0  0  0  0  0  0  0  0
   -7.8735   -4.3979   -7.5344 H   0  0  0  0  0  0  0  0  0  0  0  0
   -7.0875   -3.4467   -5.3217 H   0  0  0  0  0  0  0  0  0  0  0  0
   -6.2547   -4.9617   -3.5589 H   0  0  0  0  0  0  0  0  0  0  0  0
   -6.1715   -7.4052   -3.9317 H   0  0  0  0  0  0  0  0  0  0  0  0
   -5.8640   -9.2011   -4.7498 H   0  0  0  0  0  0  0  0  0  0  0  0
   -5.9950  -10.3683   -5.9606 H   0  0  0  0  0  0  0  0  0  0  0  0
   -7.4339  -10.0026   -5.0139 H   0  0  0  0  0  0  0  0  0  0  0  0
   -7.1833  -11.5015  -10.2086 H   0  0  0  0  0  0  0  0  0  0  0  0
  1  2  1  0
  1 21  1  0
  1 22  1  0
  1 23  1  0
  2  7  1  0
  2  3  1  0
  2 40  1  6
  3  4  1  0
  3 24  1  0
  3 25  1  0
  4  5  1  0
  4 26  1  0
  4 27  1  0
  5  6  1  0
  5 28  1  0
  5 29  1  0
  6  7  1  0
  6 30  1  0
  6 31  1  0
  7  8  1  0
  7 32  1  1
  8  9  2  0
  8 10  1  0
 10 11  2  3
 11 19  1  0
 11 12  1  0
 12 13  1  0
 13 18  2  0
 13 14  1  0
 14 15  2  0
 14 33  1  0
 15 16  1  0
 15 34  1  0
 16 17  2  0
 16 35  1  0
 17 18  1  0
 17 36  1  0
 18 19  1  0
 19 20  1  0
 20 37  1  0
 20 38  1  0
 20 39  1  0
M  CHG  1   2   1
M  END
>  <i_m_ct_stereo_status>  (160) 
1

>  <s_m_source_file>  (160) 
/var/tmp/pbs.5076255.sched01/tmpe2rv0q7i/42k21vmx8r.sdf

>  <i_m_source_file_index>  (160) 
31

>  <i_lp_mmshare_version>  (160) 
48012

>  <i_f3d_flags>  (160) 
0

>  <s_epik_input>  (160) 
W0NIM11OMVtDSDJdW0NIMl1bQ0gyXVtDSDJdW0NASF0xQyg9TykvTj1jKFxzMiluKFtDSDNdKWMoYzIzKVtjSF1bY0hdW2NIXVtjSF0z

>  <s_epik_cmdline>  (160) 
J2VwaWtfcHl0aG9uJywgJy1waHQnLCAnMi4wJywgJy1waCcsICc3LjAnLCAnLXRuJywgJzgnLCAnLW1hJywgJzIwMCcsICctaW1hZScsICc8aW5maWxlLm1hZT4nLCAnLW9tYWUnLCAnPG91dGZpbGUubWFlPic=

>  <r_epik_Ionization_Penalty>  (160) 
0.00557667

>  <r_epik_Ionization_Penalty_Charging>  (160) 
0.00557655

>  <r_epik_Ionization_Penalty_Neutral>  (160) 
1.20339e-07

>  <r_epik_State_Penalty>  (160) 
0.00408436

>  <r_epik_Charging_Adjusted_Penalty>  (160) 
0.00966091

>  <i_epik_Tot_Q>  (160) 
1

>  <i_epik_Tot_abs_Q>  (160) 
1

>  <s_lp_Force_Field>  (160) 
OPLS3e

>  <r_lp_Energy>  (160) 
36.8357

>  <b_lp_Chiralities_Consistent>  (160) 
1

>  <s_lp_Variant>  (160) 
49:0-2

>  <s_i_glide_gridfile>  (160) 
pfpi4k_grid

>  <i_i_glide_lignum>  (160) 
31

>  <i_i_glide_rotatable_bonds>  (160) 
2

>  <r_i_docking_score>  (160) 
-4.83184

>  <r_i_glide_ligand_efficiency>  (160) 
-0.241592

>  <r_i_glide_ligand_efficiency_sa>  (160) 
-0.655781

>  <r_i_glide_ligand_efficiency_ln>  (160) 
-1.20925

>  <r_i_glide_gscore>  (160) 
-4.83184

>  <r_i_glide_lipo>  (160) 
-2.05784

>  <r_i_glide_hbond>  (160) 
0

>  <r_i_glide_metal>  (160) 
-0

>  <r_i_glide_rewards>  (160) 
-2.2912

>  <r_i_glide_evdw>  (160) 
-18.8613

>  <r_i_glide_ecoul>  (160) 
0.187215

>  <r_i_glide_erotb>  (160) 
0.432192

>  <r_i_glide_esite>  (160) 
0

>  <r_i_glide_emodel>  (160) 
-14.7416

>  <r_i_glide_energy>  (160) 
-18.674

>  <r_i_glide_einternal>  (160) 
7.16786

>  <r_i_glide_intrahb_reward>  (160) 
-0

>  <i_i_glide_confnum>  (160) 
6

>  <i_i_glide_posenum>  (160) 
5

>  <r_i_glide_eff_state_penalty>  (160) 
0

>  <ligand_id>  (160) 
49

>  <original_smiles>  (160) 
CN1CCCCC1C(=O)N=c1sc2ccccc2n1C

>  <smiles>  (160) 
[H]c1c([H])c([H])c2c(sc(=NC(=O)C3([H])C([H])([H])C([H])([H])C([H])([H])C([H])([H])[N+]3([H])C([H])([H])[H])n2C([H])([H])[H])c1[H]

$$$$
50:0:0
     RDKit          3D

 22 23  0  0  1  0  0  0  0  0999 V2000
    2.9673   -0.0062   -5.1148 C   0  0  0  0  0  0  0  0  0  0  0  0
    3.6839   -0.8114   -4.0872 C   0  0  0  0  0  0  0  0  0  0  0  0
    4.2124   -0.2508   -3.0090 N   0  0  0  0  0  0  0  0  0  0  0  0
    4.8117   -1.3220   -2.3358 O   0  0  0  0  0  0  0  0  0  0  0  0
    4.5789   -2.4119   -3.1054 C   0  0  0  0  0  0  0  0  0  0  0  0
    5.1387   -3.7287   -2.6787 C   0  0  0  0  0  0  0  0  0  0  0  0
    4.9931   -3.9418   -1.2502 N   0  0  0  0  0  0  0  0  0  0  0  0
    3.8453   -4.2429   -0.5445 C   0  0  0  0  0  0  0  0  0  0  0  0
    4.2349   -4.3555    0.7567 C   0  0  0  0  0  0  0  0  0  0  0  0
    3.3880   -4.6786    1.9063 N   0  0  0  0  0  0  0  0  0  0  0  0
    3.9092   -4.6480    3.0155 O   0  0  0  0  0  0  0  0  0  0  0  0
    2.2129   -4.9622    1.6950 O   0  0  0  0  0  0  0  0  0  0  0  0
    5.6304   -4.1005    0.7786 C   0  0  0  0  0  0  0  0  0  0  0  0
    6.0798   -3.8482   -0.4423 N   0  0  0  0  0  0  0  0  0  0  0  0
    3.8890   -2.1515   -4.2170 N   0  0  0  0  0  0  0  0  0  0  0  0
    3.0911    1.0627   -4.9449 H   0  0  0  0  0  0  0  0  0  0  0  0
    1.9017   -0.2241   -5.0857 H   0  0  0  0  0  0  0  0  0  0  0  0
    3.3467   -0.2465   -6.1081 H   0  0  0  0  0  0  0  0  0  0  0  0
    4.6183   -4.5247   -3.2134 H   0  0  0  0  0  0  0  0  0  0  0  0
    6.1917   -3.7792   -2.9620 H   0  0  0  0  0  0  0  0  0  0  0  0
    2.8802   -4.3562   -1.0161 H   0  0  0  0  0  0  0  0  0  0  0  0
    6.3191   -4.0935    1.6113 H   0  0  0  0  0  0  0  0  0  0  0  0
  1  2  1  0
  1 16  1  0
  1 17  1  0
  1 18  1  0
  2 15  1  0
  2  3  2  0
  3  4  1  0
  4  5  1  0
  5  6  1  0
  5 15  2  0
  6  7  1  0
  6 19  1  0
  6 20  1  0
  7 14  1  0
  7  8  1  0
  8  9  2  0
  8 21  1  0
  9 10  1  0
  9 13  1  0
 10 11  2  0
 10 12  1  0
 13 14  2  0
 13 22  1  0
M  CHG  2  10   1  12  -1
M  END
>  <i_m_ct_stereo_status>  (161) 
1

>  <s_m_source_file>  (161) 
/var/tmp/pbs.5076255.sched01/tmpe2rv0q7i/42k21vmx8r.sdf

>  <i_m_source_file_index>  (161) 
32

>  <i_lp_mmshare_version>  (161) 
48012

>  <i_f3d_flags>  (161) 
0

>  <s_epik_input>  (161) 
W0NIM11jMW5vYyhuMSlbQ0gyXW4yW2NIXWMoW04rXSg9TylbTy1dKVtjSF1uMg==

>  <s_epik_cmdline>  (161) 
J2VwaWtfcHl0aG9uJywgJy1waHQnLCAnMi4wJywgJy1waCcsICc3LjAnLCAnLXRuJywgJzgnLCAnLW1hJywgJzIwMCcsICctaW1hZScsICc8aW5maWxlLm1hZT4nLCAnLW9tYWUnLCAnPG91dGZpbGUubWFlPic=

>  <r_lp_tautomer_probability>  (161) 
1

>  <r_epik_Ionization_Penalty>  (161) 
3.77864e-11

>  <r_epik_Ionization_Penalty_Charging>  (161) 
0

>  <r_epik_Ionization_Penalty_Neutral>  (161) 
3.77864e-11

>  <r_epik_State_Penalty>  (161) 
-0

>  <r_epik_Charging_Adjusted_Penalty>  (161) 
0

>  <i_epik_Tot_Q>  (161) 
0

>  <i_epik_Tot_abs_Q>  (161) 
2

>  <s_lp_Force_Field>  (161) 
OPLS3e

>  <r_lp_Energy>  (161) 
-2.88935

>  <b_lp_Chiralities_Consistent>  (161) 
1

>  <s_lp_Variant>  (161) 
50:0-1

>  <s_i_glide_gridfile>  (161) 
pfpi4k_grid

>  <i_i_glide_lignum>  (161) 
32

>  <i_i_glide_rotatable_bonds>  (161) 
3

>  <r_i_docking_score>  (161) 
-4.06064

>  <r_i_glide_ligand_efficiency>  (161) 
-0.27071

>  <r_i_glide_ligand_efficiency_sa>  (161) 
-0.667627

>  <r_i_glide_ligand_efficiency_ln>  (161) 
-1.09509

>  <r_i_glide_gscore>  (161) 
-4.06064

>  <r_i_glide_lipo>  (161) 
-0.372564

>  <r_i_glide_hbond>  (161) 
-0.32

>  <r_i_glide_metal>  (161) 
-0

>  <r_i_glide_rewards>  (161) 
-2.22115

>  <r_i_glide_evdw>  (161) 
-22.221

>  <r_i_glide_ecoul>  (161) 
-4.79106

>  <r_i_glide_erotb>  (161) 
0.757751

>  <r_i_glide_esite>  (161) 
-0.0749741

>  <r_i_glide_emodel>  (161) 
-34.6059

>  <r_i_glide_energy>  (161) 
-27.012

>  <r_i_glide_einternal>  (161) 
0.320395

>  <r_i_glide_intrahb_reward>  (161) 
-0

>  <i_i_glide_confnum>  (161) 
3

>  <i_i_glide_posenum>  (161) 
2

>  <r_i_glide_eff_state_penalty>  (161) 
0

>  <ligand_id>  (161) 
50

>  <original_smiles>  (161) 
Cc1noc(Cn2cc([N+](=O)[O-])cn2)n1

>  <smiles>  (161) 
[H]c1nn(C([H])([H])c2nc(C([H])([H])[H])no2)c([H])c1[N+](=O)[O-]

$$$$
50:0:1
     RDKit          3D

 22 23  0  0  1  0  0  0  0  0999 V2000
    0.9365   -8.1986    2.1926 C   0  0  0  0  0  0  0  0  0  0  0  0
    1.5730   -7.1032    1.4210 C   0  0  0  0  0  0  0  0  0  0  0  0
    0.8537   -6.2775    0.6682 N   0  0  0  0  0  0  0  0  0  0  0  0
    1.8264   -5.4551    0.0830 O   0  0  0  0  0  0  0  0  0  0  0  0
    3.0188   -5.8535    0.5990 C   0  0  0  0  0  0  0  0  0  0  0  0
    4.2886   -5.1639    0.1967 C   0  0  0  0  0  0  0  0  0  0  0  0
    4.0716   -3.9135   -0.5066 N   0  0  0  0  0  0  0  0  0  0  0  0
    4.3360   -3.6146   -1.8299 C   0  0  0  0  0  0  0  0  0  0  0  0
    3.9241   -2.3308   -2.0054 C   0  0  0  0  0  0  0  0  0  0  0  0
    3.9776   -1.5433   -3.2414 N   0  0  0  0  0  0  0  0  0  0  0  0
    3.8182   -0.3344   -3.1474 O   0  0  0  0  0  0  0  0  0  0  0  0
    4.2082   -2.1345   -4.2927 O   0  0  0  0  0  0  0  0  0  0  0  0
    3.4403   -1.8935   -0.7444 C   0  0  0  0  0  0  0  0  0  0  0  0
    3.5523   -2.8551    0.1617 N   0  0  0  0  0  0  0  0  0  0  0  0
    2.9123   -6.8765    1.4448 N   0  0  0  0  0  0  0  0  0  0  0  0
   -0.0994   -8.3409    1.8850 H   0  0  0  0  0  0  0  0  0  0  0  0
    0.9389   -7.9511    3.2540 H   0  0  0  0  0  0  0  0  0  0  0  0
    1.4821   -9.1319    2.0357 H   0  0  0  0  0  0  0  0  0  0  0  0
    4.8866   -4.9650    1.0874 H   0  0  0  0  0  0  0  0  0  0  0  0
    4.8685   -5.8347   -0.4408 H   0  0  0  0  0  0  0  0  0  0  0  0
    4.7629   -4.3333   -2.5176 H   0  0  0  0  0  0  0  0  0  0  0  0
    3.0243   -0.9381   -0.4585 H   0  0  0  0  0  0  0  0  0  0  0  0
  1  2  1  0
  1 16  1  0
  1 17  1  0
  1 18  1  0
  2 15  1  0
  2  3  2  0
  3  4  1  0
  4  5  1  0
  5  6  1  0
  5 15  2  0
  6  7  1  0
  6 19  1  0
  6 20  1  0
  7 14  1  0
  7  8  1  0
  8  9  2  0
  8 21  1  0
  9 10  1  0
  9 13  1  0
 10 11  2  0
 10 12  1  0
 13 14  2  0
 13 22  1  0
M  CHG  2  10   1  12  -1
M  END
>  <i_m_ct_stereo_status>  (162) 
1

>  <s_m_source_file>  (162) 
/var/tmp/pbs.5076255.sched01/tmpe2rv0q7i/42k21vmx8r.sdf

>  <i_m_source_file_index>  (162) 
32

>  <i_lp_mmshare_version>  (162) 
48012

>  <i_f3d_flags>  (162) 
0

>  <s_epik_input>  (162) 
W0NIM11jMW5vYyhuMSlbQ0gyXW4yW2NIXWMoW04rXSg9TylbTy1dKVtjSF1uMg==

>  <s_epik_cmdline>  (162) 
J2VwaWtfcHl0aG9uJywgJy1waHQnLCAnMi4wJywgJy1waCcsICc3LjAnLCAnLXRuJywgJzgnLCAnLW1hJywgJzIwMCcsICctaW1hZScsICc8aW5maWxlLm1hZT4nLCAnLW9tYWUnLCAnPG91dGZpbGUubWFlPic=

>  <r_lp_tautomer_probability>  (162) 
1

>  <r_epik_Ionization_Penalty>  (162) 
3.77864e-11

>  <r_epik_Ionization_Penalty_Charging>  (162) 
0

>  <r_epik_Ionization_Penalty_Neutral>  (162) 
3.77864e-11

>  <r_epik_State_Penalty>  (162) 
-0

>  <r_epik_Charging_Adjusted_Penalty>  (162) 
0

>  <i_epik_Tot_Q>  (162) 
0

>  <i_epik_Tot_abs_Q>  (162) 
2

>  <s_lp_Force_Field>  (162) 
OPLS3e

>  <r_lp_Energy>  (162) 
-2.88935

>  <b_lp_Chiralities_Consistent>  (162) 
1

>  <s_lp_Variant>  (162) 
50:0-1

>  <s_i_glide_gridfile>  (162) 
pfpi4k_grid

>  <i_i_glide_lignum>  (162) 
32

>  <i_i_glide_rotatable_bonds>  (162) 
3

>  <r_i_docking_score>  (162) 
-3.88641

>  <r_i_glide_ligand_efficiency>  (162) 
-0.259094

>  <r_i_glide_ligand_efficiency_sa>  (162) 
-0.63898

>  <r_i_glide_ligand_efficiency_ln>  (162) 
-1.0481

>  <r_i_glide_gscore>  (162) 
-3.88641

>  <r_i_glide_lipo>  (162) 
-0.00980522

>  <r_i_glide_hbond>  (162) 
0

>  <r_i_glide_metal>  (162) 
-0

>  <r_i_glide_rewards>  (162) 
-2.12422

>  <r_i_glide_evdw>  (162) 
-20.5655

>  <r_i_glide_ecoul>  (162) 
-7.87

>  <r_i_glide_erotb>  (162) 
0.757751

>  <r_i_glide_esite>  (162) 
-0.301354

>  <r_i_glide_emodel>  (162) 
-35.2753

>  <r_i_glide_energy>  (162) 
-28.4355

>  <r_i_glide_einternal>  (162) 
1.01787

>  <r_i_glide_intrahb_reward>  (162) 
-0

>  <i_i_glide_confnum>  (162) 
5

>  <i_i_glide_posenum>  (162) 
38

>  <r_i_glide_eff_state_penalty>  (162) 
0

>  <ligand_id>  (162) 
50

>  <original_smiles>  (162) 
Cc1noc(Cn2cc([N+](=O)[O-])cn2)n1

>  <smiles>  (162) 
[H]c1nn(C([H])([H])c2nc(C([H])([H])[H])no2)c([H])c1[N+](=O)[O-]

$$$$
50:0:2
     RDKit          3D

 22 23  0  0  1  0  0  0  0  0999 V2000
   -0.0459   -8.6565    2.3127 C   0  0  0  0  0  0  0  0  0  0  0  0
    0.7914   -7.5738    1.7297 C   0  0  0  0  0  0  0  0  0  0  0  0
    0.2844   -6.6597    0.9091 N   0  0  0  0  0  0  0  0  0  0  0  0
    1.4055   -5.8956    0.5558 O   0  0  0  0  0  0  0  0  0  0  0  0
    2.4460   -6.3998    1.2690 C   0  0  0  0  0  0  0  0  0  0  0  0
    3.8069   -5.7811    1.1498 C   0  0  0  0  0  0  0  0  0  0  0  0
    3.8029   -4.5283    0.4190 N   0  0  0  0  0  0  0  0  0  0  0  0
    4.4060   -4.2436   -0.7900 C   0  0  0  0  0  0  0  0  0  0  0  0
    4.0897   -2.9444   -1.0567 C   0  0  0  0  0  0  0  0  0  0  0  0
    4.4836   -2.1634   -2.2323 N   0  0  0  0  0  0  0  0  0  0  0  0
    4.2734   -0.9564   -2.2071 O   0  0  0  0  0  0  0  0  0  0  0  0
    5.0218   -2.7544   -3.1624 O   0  0  0  0  0  0  0  0  0  0  0  0
    3.3050   -2.4913    0.0337 C   0  0  0  0  0  0  0  0  0  0  0  0
    3.1553   -3.4528    0.9339 N   0  0  0  0  0  0  0  0  0  0  0  0
    2.1166   -7.4520    2.0130 N   0  0  0  0  0  0  0  0  0  0  0  0
   -1.0095   -8.7204    1.8088 H   0  0  0  0  0  0  0  0  0  0  0  0
   -0.2260   -8.4629    3.3690 H   0  0  0  0  0  0  0  0  0  0  0  0
    0.4627   -9.6165    2.2093 H   0  0  0  0  0  0  0  0  0  0  0  0
    4.2110   -5.6056    2.1464 H   0  0  0  0  0  0  0  0  0  0  0  0
    4.4692   -6.4870    0.6467 H   0  0  0  0  0  0  0  0  0  0  0  0
    4.9741   -4.9730   -1.3502 H   0  0  0  0  0  0  0  0  0  0  0  0
    2.8447   -1.5265    0.1987 H   0  0  0  0  0  0  0  0  0  0  0  0
  1  2  1  0
  1 16  1  0
  1 17  1  0
  1 18  1  0
  2 15  1  0
  2  3  2  0
  3  4  1  0
  4  5  1  0
  5  6  1  0
  5 15  2  0
  6  7  1  0
  6 19  1  0
  6 20  1  0
  7 14  1  0
  7  8  1  0
  8  9  2  0
  8 21  1  0
  9 10  1  0
  9 13  1  0
 10 11  2  0
 10 12  1  0
 13 14  2  0
 13 22  1  0
M  CHG  2  10   1  12  -1
M  END
>  <i_m_ct_stereo_status>  (163) 
1

>  <s_m_source_file>  (163) 
/var/tmp/pbs.5076255.sched01/tmpe2rv0q7i/42k21vmx8r.sdf

>  <i_m_source_file_index>  (163) 
32

>  <i_lp_mmshare_version>  (163) 
48012

>  <i_f3d_flags>  (163) 
0

>  <s_epik_input>  (163) 
W0NIM11jMW5vYyhuMSlbQ0gyXW4yW2NIXWMoW04rXSg9TylbTy1dKVtjSF1uMg==

>  <s_epik_cmdline>  (163) 
J2VwaWtfcHl0aG9uJywgJy1waHQnLCAnMi4wJywgJy1waCcsICc3LjAnLCAnLXRuJywgJzgnLCAnLW1hJywgJzIwMCcsICctaW1hZScsICc8aW5maWxlLm1hZT4nLCAnLW9tYWUnLCAnPG91dGZpbGUubWFlPic=

>  <r_lp_tautomer_probability>  (163) 
1

>  <r_epik_Ionization_Penalty>  (163) 
3.77864e-11

>  <r_epik_Ionization_Penalty_Charging>  (163) 
0

>  <r_epik_Ionization_Penalty_Neutral>  (163) 
3.77864e-11

>  <r_epik_State_Penalty>  (163) 
-0

>  <r_epik_Charging_Adjusted_Penalty>  (163) 
0

>  <i_epik_Tot_Q>  (163) 
0

>  <i_epik_Tot_abs_Q>  (163) 
2

>  <s_lp_Force_Field>  (163) 
OPLS3e

>  <r_lp_Energy>  (163) 
-2.88935

>  <b_lp_Chiralities_Consistent>  (163) 
1

>  <s_lp_Variant>  (163) 
50:0-1

>  <s_i_glide_gridfile>  (163) 
pfpi4k_grid

>  <i_i_glide_lignum>  (163) 
32

>  <i_i_glide_rotatable_bonds>  (163) 
3

>  <r_i_docking_score>  (163) 
-3.49522

>  <r_i_glide_ligand_efficiency>  (163) 
-0.233015

>  <r_i_glide_ligand_efficiency_sa>  (163) 
-0.574664

>  <r_i_glide_ligand_efficiency_ln>  (163) 
-0.942604

>  <r_i_glide_gscore>  (163) 
-3.49522

>  <r_i_glide_lipo>  (163) 
-0.0372714

>  <r_i_glide_hbond>  (163) 
0

>  <r_i_glide_metal>  (163) 
-0

>  <r_i_glide_rewards>  (163) 
-2.01489

>  <r_i_glide_evdw>  (163) 
-20.9751

>  <r_i_glide_ecoul>  (163) 
-5.83089

>  <r_i_glide_erotb>  (163) 
0.757751

>  <r_i_glide_esite>  (163) 
-0.277432

>  <r_i_glide_emodel>  (163) 
-32.9204

>  <r_i_glide_energy>  (163) 
-26.806

>  <r_i_glide_einternal>  (163) 
0.982833

>  <r_i_glide_intrahb_reward>  (163) 
-0

>  <i_i_glide_confnum>  (163) 
5

>  <i_i_glide_posenum>  (163) 
1

>  <r_i_glide_eff_state_penalty>  (163) 
0

>  <ligand_id>  (163) 
50

>  <original_smiles>  (163) 
Cc1noc(Cn2cc([N+](=O)[O-])cn2)n1

>  <smiles>  (163) 
[H]c1nn(C([H])([H])c2nc(C([H])([H])[H])no2)c([H])c1[N+](=O)[O-]

$$$$
51:0:0
     RDKit          3D

 41 43  0  0  1  0  0  0  0  0999 V2000
    6.8721   -4.0154    0.3767 C   0  0  0  0  0  0  0  0  0  0  0  0
    5.6337   -3.7281   -0.5072 C   0  0  2  0  0  0  0  0  0  0  0  0
    5.6425   -2.3781   -1.2516 C   0  0  2  0  0  0  0  0  0  0  0  0
    5.6707   -1.1430   -0.2597 C   0  0  0  0  0  0  0  0  0  0  0  0
    4.4241   -0.7427    0.6162 C   0  0  0  0  0  0  0  0  0  0  0  0
    3.9379   -1.6626    1.7799 C   0  0  0  0  0  0  0  0  0  0  0  0
    4.6185   -1.1901    3.0805 C   0  0  0  0  0  0  0  0  0  0  0  0
    2.4172   -1.5259    2.0185 C   0  0  0  0  0  0  0  0  0  0  0  0
    4.3484   -3.1073    1.5395 C   0  0  1  0  0  0  0  0  0  0  0  0
    3.5630   -4.3654    1.2354 C   0  0  0  0  0  0  0  0  0  0  0  0
    4.2535   -3.6460    0.1102 C   0  0  2  0  0  0  0  0  0  0  0  0
    3.3863   -3.0963   -1.0455 C   0  0  0  0  0  0  0  0  0  0  0  0
    4.3452   -2.4819   -2.0966 C   0  0  0  0  0  0  0  0  0  0  0  0
    3.8762   -1.1553   -2.7343 C   0  0  0  0  0  0  0  0  0  0  0  0
    4.5140   -3.4504   -3.2997 C   0  0  0  0  0  0  0  0  0  0  0  0
    7.1053   -3.2263    1.0903 H   0  0  0  0  0  0  0  0  0  0  0  0
    7.7518   -4.1353   -0.2548 H   0  0  0  0  0  0  0  0  0  0  0  0
    6.7420   -4.9456    0.9325 H   0  0  0  0  0  0  0  0  0  0  0  0
    5.6142   -4.5666   -1.2004 H   0  0  0  0  0  0  0  0  0  0  0  0
    6.5153   -2.3270   -1.9026 H   0  0  0  0  0  0  0  0  0  0  0  0
    6.5423   -1.2121    0.3914 H   0  0  0  0  0  0  0  0  0  0  0  0
    5.8562   -0.2658   -0.8754 H   0  0  0  0  0  0  0  0  0  0  0  0
    4.6489    0.2358    1.0383 H   0  0  0  0  0  0  0  0  0  0  0  0
    3.5666   -0.5259   -0.0112 H   0  0  0  0  0  0  0  0  0  0  0  0
    4.3518   -1.8347    3.9198 H   0  0  0  0  0  0  0  0  0  0  0  0
    4.3190   -0.1746    3.3409 H   0  0  0  0  0  0  0  0  0  0  0  0
    5.7049   -1.1988    2.9860 H   0  0  0  0  0  0  0  0  0  0  0  0
    2.0975   -2.1075    2.8836 H   0  0  0  0  0  0  0  0  0  0  0  0
    1.8201   -1.8622    1.1743 H   0  0  0  0  0  0  0  0  0  0  0  0
    2.1423   -0.4868    2.2012 H   0  0  0  0  0  0  0  0  0  0  0  0
    5.2119   -3.3685    2.1447 H   0  0  0  0  0  0  0  0  0  0  0  0
    3.9884   -5.3121    1.5592 H   0  0  0  0  0  0  0  0  0  0  0  0
    2.4800   -4.3059    1.2892 H   0  0  0  0  0  0  0  0  0  0  0  0
    2.7977   -3.9062   -1.4745 H   0  0  0  0  0  0  0  0  0  0  0  0
    2.6669   -2.3660   -0.6941 H   0  0  0  0  0  0  0  0  0  0  0  0
    2.8936   -1.2734   -3.1909 H   0  0  0  0  0  0  0  0  0  0  0  0
    4.5616   -0.8355   -3.5170 H   0  0  0  0  0  0  0  0  0  0  0  0
    3.8020   -0.3200   -2.0499 H   0  0  0  0  0  0  0  0  0  0  0  0
    3.6390   -3.4173   -3.9505 H   0  0  0  0  0  0  0  0  0  0  0  0
    4.6193   -4.4962   -3.0217 H   0  0  0  0  0  0  0  0  0  0  0  0
    5.3803   -3.1902   -3.9062 H   0  0  0  0  0  0  0  0  0  0  0  0
  1  2  1  0
  1 16  1  0
  1 17  1  0
  1 18  1  0
  2 11  1  0
  2  3  1  0
  2 19  1  6
  3 13  1  0
  3  4  1  0
  3 20  1  6
  4  5  1  0
  4 21  1  0
  4 22  1  0
  5  6  1  0
  5 23  1  0
  5 24  1  0
  6  7  1  0
  6  8  1  0
  6  9  1  0
  7 25  1  0
  7 26  1  0
  7 27  1  0
  8 28  1  0
  8 29  1  0
  8 30  1  0
  9 11  1  0
  9 10  1  0
  9 31  1  1
 11 10  1  1
 10 32  1  0
 10 33  1  0
 11 12  1  0
 12 13  1  0
 12 34  1  0
 12 35  1  0
 13 14  1  0
 13 15  1  0
 14 36  1  0
 14 37  1  0
 14 38  1  0
 15 39  1  0
 15 40  1  0
 15 41  1  0
M  END
>  <i_m_ct_stereo_status>  (164) 
1

>  <s_m_source_file>  (164) 
/var/tmp/pbs.5076255.sched01/tmpe2rv0q7i/42k21vmx8r.sdf

>  <i_m_source_file_index>  (164) 
33

>  <i_lp_mmshare_version>  (164) 
48012

>  <i_f3d_flags>  (164) 
0

>  <s_epik_input>  (164) 
W0NIM11bQ0BASF0xW0NAQEhdKEMoW0NIMl0yKShbQ0gzXSlbQ0gzXSlbQ0gyXVtDSDJdQyhbQ0gzXSkoW0NIM10pW0NASF0oW0NAXTEyMylbQ0gyXTM=

>  <s_epik_cmdline>  (164) 
J2VwaWtfcHl0aG9uJywgJy1waHQnLCAnMi4wJywgJy1waCcsICc3LjAnLCAnLXRuJywgJzgnLCAnLW1hJywgJzIwMCcsICctaW1hZScsICc8aW5maWxlLm1hZT4nLCAnLW9tYWUnLCAnPG91dGZpbGUubWFlPic=

>  <r_lp_tautomer_probability>  (164) 
1

>  <r_epik_Ionization_Penalty>  (164) 
0

>  <r_epik_Ionization_Penalty_Charging>  (164) 
0

>  <r_epik_Ionization_Penalty_Neutral>  (164) 
0

>  <r_epik_State_Penalty>  (164) 
-0

>  <r_epik_Charging_Adjusted_Penalty>  (164) 
0

>  <i_epik_Tot_Q>  (164) 
0

>  <i_epik_Tot_abs_Q>  (164) 
0

>  <s_lp_Force_Field>  (164) 
OPLS3e

>  <r_lp_Energy>  (164) 
57.178

>  <b_lp_Chiralities_Consistent>  (164) 
1

>  <s_lp_Variant>  (164) 
51:0-1

>  <s_i_glide_gridfile>  (164) 
pfpi4k_grid

>  <i_i_glide_lignum>  (164) 
33

>  <i_i_glide_rotatable_bonds>  (164) 
0

>  <r_i_docking_score>  (164) 
-3.68748

>  <r_i_glide_ligand_efficiency>  (164) 
-0.245832

>  <r_i_glide_ligand_efficiency_sa>  (164) 
-0.606273

>  <r_i_glide_ligand_efficiency_ln>  (164) 
-0.994452

>  <r_i_glide_gscore>  (164) 
-3.68748

>  <r_i_glide_lipo>  (164) 
-0.52199

>  <r_i_glide_hbond>  (164) 
0

>  <r_i_glide_metal>  (164) 
-0

>  <r_i_glide_rewards>  (164) 
-2.00204

>  <r_i_glide_evdw>  (164) 
-22.549

>  <r_i_glide_ecoul>  (164) 
-0.239968

>  <r_i_glide_erotb>  (164) 
0

>  <r_i_glide_esite>  (164) 
0

>  <r_i_glide_emodel>  (164) 
-27.7989

>  <r_i_glide_energy>  (164) 
-22.7889

>  <r_i_glide_einternal>  (164) 
0

>  <r_i_glide_intrahb_reward>  (164) 
-0

>  <i_i_glide_confnum>  (164) 
2

>  <i_i_glide_posenum>  (164) 
11

>  <r_i_glide_eff_state_penalty>  (164) 
0

>  <ligand_id>  (164) 
51

>  <original_smiles>  (164) 
CC1C2CCC(C)(C)C3CC13CC2(C)C

>  <smiles>  (164) 
[H]C([H])([H])C1([H])C2([H])C([H])([H])C([H])([H])C(C([H])([H])[H])(C([H])([H])[H])C3([H])C([H])([H])C13C([H])([H])C2(C([H])([H])[H])C([H])([H])[H]

$$$$
51:0:1
     RDKit          3D

 41 43  0  0  1  0  0  0  0  0999 V2000
    7.6200   -2.2708    0.1897 C   0  0  0  0  0  0  0  0  0  0  0  0
    6.3819   -2.8699   -0.5156 C   0  0  2  0  0  0  0  0  0  0  0  0
    5.4449   -1.8619   -1.2110 C   0  0  2  0  0  0  0  0  0  0  0  0
    4.8137   -0.8263   -0.1971 C   0  0  0  0  0  0  0  0  0  0  0  0
    3.7013   -1.2412    0.8394 C   0  0  0  0  0  0  0  0  0  0  0  0
    4.0400   -2.1973    2.0272 C   0  0  0  0  0  0  0  0  0  0  0  0
    4.4177   -1.3299    3.2456 C   0  0  0  0  0  0  0  0  0  0  0  0
    2.8111   -3.0319    2.4560 C   0  0  0  0  0  0  0  0  0  0  0  0
    5.2404   -3.0732    1.6984 C   0  0  1  0  0  0  0  0  0  0  0  0
    5.3960   -4.5605    1.4634 C   0  0  0  0  0  0  0  0  0  0  0  0
    5.3436   -3.6348    0.2801 C   0  0  2  0  0  0  0  0  0  0  0  0
    4.1969   -3.8260   -0.7351 C   0  0  0  0  0  0  0  0  0  0  0  0
    4.4131   -2.8066   -1.8803 C   0  0  0  0  0  0  0  0  0  0  0  0
    3.1445   -2.1150   -2.4230 C   0  0  0  0  0  0  0  0  0  0  0  0
    5.0037   -3.5182   -3.1228 C   0  0  0  0  0  0  0  0  0  0  0  0
    7.3885   -1.4615    0.8805 H   0  0  0  0  0  0  0  0  0  0  0  0
    8.3144   -1.8671   -0.5463 H   0  0  0  0  0  0  0  0  0  0  0  0
    8.1548   -3.0430    0.7449 H   0  0  0  0  0  0  0  0  0  0  0  0
    6.8116   -3.5674   -1.2298 H   0  0  0  0  0  0  0  0  0  0  0  0
    5.9931   -1.3095   -1.9699 H   0  0  0  0  0  0  0  0  0  0  0  0
    5.6039   -0.2975    0.3368 H   0  0  0  0  0  0  0  0  0  0  0  0
    4.3558   -0.0611   -0.8179 H   0  0  0  0  0  0  0  0  0  0  0  0
    3.3116   -0.3147    1.2585 H   0  0  0  0  0  0  0  0  0  0  0  0
    2.8298   -1.6386    0.3302 H   0  0  0  0  0  0  0  0  0  0  0  0
    4.7177   -1.9494    4.0930 H   0  0  0  0  0  0  0  0  0  0  0  0
    3.5803   -0.7130    3.5720 H   0  0  0  0  0  0  0  0  0  0  0  0
    5.2475   -0.6612    3.0142 H   0  0  0  0  0  0  0  0  0  0  0  0
    3.0342   -3.6334    3.3381 H   0  0  0  0  0  0  0  0  0  0  0  0
    2.4617   -3.7180    1.6883 H   0  0  0  0  0  0  0  0  0  0  0  0
    1.9704   -2.3847    2.7071 H   0  0  0  0  0  0  0  0  0  0  0  0
    6.1388   -2.6951    2.1787 H   0  0  0  0  0  0  0  0  0  0  0  0
    6.3567   -5.0098    1.7043 H   0  0  0  0  0  0  0  0  0  0  0  0
    4.5321   -5.1920    1.6527 H   0  0  0  0  0  0  0  0  0  0  0  0
    4.2253   -4.8493   -1.1072 H   0  0  0  0  0  0  0  0  0  0  0  0
    3.2244   -3.6940   -0.2758 H   0  0  0  0  0  0  0  0  0  0  0  0
    2.4162   -2.8499   -2.7665 H   0  0  0  0  0  0  0  0  0  0  0  0
    3.3805   -1.4745   -3.2716 H   0  0  0  0  0  0  0  0  0  0  0  0
    2.6282   -1.4825   -1.7138 H   0  0  0  0  0  0  0  0  0  0  0  0
    4.2348   -4.0878   -3.6478 H   0  0  0  0  0  0  0  0  0  0  0  0
    5.7833   -4.2399   -2.8966 H   0  0  0  0  0  0  0  0  0  0  0  0
    5.4120   -2.7985   -3.8287 H   0  0  0  0  0  0  0  0  0  0  0  0
  1  2  1  0
  1 16  1  0
  1 17  1  0
  1 18  1  0
  2 11  1  0
  2  3  1  0
  2 19  1  6
  3 13  1  0
  3  4  1  0
  3 20  1  6
  4  5  1  0
  4 21  1  0
  4 22  1  0
  5  6  1  0
  5 23  1  0
  5 24  1  0
  6  7  1  0
  6  8  1  0
  6  9  1  0
  7 25  1  0
  7 26  1  0
  7 27  1  0
  8 28  1  0
  8 29  1  0
  8 30  1  0
  9 11  1  0
  9 10  1  0
  9 31  1  1
 11 10  1  1
 10 32  1  0
 10 33  1  0
 11 12  1  0
 12 13  1  0
 12 34  1  0
 12 35  1  0
 13 14  1  0
 13 15  1  0
 14 36  1  0
 14 37  1  0
 14 38  1  0
 15 39  1  0
 15 40  1  0
 15 41  1  0
M  END
>  <i_m_ct_stereo_status>  (165) 
1

>  <s_m_source_file>  (165) 
/var/tmp/pbs.5076255.sched01/tmpe2rv0q7i/42k21vmx8r.sdf

>  <i_m_source_file_index>  (165) 
33

>  <i_lp_mmshare_version>  (165) 
48012

>  <i_f3d_flags>  (165) 
0

>  <s_epik_input>  (165) 
W0NIM11bQ0BASF0xW0NAQEhdKEMoW0NIMl0yKShbQ0gzXSlbQ0gzXSlbQ0gyXVtDSDJdQyhbQ0gzXSkoW0NIM10pW0NASF0oW0NAXTEyMylbQ0gyXTM=

>  <s_epik_cmdline>  (165) 
J2VwaWtfcHl0aG9uJywgJy1waHQnLCAnMi4wJywgJy1waCcsICc3LjAnLCAnLXRuJywgJzgnLCAnLW1hJywgJzIwMCcsICctaW1hZScsICc8aW5maWxlLm1hZT4nLCAnLW9tYWUnLCAnPG91dGZpbGUubWFlPic=

>  <r_lp_tautomer_probability>  (165) 
1

>  <r_epik_Ionization_Penalty>  (165) 
0

>  <r_epik_Ionization_Penalty_Charging>  (165) 
0

>  <r_epik_Ionization_Penalty_Neutral>  (165) 
0

>  <r_epik_State_Penalty>  (165) 
-0

>  <r_epik_Charging_Adjusted_Penalty>  (165) 
0

>  <i_epik_Tot_Q>  (165) 
0

>  <i_epik_Tot_abs_Q>  (165) 
0

>  <s_lp_Force_Field>  (165) 
OPLS3e

>  <r_lp_Energy>  (165) 
57.178

>  <b_lp_Chiralities_Consistent>  (165) 
1

>  <s_lp_Variant>  (165) 
51:0-1

>  <s_i_glide_gridfile>  (165) 
pfpi4k_grid

>  <i_i_glide_lignum>  (165) 
33

>  <i_i_glide_rotatable_bonds>  (165) 
0

>  <r_i_docking_score>  (165) 
-3.52167

>  <r_i_glide_ligand_efficiency>  (165) 
-0.234778

>  <r_i_glide_ligand_efficiency_sa>  (165) 
-0.579012

>  <r_i_glide_ligand_efficiency_ln>  (165) 
-0.949736

>  <r_i_glide_gscore>  (165) 
-3.52167

>  <r_i_glide_lipo>  (165) 
-0.447541

>  <r_i_glide_hbond>  (165) 
0

>  <r_i_glide_metal>  (165) 
-0

>  <r_i_glide_rewards>  (165) 
-2.00204

>  <r_i_glide_evdw>  (165) 
-20.4896

>  <r_i_glide_ecoul>  (165) 
-0.317361

>  <r_i_glide_erotb>  (165) 
0

>  <r_i_glide_esite>  (165) 
0

>  <r_i_glide_emodel>  (165) 
-25.5931

>  <r_i_glide_energy>  (165) 
-20.807

>  <r_i_glide_einternal>  (165) 
0

>  <r_i_glide_intrahb_reward>  (165) 
-0

>  <i_i_glide_confnum>  (165) 
2

>  <i_i_glide_posenum>  (165) 
13

>  <r_i_glide_eff_state_penalty>  (165) 
0

>  <ligand_id>  (165) 
51

>  <original_smiles>  (165) 
CC1C2CCC(C)(C)C3CC13CC2(C)C

>  <smiles>  (165) 
[H]C([H])([H])C1([H])C2([H])C([H])([H])C([H])([H])C(C([H])([H])[H])(C([H])([H])[H])C3([H])C([H])([H])C13C([H])([H])C2(C([H])([H])[H])C([H])([H])[H]

$$$$
52:0:0
     RDKit          3D

 14 15  0  0  1  0  0  0  0  0999 V2000
   -1.3851    4.8828    3.9282 O   0  0  0  0  0  0  0  0  0  0  0  0
   -1.2270    3.6665    3.8910 C   0  0  0  0  0  0  0  0  0  0  0  0
   -0.7488    2.9338    2.8820 N   0  0  0  0  0  0  0  0  0  0  0  0
   -0.6950    1.5936    3.1281 N   0  0  0  0  0  0  0  0  0  0  0  0
   -1.1586    1.5359    4.3267 C   0  0  0  0  0  0  0  0  0  0  0  0
   -1.3859    0.3854    5.2718 C   0  0  0  0  0  0  0  0  0  0  0  0
   -1.8622    0.5523    6.4576 N   0  0  0  0  0  0  0  0  0  0  0  0
   -2.1848    1.8555    6.9051 C   0  0  0  0  0  0  0  0  0  0  0  0
   -2.0140    2.9500    6.1213 C   0  0  0  0  0  0  0  0  0  0  0  0
   -1.4979    2.7718    4.8313 N   0  0  0  0  0  0  0  0  0  0  0  0
   -0.4277    3.3167    1.9845 H   0  0  0  0  0  0  0  0  0  0  0  0
   -1.1196   -0.5987    4.8757 H   0  0  0  0  0  0  0  0  0  0  0  0
   -2.5836    1.9337    7.9068 H   0  0  0  0  0  0  0  0  0  0  0  0
   -2.2420    3.9665    6.4048 H   0  0  0  0  0  0  0  0  0  0  0  0
  1  2  2  0
  2 10  1  0
  2  3  1  0
  3 11  1  0
  3  4  1  0
  4  5  2  0
  5 10  1  0
  5  6  1  0
  6  7  2  0
  6 12  1  0
  7  8  1  0
  8  9  2  0
  8 13  1  0
  9 10  1  0
  9 14  1  0
M  END
>  <i_m_ct_stereo_status>  (166) 
1

>  <s_m_source_file>  (166) 
/var/tmp/pbs.5076255.sched01/tmpe2rv0q7i/42k21vmx8r.sdf

>  <i_m_source_file_index>  (166) 
34

>  <i_lp_mmshare_version>  (166) 
48012

>  <i_f3d_flags>  (166) 
0

>  <s_epik_input>  (166) 
bjFbbkhdYyg9TyluKGMxMilbY0hdW2NIXW5bY0hdMg==

>  <s_epik_cmdline>  (166) 
J2VwaWtfcHl0aG9uJywgJy1waHQnLCAnMi4wJywgJy1waCcsICc3LjAnLCAnLXRuJywgJzgnLCAnLW1hJywgJzIwMCcsICctaW1hZScsICc8aW5maWxlLm1hZT4nLCAnLW9tYWUnLCAnPG91dGZpbGUubWFlPic=

>  <r_lp_tautomer_probability>  (166) 
1

>  <r_epik_Ionization_Penalty>  (166) 
0.00127685

>  <r_epik_Ionization_Penalty_Charging>  (166) 
0.00127668

>  <r_epik_Ionization_Penalty_Neutral>  (166) 
1.69409e-07

>  <r_epik_State_Penalty>  (166) 
-0

>  <r_epik_Charging_Adjusted_Penalty>  (166) 
0.00127668

>  <i_epik_Tot_Q>  (166) 
0

>  <i_epik_Tot_abs_Q>  (166) 
0

>  <s_lp_Force_Field>  (166) 
OPLS3e

>  <r_lp_Energy>  (166) 
33.5113

>  <b_lp_Chiralities_Consistent>  (166) 
1

>  <s_lp_Variant>  (166) 
52:0-1

>  <s_i_glide_gridfile>  (166) 
pfpi4k_grid

>  <i_i_glide_lignum>  (166) 
34

>  <i_i_glide_rotatable_bonds>  (166) 
0

>  <r_i_docking_score>  (166) 
-4.9255

>  <r_i_glide_ligand_efficiency>  (166) 
-0.49255

>  <r_i_glide_ligand_efficiency_sa>  (166) 
-1.06117

>  <r_i_glide_ligand_efficiency_ln>  (166) 
-1.49141

>  <r_i_glide_gscore>  (166) 
-4.9255

>  <r_i_glide_lipo>  (166) 
-0.0661899

>  <r_i_glide_hbond>  (166) 
-0.459292

>  <r_i_glide_metal>  (166) 
-0

>  <r_i_glide_rewards>  (166) 
-2.25

>  <r_i_glide_evdw>  (166) 
-11.5478

>  <r_i_glide_ecoul>  (166) 
-9.16977

>  <r_i_glide_erotb>  (166) 
0

>  <r_i_glide_esite>  (166) 
-0.197157

>  <r_i_glide_emodel>  (166) 
-28.4265

>  <r_i_glide_energy>  (166) 
-20.7176

>  <r_i_glide_einternal>  (166) 
0

>  <r_i_glide_intrahb_reward>  (166) 
-0

>  <i_i_glide_confnum>  (166) 
2

>  <i_i_glide_posenum>  (166) 
37

>  <r_i_glide_eff_state_penalty>  (166) 
0

>  <ligand_id>  (166) 
52

>  <original_smiles>  (166) 
O=c1[nH]nc2cnccn12

>  <smiles>  (166) 
[H]c1nc([H])c2nn([H])c(=O)n2c1[H]

$$$$
52:0:1
     RDKit          3D

 14 15  0  0  1  0  0  0  0  0999 V2000
    2.2233   -4.5075   -0.1235 O   0  0  0  0  0  0  0  0  0  0  0  0
    2.9889   -3.5668   -0.3359 C   0  0  0  0  0  0  0  0  0  0  0  0
    3.7980   -2.9623    0.5405 N   0  0  0  0  0  0  0  0  0  0  0  0
    4.5110   -1.9187    0.0305 N   0  0  0  0  0  0  0  0  0  0  0  0
    4.1153   -1.9161   -1.1932 C   0  0  0  0  0  0  0  0  0  0  0  0
    4.4735   -1.0534   -2.3671 C   0  0  0  0  0  0  0  0  0  0  0  0
    3.9626   -1.2278   -3.5334 N   0  0  0  0  0  0  0  0  0  0  0  0
    3.0100   -2.2496   -3.7247 C   0  0  0  0  0  0  0  0  0  0  0  0
    2.6176   -3.0665   -2.7208 C   0  0  0  0  0  0  0  0  0  0  0  0
    3.1957   -2.8993   -1.4609 N   0  0  0  0  0  0  0  0  0  0  0  0
    3.8884   -3.2066    1.5156 H   0  0  0  0  0  0  0  0  0  0  0  0
    5.2013   -0.2639   -2.1650 H   0  0  0  0  0  0  0  0  0  0  0  0
    2.6067   -2.3489   -4.7130 H   0  0  0  0  0  0  0  0  0  0  0  0
    1.8960   -3.8704   -2.8167 H   0  0  0  0  0  0  0  0  0  0  0  0
  1  2  2  0
  2 10  1  0
  2  3  1  0
  3 11  1  0
  3  4  1  0
  4  5  2  0
  5 10  1  0
  5  6  1  0
  6  7  2  0
  6 12  1  0
  7  8  1  0
  8  9  2  0
  8 13  1  0
  9 10  1  0
  9 14  1  0
M  END
>  <i_m_ct_stereo_status>  (167) 
1

>  <s_m_source_file>  (167) 
/var/tmp/pbs.5076255.sched01/tmpe2rv0q7i/42k21vmx8r.sdf

>  <i_m_source_file_index>  (167) 
34

>  <i_lp_mmshare_version>  (167) 
48012

>  <i_f3d_flags>  (167) 
0

>  <s_epik_input>  (167) 
bjFbbkhdYyg9TyluKGMxMilbY0hdW2NIXW5bY0hdMg==

>  <s_epik_cmdline>  (167) 
J2VwaWtfcHl0aG9uJywgJy1waHQnLCAnMi4wJywgJy1waCcsICc3LjAnLCAnLXRuJywgJzgnLCAnLW1hJywgJzIwMCcsICctaW1hZScsICc8aW5maWxlLm1hZT4nLCAnLW9tYWUnLCAnPG91dGZpbGUubWFlPic=

>  <r_lp_tautomer_probability>  (167) 
1

>  <r_epik_Ionization_Penalty>  (167) 
0.00127685

>  <r_epik_Ionization_Penalty_Charging>  (167) 
0.00127668

>  <r_epik_Ionization_Penalty_Neutral>  (167) 
1.69409e-07

>  <r_epik_State_Penalty>  (167) 
-0

>  <r_epik_Charging_Adjusted_Penalty>  (167) 
0.00127668

>  <i_epik_Tot_Q>  (167) 
0

>  <i_epik_Tot_abs_Q>  (167) 
0

>  <s_lp_Force_Field>  (167) 
OPLS3e

>  <r_lp_Energy>  (167) 
33.5113

>  <b_lp_Chiralities_Consistent>  (167) 
1

>  <s_lp_Variant>  (167) 
52:0-1

>  <s_i_glide_gridfile>  (167) 
pfpi4k_grid

>  <i_i_glide_lignum>  (167) 
34

>  <i_i_glide_rotatable_bonds>  (167) 
0

>  <r_i_docking_score>  (167) 
-3.87144

>  <r_i_glide_ligand_efficiency>  (167) 
-0.387144

>  <r_i_glide_ligand_efficiency_sa>  (167) 
-0.834077

>  <r_i_glide_ligand_efficiency_ln>  (167) 
-1.17225

>  <r_i_glide_gscore>  (167) 
-3.87144

>  <r_i_glide_lipo>  (167) 
-0.235818

>  <r_i_glide_hbond>  (167) 
-0.000900429

>  <r_i_glide_metal>  (167) 
-0

>  <r_i_glide_rewards>  (167) 
-2.25

>  <r_i_glide_evdw>  (167) 
-18.3799

>  <r_i_glide_ecoul>  (167) 
-2.71444

>  <r_i_glide_erotb>  (167) 
0

>  <r_i_glide_esite>  (167) 
-0.0585596

>  <r_i_glide_emodel>  (167) 
-27.153

>  <r_i_glide_energy>  (167) 
-21.0944

>  <r_i_glide_einternal>  (167) 
0

>  <r_i_glide_intrahb_reward>  (167) 
-0

>  <i_i_glide_confnum>  (167) 
1

>  <i_i_glide_posenum>  (167) 
2

>  <r_i_glide_eff_state_penalty>  (167) 
0

>  <ligand_id>  (167) 
52

>  <original_smiles>  (167) 
O=c1[nH]nc2cnccn12

>  <smiles>  (167) 
[H]c1nc([H])c2nn([H])c(=O)n2c1[H]

$$$$
52:0:2
     RDKit          3D

 14 15  0  0  1  0  0  0  0  0999 V2000
   -1.4109   -0.7607    6.0668 O   0  0  0  0  0  0  0  0  0  0  0  0
   -1.1704    0.0169    5.1428 C   0  0  0  0  0  0  0  0  0  0  0  0
   -0.5964   -0.2465    3.9651 N   0  0  0  0  0  0  0  0  0  0  0  0
   -0.4949    0.8260    3.1302 N   0  0  0  0  0  0  0  0  0  0  0  0
   -1.0132    1.7609    3.8469 C   0  0  0  0  0  0  0  0  0  0  0  0
   -1.2430    3.2256    3.6019 C   0  0  0  0  0  0  0  0  0  0  0  0
   -1.7889    3.9891    4.4828 N   0  0  0  0  0  0  0  0  0  0  0  0
   -2.1872    3.4504    5.7278 C   0  0  0  0  0  0  0  0  0  0  0  0
   -2.0194    2.1441    6.0316 C   0  0  0  0  0  0  0  0  0  0  0  0
   -1.4307    1.3117    5.0777 N   0  0  0  0  0  0  0  0  0  0  0  0
   -0.2625   -1.1482    3.6539 H   0  0  0  0  0  0  0  0  0  0  0  0
   -0.9173    3.5956    2.6258 H   0  0  0  0  0  0  0  0  0  0  0  0
   -2.6463    4.1332    6.4269 H   0  0  0  0  0  0  0  0  0  0  0  0
   -2.3181    1.6800    6.9636 H   0  0  0  0  0  0  0  0  0  0  0  0
  1  2  2  0
  2 10  1  0
  2  3  1  0
  3 11  1  0
  3  4  1  0
  4  5  2  0
  5 10  1  0
  5  6  1  0
  6  7  2  0
  6 12  1  0
  7  8  1  0
  8  9  2  0
  8 13  1  0
  9 10  1  0
  9 14  1  0
M  END
>  <i_m_ct_stereo_status>  (168) 
1

>  <s_m_source_file>  (168) 
/var/tmp/pbs.5076255.sched01/tmpe2rv0q7i/42k21vmx8r.sdf

>  <i_m_source_file_index>  (168) 
34

>  <i_lp_mmshare_version>  (168) 
48012

>  <i_f3d_flags>  (168) 
0

>  <s_epik_input>  (168) 
bjFbbkhdYyg9TyluKGMxMilbY0hdW2NIXW5bY0hdMg==

>  <s_epik_cmdline>  (168) 
J2VwaWtfcHl0aG9uJywgJy1waHQnLCAnMi4wJywgJy1waCcsICc3LjAnLCAnLXRuJywgJzgnLCAnLW1hJywgJzIwMCcsICctaW1hZScsICc8aW5maWxlLm1hZT4nLCAnLW9tYWUnLCAnPG91dGZpbGUubWFlPic=

>  <r_lp_tautomer_probability>  (168) 
1

>  <r_epik_Ionization_Penalty>  (168) 
0.00127685

>  <r_epik_Ionization_Penalty_Charging>  (168) 
0.00127668

>  <r_epik_Ionization_Penalty_Neutral>  (168) 
1.69409e-07

>  <r_epik_State_Penalty>  (168) 
-0

>  <r_epik_Charging_Adjusted_Penalty>  (168) 
0.00127668

>  <i_epik_Tot_Q>  (168) 
0

>  <i_epik_Tot_abs_Q>  (168) 
0

>  <s_lp_Force_Field>  (168) 
OPLS3e

>  <r_lp_Energy>  (168) 
33.5113

>  <b_lp_Chiralities_Consistent>  (168) 
1

>  <s_lp_Variant>  (168) 
52:0-1

>  <s_i_glide_gridfile>  (168) 
pfpi4k_grid

>  <i_i_glide_lignum>  (168) 
34

>  <i_i_glide_rotatable_bonds>  (168) 
0

>  <r_i_docking_score>  (168) 
-3.85289

>  <r_i_glide_ligand_efficiency>  (168) 
-0.385289

>  <r_i_glide_ligand_efficiency_sa>  (168) 
-0.830079

>  <r_i_glide_ligand_efficiency_ln>  (168) 
-1.16663

>  <r_i_glide_gscore>  (168) 
-3.85289

>  <r_i_glide_lipo>  (168) 
-0.00162222

>  <r_i_glide_hbond>  (168) 
-0.0765236

>  <r_i_glide_metal>  (168) 
-0

>  <r_i_glide_rewards>  (168) 
-2.25

>  <r_i_glide_evdw>  (168) 
-13.1099

>  <r_i_glide_ecoul>  (168) 
-5.07637

>  <r_i_glide_erotb>  (168) 
0

>  <r_i_glide_esite>  (168) 
-0.107791

>  <r_i_glide_emodel>  (168) 
-24.2154

>  <r_i_glide_energy>  (168) 
-18.1863

>  <r_i_glide_einternal>  (168) 
0

>  <r_i_glide_intrahb_reward>  (168) 
-0

>  <i_i_glide_confnum>  (168) 
1

>  <i_i_glide_posenum>  (168) 
8

>  <r_i_glide_eff_state_penalty>  (168) 
0

>  <ligand_id>  (168) 
52

>  <original_smiles>  (168) 
O=c1[nH]nc2cnccn12

>  <smiles>  (168) 
[H]c1nc([H])c2nn([H])c(=O)n2c1[H]

$$$$
53:0:0
     RDKit          3D

 12 13  0  0  1  0  0  0  0  0999 V2000
    1.9786   -6.7373    1.2815 C   0  0  0  0  0  0  0  0  0  0  0  0
    2.4910   -7.9468    1.7061 N   0  0  0  0  0  0  0  0  0  0  0  0
    1.7117   -8.7790    2.3351 C   0  0  0  0  0  0  0  0  0  0  0  0
    0.4180   -8.4473    2.5723 N   0  0  0  0  0  0  0  0  0  0  0  0
   -0.6168   -9.0687    3.1979 C   0  0  0  0  0  0  0  0  0  0  0  0
   -1.6962   -8.2815    3.1533 N   0  0  0  0  0  0  0  0  0  0  0  0
   -1.3517   -7.1124    2.4856 N   0  0  0  0  0  0  0  0  0  0  0  0
   -0.0726   -7.2222    2.1226 C   0  0  0  0  0  0  0  0  0  0  0  0
    0.7121   -6.3577    1.4610 N   0  0  0  0  0  0  0  0  0  0  0  0
    2.6574   -6.0808    0.7457 H   0  0  0  0  0  0  0  0  0  0  0  0
    2.0538   -9.7452    2.6984 H   0  0  0  0  0  0  0  0  0  0  0  0
   -0.5840  -10.0442    3.6659 H   0  0  0  0  0  0  0  0  0  0  0  0
  1  9  2  0
  1  2  1  0
  1 10  1  0
  2  3  2  0
  3  4  1  0
  3 11  1  0
  4  8  1  0
  4  5  1  0
  5  6  2  0
  5 12  1  0
  6  7  1  0
  7  8  2  0
  8  9  1  0
M  END
>  <i_m_ct_stereo_status>  (169) 
1

>  <s_m_source_file>  (169) 
/var/tmp/pbs.5076255.sched01/tmpe2rv0q7i/42k21vmx8r.sdf

>  <i_m_source_file_index>  (169) 
35

>  <i_lp_mmshare_version>  (169) 
48012

>  <i_f3d_flags>  (169) 
0

>  <s_epik_input>  (169) 
W2NIXTFuW2NIXW5jKG4xMilubltjSF0y

>  <s_epik_cmdline>  (169) 
J2VwaWtfcHl0aG9uJywgJy1waHQnLCAnMi4wJywgJy1waCcsICc3LjAnLCAnLXRuJywgJzgnLCAnLW1hJywgJzIwMCcsICctaW1hZScsICc8aW5maWxlLm1hZT4nLCAnLW9tYWUnLCAnPG91dGZpbGUubWFlPic=

>  <r_lp_tautomer_probability>  (169) 
1

>  <r_epik_Ionization_Penalty>  (169) 
1.00391e-08

>  <r_epik_Ionization_Penalty_Charging>  (169) 
0

>  <r_epik_Ionization_Penalty_Neutral>  (169) 
1.00391e-08

>  <r_epik_State_Penalty>  (169) 
-0

>  <r_epik_Charging_Adjusted_Penalty>  (169) 
0

>  <i_epik_Tot_Q>  (169) 
0

>  <i_epik_Tot_abs_Q>  (169) 
0

>  <s_lp_Force_Field>  (169) 
OPLS3e

>  <r_lp_Energy>  (169) 
13.6012

>  <b_lp_Chiralities_Consistent>  (169) 
1

>  <s_lp_Variant>  (169) 
53:0-1

>  <s_i_glide_gridfile>  (169) 
pfpi4k_grid

>  <i_i_glide_lignum>  (169) 
35

>  <i_i_glide_rotatable_bonds>  (169) 
0

>  <r_i_docking_score>  (169) 
-4.41641

>  <r_i_glide_ligand_efficiency>  (169) 
-0.490712

>  <r_i_glide_ligand_efficiency_sa>  (169) 
-1.02072

>  <r_i_glide_ligand_efficiency_ln>  (169) 
-1.38133

>  <r_i_glide_gscore>  (169) 
-4.41641

>  <r_i_glide_lipo>  (169) 
0

>  <r_i_glide_hbond>  (169) 
-0.16

>  <r_i_glide_metal>  (169) 
-0

>  <r_i_glide_rewards>  (169) 
-2.25

>  <r_i_glide_evdw>  (169) 
-13.6213

>  <r_i_glide_ecoul>  (169) 
-6.52874

>  <r_i_glide_erotb>  (169) 
0

>  <r_i_glide_esite>  (169) 
-0.346035

>  <r_i_glide_emodel>  (169) 
-27.5553

>  <r_i_glide_energy>  (169) 
-20.15

>  <r_i_glide_einternal>  (169) 
0

>  <r_i_glide_intrahb_reward>  (169) 
-0

>  <i_i_glide_confnum>  (169) 
1

>  <i_i_glide_posenum>  (169) 
23

>  <r_i_glide_eff_state_penalty>  (169) 
0

>  <ligand_id>  (169) 
53

>  <original_smiles>  (169) 
c1ncn2cnnc2n1

>  <smiles>  (169) 
[H]c1nc([H])n2c([H])nnc2n1

$$$$
53:0:1
     RDKit          3D

 12 13  0  0  1  0  0  0  0  0999 V2000
    2.2707   -9.4182    2.0714 C   0  0  0  0  0  0  0  0  0  0  0  0
    1.7155  -10.3823    2.8871 N   0  0  0  0  0  0  0  0  0  0  0  0
    0.5261  -10.1887    3.3779 C   0  0  0  0  0  0  0  0  0  0  0  0
   -0.1488   -9.0478    3.0860 N   0  0  0  0  0  0  0  0  0  0  0  0
   -1.3677   -8.5686    3.4397 C   0  0  0  0  0  0  0  0  0  0  0  0
   -1.5537   -7.3750    2.8794 N   0  0  0  0  0  0  0  0  0  0  0  0
   -0.4180   -7.0570    2.1400 N   0  0  0  0  0  0  0  0  0  0  0  0
    0.4369   -8.0802    2.2659 C   0  0  0  0  0  0  0  0  0  0  0  0
    1.6694   -8.2658    1.7684 N   0  0  0  0  0  0  0  0  0  0  0  0
    3.2604   -9.6232    1.6763 H   0  0  0  0  0  0  0  0  0  0  0  0
    0.0330  -10.9060    4.0299 H   0  0  0  0  0  0  0  0  0  0  0  0
   -2.0807   -9.0572    4.0892 H   0  0  0  0  0  0  0  0  0  0  0  0
  1  9  2  0
  1  2  1  0
  1 10  1  0
  2  3  2  0
  3  4  1  0
  3 11  1  0
  4  8  1  0
  4  5  1  0
  5  6  2  0
  5 12  1  0
  6  7  1  0
  7  8  2  0
  8  9  1  0
M  END
>  <i_m_ct_stereo_status>  (170) 
1

>  <s_m_source_file>  (170) 
/var/tmp/pbs.5076255.sched01/tmpe2rv0q7i/42k21vmx8r.sdf

>  <i_m_source_file_index>  (170) 
35

>  <i_lp_mmshare_version>  (170) 
48012

>  <i_f3d_flags>  (170) 
0

>  <s_epik_input>  (170) 
W2NIXTFuW2NIXW5jKG4xMilubltjSF0y

>  <s_epik_cmdline>  (170) 
J2VwaWtfcHl0aG9uJywgJy1waHQnLCAnMi4wJywgJy1waCcsICc3LjAnLCAnLXRuJywgJzgnLCAnLW1hJywgJzIwMCcsICctaW1hZScsICc8aW5maWxlLm1hZT4nLCAnLW9tYWUnLCAnPG91dGZpbGUubWFlPic=

>  <r_lp_tautomer_probability>  (170) 
1

>  <r_epik_Ionization_Penalty>  (170) 
1.00391e-08

>  <r_epik_Ionization_Penalty_Charging>  (170) 
0

>  <r_epik_Ionization_Penalty_Neutral>  (170) 
1.00391e-08

>  <r_epik_State_Penalty>  (170) 
-0

>  <r_epik_Charging_Adjusted_Penalty>  (170) 
0

>  <i_epik_Tot_Q>  (170) 
0

>  <i_epik_Tot_abs_Q>  (170) 
0

>  <s_lp_Force_Field>  (170) 
OPLS3e

>  <r_lp_Energy>  (170) 
13.6012

>  <b_lp_Chiralities_Consistent>  (170) 
1

>  <s_lp_Variant>  (170) 
53:0-1

>  <s_i_glide_gridfile>  (170) 
pfpi4k_grid

>  <i_i_glide_lignum>  (170) 
35

>  <i_i_glide_rotatable_bonds>  (170) 
0

>  <r_i_docking_score>  (170) 
-4.19661

>  <r_i_glide_ligand_efficiency>  (170) 
-0.466289

>  <r_i_glide_ligand_efficiency_sa>  (170) 
-0.969921

>  <r_i_glide_ligand_efficiency_ln>  (170) 
-1.31258

>  <r_i_glide_gscore>  (170) 
-4.19661

>  <r_i_glide_lipo>  (170) 
0

>  <r_i_glide_hbond>  (170) 
0

>  <r_i_glide_metal>  (170) 
-0

>  <r_i_glide_rewards>  (170) 
-2.32598

>  <r_i_glide_evdw>  (170) 
-15.811

>  <r_i_glide_ecoul>  (170) 
-4.86223

>  <r_i_glide_erotb>  (170) 
0

>  <r_i_glide_esite>  (170) 
-0.350737

>  <r_i_glide_emodel>  (170) 
-27.7107

>  <r_i_glide_energy>  (170) 
-20.6732

>  <r_i_glide_einternal>  (170) 
0

>  <r_i_glide_intrahb_reward>  (170) 
-0

>  <i_i_glide_confnum>  (170) 
1

>  <i_i_glide_posenum>  (170) 
7

>  <r_i_glide_eff_state_penalty>  (170) 
0

>  <ligand_id>  (170) 
53

>  <original_smiles>  (170) 
c1ncn2cnnc2n1

>  <smiles>  (170) 
[H]c1nc([H])n2c([H])nnc2n1

$$$$
53:0:2
     RDKit          3D

 12 13  0  0  1  0  0  0  0  0999 V2000
   -0.9580   -9.3595    2.8961 C   0  0  0  0  0  0  0  0  0  0  0  0
    0.2236  -10.0735    2.9270 N   0  0  0  0  0  0  0  0  0  0  0  0
    1.3203   -9.4988    2.5265 C   0  0  0  0  0  0  0  0  0  0  0  0
    1.2881   -8.2151    2.0860 N   0  0  0  0  0  0  0  0  0  0  0  0
    2.2338   -7.3615    1.6206 C   0  0  0  0  0  0  0  0  0  0  0  0
    1.6561   -6.2041    1.2891 N   0  0  0  0  0  0  0  0  0  0  0  0
    0.2976   -6.2967    1.5721 N   0  0  0  0  0  0  0  0  0  0  0  0
    0.0781   -7.5227    2.0555 C   0  0  0  0  0  0  0  0  0  0  0  0
   -1.0534   -8.0969    2.4809 N   0  0  0  0  0  0  0  0  0  0  0  0
   -1.8490   -9.8541    3.2642 H   0  0  0  0  0  0  0  0  0  0  0  0
    2.2854  -10.0000    2.5269 H   0  0  0  0  0  0  0  0  0  0  0  0
    3.2846   -7.5865    1.4984 H   0  0  0  0  0  0  0  0  0  0  0  0
  1  9  2  0
  1  2  1  0
  1 10  1  0
  2  3  2  0
  3  4  1  0
  3 11  1  0
  4  8  1  0
  4  5  1  0
  5  6  2  0
  5 12  1  0
  6  7  1  0
  7  8  2  0
  8  9  1  0
M  END
>  <i_m_ct_stereo_status>  (171) 
1

>  <s_m_source_file>  (171) 
/var/tmp/pbs.5076255.sched01/tmpe2rv0q7i/42k21vmx8r.sdf

>  <i_m_source_file_index>  (171) 
35

>  <i_lp_mmshare_version>  (171) 
48012

>  <i_f3d_flags>  (171) 
0

>  <s_epik_input>  (171) 
W2NIXTFuW2NIXW5jKG4xMilubltjSF0y

>  <s_epik_cmdline>  (171) 
J2VwaWtfcHl0aG9uJywgJy1waHQnLCAnMi4wJywgJy1waCcsICc3LjAnLCAnLXRuJywgJzgnLCAnLW1hJywgJzIwMCcsICctaW1hZScsICc8aW5maWxlLm1hZT4nLCAnLW9tYWUnLCAnPG91dGZpbGUubWFlPic=

>  <r_lp_tautomer_probability>  (171) 
1

>  <r_epik_Ionization_Penalty>  (171) 
1.00391e-08

>  <r_epik_Ionization_Penalty_Charging>  (171) 
0

>  <r_epik_Ionization_Penalty_Neutral>  (171) 
1.00391e-08

>  <r_epik_State_Penalty>  (171) 
-0

>  <r_epik_Charging_Adjusted_Penalty>  (171) 
0

>  <i_epik_Tot_Q>  (171) 
0

>  <i_epik_Tot_abs_Q>  (171) 
0

>  <s_lp_Force_Field>  (171) 
OPLS3e

>  <r_lp_Energy>  (171) 
13.6012

>  <b_lp_Chiralities_Consistent>  (171) 
1

>  <s_lp_Variant>  (171) 
53:0-1

>  <s_i_glide_gridfile>  (171) 
pfpi4k_grid

>  <i_i_glide_lignum>  (171) 
35

>  <i_i_glide_rotatable_bonds>  (171) 
0

>  <r_i_docking_score>  (171) 
-4.09119

>  <r_i_glide_ligand_efficiency>  (171) 
-0.454577

>  <r_i_glide_ligand_efficiency_sa>  (171) 
-0.945557

>  <r_i_glide_ligand_efficiency_ln>  (171) 
-1.27961

>  <r_i_glide_gscore>  (171) 
-4.09119

>  <r_i_glide_lipo>  (171) 
0

>  <r_i_glide_hbond>  (171) 
0

>  <r_i_glide_metal>  (171) 
-0

>  <r_i_glide_rewards>  (171) 
-2.36187

>  <r_i_glide_evdw>  (171) 
-13.7518

>  <r_i_glide_ecoul>  (171) 
-5.09257

>  <r_i_glide_erotb>  (171) 
0

>  <r_i_glide_esite>  (171) 
-0.277837

>  <r_i_glide_emodel>  (171) 
-25.7031

>  <r_i_glide_energy>  (171) 
-18.8444

>  <r_i_glide_einternal>  (171) 
0

>  <r_i_glide_intrahb_reward>  (171) 
-0

>  <i_i_glide_confnum>  (171) 
1

>  <i_i_glide_posenum>  (171) 
4

>  <r_i_glide_eff_state_penalty>  (171) 
0

>  <ligand_id>  (171) 
53

>  <original_smiles>  (171) 
c1ncn2cnnc2n1

>  <smiles>  (171) 
[H]c1nc([H])n2c([H])nnc2n1

$$$$
54:0:0
     RDKit          3D

 34 36  0  0  1  0  0  0  0  0999 V2000
    3.2832   -3.0765    2.7286 O   0  0  0  0  0  0  0  0  0  0  0  0
    2.9199   -4.0214    2.0399 C   0  0  0  0  0  0  0  0  0  0  0  0
    2.0544   -5.1499    2.4257 C   0  0  0  0  0  0  0  0  0  0  0  0
    1.4126   -5.4139    3.6566 C   0  0  0  0  0  0  0  0  0  0  0  0
    1.5454   -4.3669    5.0234 Cl  0  0  0  0  0  0  0  0  0  0  0  0
    0.6156   -6.5772    3.7543 C   0  0  0  0  0  0  0  0  0  0  0  0
    0.4652   -7.4446    2.6478 C   0  0  0  0  0  0  0  0  0  0  0  0
    1.1052   -7.1630    1.4268 C   0  0  0  0  0  0  0  0  0  0  0  0
    1.9016   -6.0046    1.3407 C   0  0  0  0  0  0  0  0  0  0  0  0
    2.6522   -5.5283    0.1234 C   0  0  0  0  0  0  0  0  0  0  0  0
    3.3094   -4.1941    0.5630 C   0  0  1  0  0  0  0  0  0  0  0  0
    2.8586   -2.9850   -0.2871 C   0  0  0  0  0  0  0  0  0  0  0  0
    3.7528   -2.6484   -1.3932 N   0  0  0  0  0  0  0  0  0  0  0  0
    3.8300   -3.7080   -2.3792 C   0  0  0  0  0  0  0  0  0  0  0  0
    4.7221   -3.3379   -3.5702 C   0  0  0  0  0  0  0  0  0  0  0  0
    4.2129   -2.1495   -4.1750 O   0  0  0  0  0  0  0  0  0  0  0  0
    4.1528   -1.0656   -3.2527 C   0  0  0  0  0  0  0  0  0  0  0  0
    3.2803   -1.4481   -2.0560 C   0  0  0  0  0  0  0  0  0  0  0  0
    0.1268   -6.8059    4.6875 H   0  0  0  0  0  0  0  0  0  0  0  0
   -0.1314   -8.3399    2.7471 H   0  0  0  0  0  0  0  0  0  0  0  0
    0.9986   -7.8343    0.5850 H   0  0  0  0  0  0  0  0  0  0  0  0
    3.4085   -6.2561   -0.1738 H   0  0  0  0  0  0  0  0  0  0  0  0
    1.9562   -5.4039   -0.7089 H   0  0  0  0  0  0  0  0  0  0  0  0
    4.3950   -4.2849    0.5448 H   0  0  0  0  0  0  0  0  0  0  0  0
    1.8396   -3.1407   -0.6524 H   0  0  0  0  0  0  0  0  0  0  0  0
    2.7789   -2.1037    0.3498 H   0  0  0  0  0  0  0  0  0  0  0  0
    4.2330   -4.6140   -1.9229 H   0  0  0  0  0  0  0  0  0  0  0  0
    2.8229   -3.9002   -2.7585 H   0  0  0  0  0  0  0  0  0  0  0  0
    5.7546   -3.1948   -3.2401 H   0  0  0  0  0  0  0  0  0  0  0  0
    4.7263   -4.1470   -4.3026 H   0  0  0  0  0  0  0  0  0  0  0  0
    5.1483   -0.8159   -2.8939 H   0  0  0  0  0  0  0  0  0  0  0  0
    3.7563   -0.1867   -3.7562 H   0  0  0  0  0  0  0  0  0  0  0  0
    2.2491   -1.5732   -2.3920 H   0  0  0  0  0  0  0  0  0  0  0  0
    3.2976   -0.6510   -1.3232 H   0  0  0  0  0  0  0  0  0  0  0  0
  1  2  2  0
  2 11  1  0
  2  3  1  0
  3  9  2  0
  3  4  1  0
  4  5  1  0
  4  6  2  0
  6  7  1  0
  6 19  1  0
  7  8  2  0
  7 20  1  0
  8  9  1  0
  8 21  1  0
  9 10  1  0
 10 11  1  0
 10 22  1  0
 10 23  1  0
 11 12  1  0
 11 24  1  1
 12 13  1  0
 12 25  1  0
 12 26  1  0
 13 18  1  0
 13 14  1  0
 14 15  1  0
 14 27  1  0
 14 28  1  0
 15 16  1  0
 15 29  1  0
 15 30  1  0
 16 17  1  0
 17 18  1  0
 17 31  1  0
 17 32  1  0
 18 33  1  0
 18 34  1  0
M  END
>  <i_m_ct_stereo_status>  (172) 
1

>  <s_m_source_file>  (172) 
/var/tmp/pbs.5076255.sched01/tmpe2rv0q7i/42k21vmx8r.sdf

>  <i_m_source_file_index>  (172) 
36

>  <i_lp_mmshare_version>  (172) 
48012

>  <i_f3d_flags>  (172) 
0

>  <s_epik_input>  (172) 
W0NIMl0xW0NIMl1PW0NIMl1bQ0gyXU4xW0NIMl1bQ0BASF0oQzI9TylbQ0gyXWMoYzIzKVtjSF1bY0hdW2NIXWMzQ2w=

>  <s_epik_cmdline>  (172) 
J2VwaWtfcHl0aG9uJywgJy1waHQnLCAnMi4wJywgJy1waCcsICc3LjAnLCAnLXRuJywgJzgnLCAnLW1hJywgJzIwMCcsICctaW1hZScsICc8aW5maWxlLm1hZT4nLCAnLW9tYWUnLCAnPG91dGZpbGUubWFlPic=

>  <r_lp_tautomer_probability>  (172) 
0.99995

>  <r_epik_Ionization_Penalty>  (172) 
0.0355958

>  <r_epik_Ionization_Penalty_Charging>  (172) 
0

>  <r_epik_Ionization_Penalty_Neutral>  (172) 
0.0355958

>  <r_epik_State_Penalty>  (172) 
0.0296852

>  <r_epik_Charging_Adjusted_Penalty>  (172) 
0.0296852

>  <i_epik_Tot_Q>  (172) 
0

>  <i_epik_Tot_abs_Q>  (172) 
0

>  <s_lp_Force_Field>  (172) 
OPLS3e

>  <r_lp_Energy>  (172) 
12.4983

>  <b_lp_Chiralities_Consistent>  (172) 
1

>  <s_lp_Variant>  (172) 
54:0-1

>  <s_i_glide_gridfile>  (172) 
pfpi4k_grid

>  <i_i_glide_lignum>  (172) 
36

>  <i_i_glide_rotatable_bonds>  (172) 
2

>  <r_i_docking_score>  (172) 
-3.56988

>  <r_i_glide_ligand_efficiency>  (172) 
-0.198327

>  <r_i_glide_ligand_efficiency_sa>  (172) 
-0.519763

>  <r_i_glide_ligand_efficiency_ln>  (172) 
-0.91762

>  <r_i_glide_gscore>  (172) 
-3.56988

>  <r_i_glide_lipo>  (172) 
-0.39692

>  <r_i_glide_hbond>  (172) 
-0.32

>  <r_i_glide_metal>  (172) 
-0

>  <r_i_glide_rewards>  (172) 
-1.59726

>  <r_i_glide_evdw>  (172) 
-19.1393

>  <r_i_glide_ecoul>  (172) 
-5.33245

>  <r_i_glide_erotb>  (172) 
0.504174

>  <r_i_glide_esite>  (172) 
-0.00304467

>  <r_i_glide_emodel>  (172) 
-26.2775

>  <r_i_glide_energy>  (172) 
-24.4717

>  <r_i_glide_einternal>  (172) 
8.36283

>  <r_i_glide_intrahb_reward>  (172) 
-0

>  <i_i_glide_confnum>  (172) 
4

>  <i_i_glide_posenum>  (172) 
3

>  <r_i_glide_eff_state_penalty>  (172) 
0

>  <ligand_id>  (172) 
54

>  <original_smiles>  (172) 
O=C1c2c(Cl)cccc2CC1CN1CCOCC1

>  <smiles>  (172) 
[H]c1c([H])c(Cl)c2c(c1[H])C([H])([H])C([H])(C([H])([H])N1C([H])([H])C([H])([H])OC([H])([H])C1([H])[H])C2=O

$$$$
54:0:1
     RDKit          3D

 34 36  0  0  1  0  0  0  0  0999 V2000
    2.3328   -5.7432    1.2738 O   0  0  0  0  0  0  0  0  0  0  0  0
    3.0160   -6.7513    1.4776 C   0  0  0  0  0  0  0  0  0  0  0  0
    4.4754   -6.8572    1.5285 C   0  0  0  0  0  0  0  0  0  0  0  0
    5.4561   -5.8499    1.4247 C   0  0  0  0  0  0  0  0  0  0  0  0
    5.0615   -4.1791    1.2258 Cl  0  0  0  0  0  0  0  0  0  0  0  0
    6.8106   -6.2327    1.5051 C   0  0  0  0  0  0  0  0  0  0  0  0
    7.1701   -7.5901    1.6786 C   0  0  0  0  0  0  0  0  0  0  0  0
    6.1804   -8.5866    1.7763 C   0  0  0  0  0  0  0  0  0  0  0  0
    4.8310   -8.1958    1.7019 C   0  0  0  0  0  0  0  0  0  0  0  0
    3.6393   -9.1079    1.8141 C   0  0  0  0  0  0  0  0  0  0  0  0
    2.4264   -8.1531    1.7109 C   0  0  1  0  0  0  0  0  0  0  0  0
    1.5154   -8.2177    2.9473 C   0  0  0  0  0  0  0  0  0  0  0  0
    0.3556   -7.3132    2.9243 N   0  0  0  0  0  0  0  0  0  0  0  0
   -0.5838   -7.6028    1.8381 C   0  0  0  0  0  0  0  0  0  0  0  0
   -1.3797   -8.9030    2.0743 C   0  0  0  0  0  0  0  0  0  0  0  0
   -2.0553   -8.7771    3.3121 O   0  0  0  0  0  0  0  0  0  0  0  0
   -1.1500   -8.6266    4.3993 C   0  0  0  0  0  0  0  0  0  0  0  0
   -0.3486   -7.3294    4.2018 C   0  0  0  0  0  0  0  0  0  0  0  0
    7.5726   -5.4768    1.4329 H   0  0  0  0  0  0  0  0  0  0  0  0
    8.2152   -7.8595    1.7288 H   0  0  0  0  0  0  0  0  0  0  0  0
    6.4442   -9.6259    1.9120 H   0  0  0  0  0  0  0  0  0  0  0  0
    3.6299   -9.8364    1.0020 H   0  0  0  0  0  0  0  0  0  0  0  0
    3.6620   -9.6621    2.7546 H   0  0  0  0  0  0  0  0  0  0  0  0
    1.8493   -8.4471    0.8423 H   0  0  0  0  0  0  0  0  0  0  0  0
    1.1954   -9.2512    3.0834 H   0  0  0  0  0  0  0  0  0  0  0  0
    2.1189   -7.9901    3.8274 H   0  0  0  0  0  0  0  0  0  0  0  0
   -1.2976   -6.7793    1.7855 H   0  0  0  0  0  0  0  0  0  0  0  0
   -0.0779   -7.6353    0.8689 H   0  0  0  0  0  0  0  0  0  0  0  0
   -2.1104   -9.0587    1.2836 H   0  0  0  0  0  0  0  0  0  0  0  0
   -0.7373   -9.7875    2.0955 H   0  0  0  0  0  0  0  0  0  0  0  0
   -1.7446   -8.5973    5.2995 H   0  0  0  0  0  0  0  0  0  0  0  0
   -0.4900   -9.4894    4.4945 H   0  0  0  0  0  0  0  0  0  0  0  0
    0.3714   -7.1886    5.0086 H   0  0  0  0  0  0  0  0  0  0  0  0
   -1.0391   -6.4846    4.2454 H   0  0  0  0  0  0  0  0  0  0  0  0
  1  2  2  0
  2 11  1  0
  2  3  1  0
  3  9  2  0
  3  4  1  0
  4  5  1  0
  4  6  2  0
  6  7  1  0
  6 19  1  0
  7  8  2  0
  7 20  1  0
  8  9  1  0
  8 21  1  0
  9 10  1  0
 10 11  1  0
 10 22  1  0
 10 23  1  0
 11 12  1  0
 11 24  1  6
 12 13  1  0
 12 25  1  0
 12 26  1  0
 13 18  1  0
 13 14  1  0
 14 15  1  0
 14 27  1  0
 14 28  1  0
 15 16  1  0
 15 29  1  0
 15 30  1  0
 16 17  1  0
 17 18  1  0
 17 31  1  0
 17 32  1  0
 18 33  1  0
 18 34  1  0
M  END
>  <i_m_ct_stereo_status>  (173) 
1

>  <s_m_source_file>  (173) 
/var/tmp/pbs.5076255.sched01/tmpe2rv0q7i/42k21vmx8r.sdf

>  <i_m_source_file_index>  (173) 
36

>  <i_lp_mmshare_version>  (173) 
48012

>  <i_f3d_flags>  (173) 
0

>  <s_epik_input>  (173) 
W0NIMl0xW0NIMl1PW0NIMl1bQ0gyXU4xW0NIMl1bQ0BASF0oQzI9TylbQ0gyXWMoYzIzKVtjSF1bY0hdW2NIXWMzQ2w=

>  <s_epik_cmdline>  (173) 
J2VwaWtfcHl0aG9uJywgJy1waHQnLCAnMi4wJywgJy1waCcsICc3LjAnLCAnLXRuJywgJzgnLCAnLW1hJywgJzIwMCcsICctaW1hZScsICc8aW5maWxlLm1hZT4nLCAnLW9tYWUnLCAnPG91dGZpbGUubWFlPic=

>  <r_lp_tautomer_probability>  (173) 
0.99995

>  <r_epik_Ionization_Penalty>  (173) 
0.0355958

>  <r_epik_Ionization_Penalty_Charging>  (173) 
0

>  <r_epik_Ionization_Penalty_Neutral>  (173) 
0.0355958

>  <r_epik_State_Penalty>  (173) 
0.0296852

>  <r_epik_Charging_Adjusted_Penalty>  (173) 
0.0296852

>  <i_epik_Tot_Q>  (173) 
0

>  <i_epik_Tot_abs_Q>  (173) 
0

>  <s_lp_Force_Field>  (173) 
OPLS3e

>  <r_lp_Energy>  (173) 
12.4983

>  <b_lp_Chiralities_Consistent>  (173) 
1

>  <s_lp_Variant>  (173) 
54:0-1

>  <s_i_glide_gridfile>  (173) 
pfpi4k_grid

>  <i_i_glide_lignum>  (173) 
36

>  <i_i_glide_rotatable_bonds>  (173) 
2

>  <r_i_docking_score>  (173) 
-2.98821

>  <r_i_glide_ligand_efficiency>  (173) 
-0.166012

>  <r_i_glide_ligand_efficiency_sa>  (173) 
-0.435074

>  <r_i_glide_ligand_efficiency_ln>  (173) 
-0.768105

>  <r_i_glide_gscore>  (173) 
-2.98821

>  <r_i_glide_lipo>  (173) 
-0.548111

>  <r_i_glide_hbond>  (173) 
0

>  <r_i_glide_metal>  (173) 
-0

>  <r_i_glide_rewards>  (173) 
-1.65604

>  <r_i_glide_evdw>  (173) 
-21.3315

>  <r_i_glide_ecoul>  (173) 
-1.47777

>  <r_i_glide_erotb>  (173) 
0.504174

>  <r_i_glide_esite>  (173) 
0

>  <r_i_glide_emodel>  (173) 
-27.7053

>  <r_i_glide_energy>  (173) 
-22.8092

>  <r_i_glide_einternal>  (173) 
0.0962238

>  <r_i_glide_intrahb_reward>  (173) 
-0

>  <i_i_glide_confnum>  (173) 
3

>  <i_i_glide_posenum>  (173) 
2

>  <r_i_glide_eff_state_penalty>  (173) 
0

>  <ligand_id>  (173) 
54

>  <original_smiles>  (173) 
O=C1c2c(Cl)cccc2CC1CN1CCOCC1

>  <smiles>  (173) 
[H]c1c([H])c(Cl)c2c(c1[H])C([H])([H])C([H])(C([H])([H])N1C([H])([H])C([H])([H])OC([H])([H])C1([H])[H])C2=O

$$$$
54:0:2
     RDKit          3D

 34 36  0  0  1  0  0  0  0  0999 V2000
    1.1436   -5.5136    2.4900 O   0  0  0  0  0  0  0  0  0  0  0  0
    1.8304   -6.5331    2.4094 C   0  0  0  0  0  0  0  0  0  0  0  0
    1.3976   -7.9200    2.6090 C   0  0  0  0  0  0  0  0  0  0  0  0
    0.1207   -8.4364    2.9190 C   0  0  0  0  0  0  0  0  0  0  0  0
   -1.2720   -7.4368    3.1281 Cl  0  0  0  0  0  0  0  0  0  0  0  0
   -0.0181   -9.8313    3.0502 C   0  0  0  0  0  0  0  0  0  0  0  0
    1.0941  -10.6858    2.8840 C   0  0  0  0  0  0  0  0  0  0  0  0
    2.3616  -10.1616    2.5669 C   0  0  0  0  0  0  0  0  0  0  0  0
    2.4911   -8.7675    2.4337 C   0  0  0  0  0  0  0  0  0  0  0  0
    3.7522   -8.0274    2.0820 C   0  0  0  0  0  0  0  0  0  0  0  0
    3.3259   -6.5396    2.0473 C   0  0  1  0  0  0  0  0  0  0  0  0
    3.5918   -5.8782    0.6782 C   0  0  0  0  0  0  0  0  0  0  0  0
    3.5574   -4.4182    0.6774 N   0  0  0  0  0  0  0  0  0  0  0  0
    4.7171   -3.8544    1.3674 C   0  0  0  0  0  0  0  0  0  0  0  0
    4.7160   -2.3155    1.3337 C   0  0  0  0  0  0  0  0  0  0  0  0
    4.6779   -1.8690   -0.0207 O   0  0  0  0  0  0  0  0  0  0  0  0
    3.5268   -2.3554   -0.7086 C   0  0  0  0  0  0  0  0  0  0  0  0
    3.5069   -3.8935   -0.6833 C   0  0  0  0  0  0  0  0  0  0  0  0
   -0.9856  -10.2467    3.2797 H   0  0  0  0  0  0  0  0  0  0  0  0
    0.9653  -11.7521    2.9915 H   0  0  0  0  0  0  0  0  0  0  0  0
    3.2080  -10.8184    2.4182 H   0  0  0  0  0  0  0  0  0  0  0  0
    4.5152   -8.1964    2.8430 H   0  0  0  0  0  0  0  0  0  0  0  0
    4.1448   -8.3785    1.1265 H   0  0  0  0  0  0  0  0  0  0  0  0
    3.8569   -6.0200    2.8419 H   0  0  0  0  0  0  0  0  0  0  0  0
    4.5353   -6.2247    0.2527 H   0  0  0  0  0  0  0  0  0  0  0  0
    2.8249   -6.2426   -0.0065 H   0  0  0  0  0  0  0  0  0  0  0  0
    4.7370   -4.1742    2.4125 H   0  0  0  0  0  0  0  0  0  0  0  0
    5.6354   -4.2208    0.9014 H   0  0  0  0  0  0  0  0  0  0  0  0
    3.8594   -1.9227    1.8897 H   0  0  0  0  0  0  0  0  0  0  0  0
    5.6163   -1.9313    1.8127 H   0  0  0  0  0  0  0  0  0  0  0  0
    2.6251   -1.9616   -0.2423 H   0  0  0  0  0  0  0  0  0  0  0  0
    3.5471   -1.9934   -1.7355 H   0  0  0  0  0  0  0  0  0  0  0  0
    4.3482   -4.2763   -1.2651 H   0  0  0  0  0  0  0  0  0  0  0  0
    2.5953   -4.2431   -1.1676 H   0  0  0  0  0  0  0  0  0  0  0  0
  1  2  2  0
  2 11  1  0
  2  3  1  0
  3  9  2  0
  3  4  1  0
  4  5  1  0
  4  6  2  0
  6  7  1  0
  6 19  1  0
  7  8  2  0
  7 20  1  0
  8  9  1  0
  8 21  1  0
  9 10  1  0
 10 11  1  0
 10 22  1  0
 10 23  1  0
 11 12  1  0
 11 24  1  1
 12 13  1  0
 12 25  1  0
 12 26  1  0
 13 18  1  0
 13 14  1  0
 14 15  1  0
 14 27  1  0
 14 28  1  0
 15 16  1  0
 15 29  1  0
 15 30  1  0
 16 17  1  0
 17 18  1  0
 17 31  1  0
 17 32  1  0
 18 33  1  0
 18 34  1  0
M  END
>  <i_m_ct_stereo_status>  (174) 
1

>  <s_m_source_file>  (174) 
/var/tmp/pbs.5076255.sched01/tmpe2rv0q7i/42k21vmx8r.sdf

>  <i_m_source_file_index>  (174) 
36

>  <i_lp_mmshare_version>  (174) 
48012

>  <i_f3d_flags>  (174) 
0

>  <s_epik_input>  (174) 
W0NIMl0xW0NIMl1PW0NIMl1bQ0gyXU4xW0NIMl1bQ0BASF0oQzI9TylbQ0gyXWMoYzIzKVtjSF1bY0hdW2NIXWMzQ2w=

>  <s_epik_cmdline>  (174) 
J2VwaWtfcHl0aG9uJywgJy1waHQnLCAnMi4wJywgJy1waCcsICc3LjAnLCAnLXRuJywgJzgnLCAnLW1hJywgJzIwMCcsICctaW1hZScsICc8aW5maWxlLm1hZT4nLCAnLW9tYWUnLCAnPG91dGZpbGUubWFlPic=

>  <r_lp_tautomer_probability>  (174) 
0.99995

>  <r_epik_Ionization_Penalty>  (174) 
0.0355958

>  <r_epik_Ionization_Penalty_Charging>  (174) 
0

>  <r_epik_Ionization_Penalty_Neutral>  (174) 
0.0355958

>  <r_epik_State_Penalty>  (174) 
0.0296852

>  <r_epik_Charging_Adjusted_Penalty>  (174) 
0.0296852

>  <i_epik_Tot_Q>  (174) 
0

>  <i_epik_Tot_abs_Q>  (174) 
0

>  <s_lp_Force_Field>  (174) 
OPLS3e

>  <r_lp_Energy>  (174) 
12.4983

>  <b_lp_Chiralities_Consistent>  (174) 
1

>  <s_lp_Variant>  (174) 
54:0-1

>  <s_i_glide_gridfile>  (174) 
pfpi4k_grid

>  <i_i_glide_lignum>  (174) 
36

>  <i_i_glide_rotatable_bonds>  (174) 
2

>  <r_i_docking_score>  (174) 
-2.7052

>  <r_i_glide_ligand_efficiency>  (174) 
-0.150289

>  <r_i_glide_ligand_efficiency_sa>  (174) 
-0.393868

>  <r_i_glide_ligand_efficiency_ln>  (174) 
-0.695358

>  <r_i_glide_gscore>  (174) 
-2.7052

>  <r_i_glide_lipo>  (174) 
-0.261997

>  <r_i_glide_hbond>  (174) 
-0.0234906

>  <r_i_glide_metal>  (174) 
-0

>  <r_i_glide_rewards>  (174) 
-1.59726

>  <r_i_glide_evdw>  (174) 
-20.1916

>  <r_i_glide_ecoul>  (174) 
-1.97627

>  <r_i_glide_erotb>  (174) 
0.504174

>  <r_i_glide_esite>  (174) 
-0.0206028

>  <r_i_glide_emodel>  (174) 
-25.8344

>  <r_i_glide_energy>  (174) 
-22.1679

>  <r_i_glide_einternal>  (174) 
1.49048

>  <r_i_glide_intrahb_reward>  (174) 
-0

>  <i_i_glide_confnum>  (174) 
4

>  <i_i_glide_posenum>  (174) 
1

>  <r_i_glide_eff_state_penalty>  (174) 
0

>  <ligand_id>  (174) 
54

>  <original_smiles>  (174) 
O=C1c2c(Cl)cccc2CC1CN1CCOCC1

>  <smiles>  (174) 
[H]c1c([H])c(Cl)c2c(c1[H])C([H])([H])C([H])(C([H])([H])N1C([H])([H])C([H])([H])OC([H])([H])C1([H])[H])C2=O

$$$$
54:1:0
     RDKit          3D

 35 37  0  0  1  0  0  0  0  0999 V2000
    0.8595   -0.6880    4.6731 O   0  0  0  0  0  0  0  0  0  0  0  0
    0.1791    0.2021    4.1672 C   0  0  0  0  0  0  0  0  0  0  0  0
   -0.7242    1.1086    4.8695 C   0  0  0  0  0  0  0  0  0  0  0  0
   -0.9884    1.2042    6.2488 C   0  0  0  0  0  0  0  0  0  0  0  0
   -0.1939    0.1980    7.4098 Cl  0  0  0  0  0  0  0  0  0  0  0  0
   -1.9206    2.1707    6.6744 C   0  0  0  0  0  0  0  0  0  0  0  0
   -2.5538    3.0165    5.7329 C   0  0  0  0  0  0  0  0  0  0  0  0
   -2.2704    2.9133    4.3550 C   0  0  0  0  0  0  0  0  0  0  0  0
   -1.3429    1.9425    3.9432 C   0  0  0  0  0  0  0  0  0  0  0  0
   -0.8836    1.6761    2.5300 C   0  0  0  0  0  0  0  0  0  0  0  0
    0.1595    0.5402    2.6599 C   0  0  1  0  0  0  0  0  0  0  0  0
    1.5698    0.8721    2.1115 C   0  0  0  0  0  0  0  0  0  0  0  0
    2.2545   -0.2838    1.4582 N   0  0  0  0  0  0  0  0  0  0  0  0
    3.6820    0.0215    1.1799 C   0  0  0  0  0  0  0  0  0  0  0  0
    4.3913   -1.1648    0.5091 C   0  0  0  0  0  0  0  0  0  0  0  0
    4.2681   -2.3314    1.3167 O   0  0  0  0  0  0  0  0  0  0  0  0
    2.9073   -2.7011    1.4808 C   0  0  0  0  0  0  0  0  0  0  0  0
    2.1683   -1.5708    2.2038 C   0  0  0  0  0  0  0  0  0  0  0  0
   -2.1391    2.2649    7.7257 H   0  0  0  0  0  0  0  0  0  0  0  0
   -3.2646    3.7434    6.0805 H   0  0  0  0  0  0  0  0  0  0  0  0
   -2.7489    3.5545    3.6284 H   0  0  0  0  0  0  0  0  0  0  0  0
   -1.7250    1.3523    1.9102 H   0  0  0  0  0  0  0  0  0  0  0  0
   -0.4639    2.5736    2.0824 H   0  0  0  0  0  0  0  0  0  0  0  0
   -0.2364   -0.3065    2.1143 H   0  0  0  0  0  0  0  0  0  0  0  0
    1.5096    1.6644    1.3647 H   0  0  0  0  0  0  0  0  0  0  0  0
    2.1948    1.2715    2.9116 H   0  0  0  0  0  0  0  0  0  0  0  0
    3.7502    0.8900    0.5210 H   0  0  0  0  0  0  0  0  0  0  0  0
    4.1924    0.2796    2.1102 H   0  0  0  0  0  0  0  0  0  0  0  0
    3.9829   -1.3585   -0.4829 H   0  0  0  0  0  0  0  0  0  0  0  0
    5.4522   -0.9550    0.3878 H   0  0  0  0  0  0  0  0  0  0  0  0
    2.4370   -2.9460    0.5251 H   0  0  0  0  0  0  0  0  0  0  0  0
    2.8582   -3.5944    2.1082 H   0  0  0  0  0  0  0  0  0  0  0  0
    2.6244   -1.4523    3.1832 H   0  0  0  0  0  0  0  0  0  0  0  0
    1.1321   -1.8937    2.3157 H   0  0  0  0  0  0  0  0  0  0  0  0
    1.7770   -0.4449    0.5674 H   0  0  0  0  0  0  0  0  0  0  0  0
  1  2  2  0
  2 11  1  0
  2  3  1  0
  3  9  2  0
  3  4  1  0
  4  5  1  0
  4  6  2  0
  6  7  1  0
  6 19  1  0
  7  8  2  0
  7 20  1  0
  8  9  1  0
  8 21  1  0
  9 10  1  0
 10 11  1  0
 10 22  1  0
 10 23  1  0
 11 12  1  0
 11 24  1  6
 12 13  1  0
 12 25  1  0
 12 26  1  0
 13 18  1  0
 13 14  1  0
 13 35  1  0
 14 15  1  0
 14 27  1  0
 14 28  1  0
 15 16  1  0
 15 29  1  0
 15 30  1  0
 16 17  1  0
 17 18  1  0
 17 31  1  0
 17 32  1  0
 18 33  1  0
 18 34  1  0
M  CHG  1  13   1
M  END
>  <i_m_ct_stereo_status>  (175) 
1

>  <s_m_source_file>  (175) 
/var/tmp/pbs.5076255.sched01/tmpe2rv0q7i/42k21vmx8r.sdf

>  <i_m_source_file_index>  (175) 
37

>  <i_lp_mmshare_version>  (175) 
48012

>  <i_f3d_flags>  (175) 
0

>  <s_epik_input>  (175) 
W0NIMl0xW0NIMl1PW0NIMl1bQ0gyXU4xW0NIMl1bQ0BASF0oQzI9TylbQ0gyXWMoYzIzKVtjSF1bY0hdW2NIXWMzQ2w=

>  <s_epik_cmdline>  (175) 
J2VwaWtfcHl0aG9uJywgJy1waHQnLCAnMi4wJywgJy1waCcsICc3LjAnLCAnLXRuJywgJzgnLCAnLW1hJywgJzIwMCcsICctaW1hZScsICc8aW5maWxlLm1hZT4nLCAnLW9tYWUnLCAnPG91dGZpbGUubWFlPic=

>  <r_lp_tautomer_probability>  (175) 
0.99995

>  <r_epik_Ionization_Penalty>  (175) 
1.68384

>  <r_epik_Ionization_Penalty_Charging>  (175) 
1.68384

>  <r_epik_Ionization_Penalty_Neutral>  (175) 
7.8935e-16

>  <r_epik_State_Penalty>  (175) 
1.78849

>  <r_epik_Charging_Adjusted_Penalty>  (175) 
3.47233

>  <i_epik_Tot_Q>  (175) 
1

>  <i_epik_Tot_abs_Q>  (175) 
1

>  <s_lp_Force_Field>  (175) 
OPLS3e

>  <r_lp_Energy>  (175) 
18.4881

>  <b_lp_Chiralities_Consistent>  (175) 
1

>  <s_lp_Variant>  (175) 
54:0-2

>  <s_i_glide_gridfile>  (175) 
pfpi4k_grid

>  <i_i_glide_lignum>  (175) 
37

>  <i_i_glide_rotatable_bonds>  (175) 
2

>  <r_i_docking_score>  (175) 
-3.40279

>  <r_i_glide_ligand_efficiency>  (175) 
-0.189044

>  <r_i_glide_ligand_efficiency_sa>  (175) 
-0.495436

>  <r_i_glide_ligand_efficiency_ln>  (175) 
-0.87467

>  <r_i_glide_gscore>  (175) 
-3.40279

>  <r_i_glide_lipo>  (175) 
-0.0537847

>  <r_i_glide_hbond>  (175) 
-0.2

>  <r_i_glide_metal>  (175) 
-0

>  <r_i_glide_rewards>  (175) 
-1.59039

>  <r_i_glide_evdw>  (175) 
-20.4411

>  <r_i_glide_ecoul>  (175) 
-6.27579

>  <r_i_glide_erotb>  (175) 
0.500889

>  <r_i_glide_esite>  (175) 
-0.0960849

>  <r_i_glide_emodel>  (175) 
-33.0831

>  <r_i_glide_energy>  (175) 
-26.7169

>  <r_i_glide_einternal>  (175) 
1.41985

>  <r_i_glide_intrahb_reward>  (175) 
-0

>  <i_i_glide_confnum>  (175) 
1

>  <i_i_glide_posenum>  (175) 
1

>  <r_i_glide_eff_state_penalty>  (175) 
0

>  <ligand_id>  (175) 
54

>  <original_smiles>  (175) 
O=C1c2c(Cl)cccc2CC1CN1CCOCC1

>  <smiles>  (175) 
[H]c1c([H])c(Cl)c2c(c1[H])C([H])([H])C([H])(C([H])([H])[N+]1([H])C([H])([H])C([H])([H])OC([H])([H])C1([H])[H])C2=O

$$$$
54:1:1
     RDKit          3D

 35 37  0  0  1  0  0  0  0  0999 V2000
    4.7408   -1.3519    1.4714 O   0  0  0  0  0  0  0  0  0  0  0  0
    4.8716   -2.5610    1.2779 C   0  0  0  0  0  0  0  0  0  0  0  0
    3.9563   -3.6523    1.6237 C   0  0  0  0  0  0  0  0  0  0  0  0
    2.6992   -3.6071    2.2586 C   0  0  0  0  0  0  0  0  0  0  0  0
    1.9662   -2.1225    2.7515 Cl  0  0  0  0  0  0  0  0  0  0  0  0
    2.0186   -4.8248    2.4689 C   0  0  0  0  0  0  0  0  0  0  0  0
    2.5780   -6.0511    2.0402 C   0  0  0  0  0  0  0  0  0  0  0  0
    3.8329   -6.0823    1.4019 C   0  0  0  0  0  0  0  0  0  0  0  0
    4.5087   -4.8661    1.2050 C   0  0  0  0  0  0  0  0  0  0  0  0
    5.8405   -4.6894    0.5275 C   0  0  0  0  0  0  0  0  0  0  0  0
    6.0599   -3.1527    0.5023 C   0  0  1  0  0  0  0  0  0  0  0  0
    6.1864   -2.5688   -0.9212 C   0  0  0  0  0  0  0  0  0  0  0  0
    4.8911   -2.4729   -1.6438 N   0  0  0  0  0  0  0  0  0  0  0  0
    4.5919   -1.1060   -2.1182 C   0  0  0  0  0  0  0  0  0  0  0  0
    3.2631   -1.0550   -2.8808 C   0  0  0  0  0  0  0  0  0  0  0  0
    3.2850   -1.9993   -3.9385 O   0  0  0  0  0  0  0  0  0  0  0  0
    3.4069   -3.3294   -3.4447 C   0  0  0  0  0  0  0  0  0  0  0  0
    4.7619   -3.4645   -2.7372 C   0  0  0  0  0  0  0  0  0  0  0  0
    1.0563   -4.8105    2.9514 H   0  0  0  0  0  0  0  0  0  0  0  0
    2.0456   -6.9746    2.2168 H   0  0  0  0  0  0  0  0  0  0  0  0
    4.2670   -7.0167    1.0766 H   0  0  0  0  0  0  0  0  0  0  0  0
    6.6266   -5.1985    1.0916 H   0  0  0  0  0  0  0  0  0  0  0  0
    5.8179   -5.1287   -0.4696 H   0  0  0  0  0  0  0  0  0  0  0  0
    6.9608   -2.9253    1.0701 H   0  0  0  0  0  0  0  0  0  0  0  0
    6.6330   -1.5788   -0.8138 H   0  0  0  0  0  0  0  0  0  0  0  0
    6.9214   -3.1464   -1.4888 H   0  0  0  0  0  0  0  0  0  0  0  0
    4.5401   -0.4472   -1.2553 H   0  0  0  0  0  0  0  0  0  0  0  0
    5.4035   -0.7632   -2.7513 H   0  0  0  0  0  0  0  0  0  0  0  0
    2.4297   -1.2679   -2.2183 H   0  0  0  0  0  0  0  0  0  0  0  0
    3.0915   -0.0613   -3.2951 H   0  0  0  0  0  0  0  0  0  0  0  0
    2.5659   -3.5950   -2.7904 H   0  0  0  0  0  0  0  0  0  0  0  0
    3.3697   -4.0155   -4.2919 H   0  0  0  0  0  0  0  0  0  0  0  0
    5.5655   -3.3184   -3.4573 H   0  0  0  0  0  0  0  0  0  0  0  0
    4.8493   -4.4716   -2.3357 H   0  0  0  0  0  0  0  0  0  0  0  0
    4.1557   -2.6891   -0.9828 H   0  0  0  0  0  0  0  0  0  0  0  0
  1  2  2  0
  2 11  1  0
  2  3  1  0
  3  9  2  0
  3  4  1  0
  4  5  1  0
  4  6  2  0
  6  7  1  0
  6 19  1  0
  7  8  2  0
  7 20  1  0
  8  9  1  0
  8 21  1  0
  9 10  1  0
 10 11  1  0
 10 22  1  0
 10 23  1  0
 11 12  1  0
 11 24  1  1
 12 13  1  0
 12 25  1  0
 12 26  1  0
 13 18  1  0
 13 14  1  0
 13 35  1  0
 14 15  1  0
 14 27  1  0
 14 28  1  0
 15 16  1  0
 15 29  1  0
 15 30  1  0
 16 17  1  0
 17 18  1  0
 17 31  1  0
 17 32  1  0
 18 33  1  0
 18 34  1  0
M  CHG  1  13   1
M  END
>  <i_m_ct_stereo_status>  (176) 
1

>  <s_m_source_file>  (176) 
/var/tmp/pbs.5076255.sched01/tmpe2rv0q7i/42k21vmx8r.sdf

>  <i_m_source_file_index>  (176) 
37

>  <i_lp_mmshare_version>  (176) 
48012

>  <i_f3d_flags>  (176) 
0

>  <s_epik_input>  (176) 
W0NIMl0xW0NIMl1PW0NIMl1bQ0gyXU4xW0NIMl1bQ0BASF0oQzI9TylbQ0gyXWMoYzIzKVtjSF1bY0hdW2NIXWMzQ2w=

>  <s_epik_cmdline>  (176) 
J2VwaWtfcHl0aG9uJywgJy1waHQnLCAnMi4wJywgJy1waCcsICc3LjAnLCAnLXRuJywgJzgnLCAnLW1hJywgJzIwMCcsICctaW1hZScsICc8aW5maWxlLm1hZT4nLCAnLW9tYWUnLCAnPG91dGZpbGUubWFlPic=

>  <r_lp_tautomer_probability>  (176) 
0.99995

>  <r_epik_Ionization_Penalty>  (176) 
1.68384

>  <r_epik_Ionization_Penalty_Charging>  (176) 
1.68384

>  <r_epik_Ionization_Penalty_Neutral>  (176) 
7.8935e-16

>  <r_epik_State_Penalty>  (176) 
1.78849

>  <r_epik_Charging_Adjusted_Penalty>  (176) 
3.47233

>  <i_epik_Tot_Q>  (176) 
1

>  <i_epik_Tot_abs_Q>  (176) 
1

>  <s_lp_Force_Field>  (176) 
OPLS3e

>  <r_lp_Energy>  (176) 
18.4881

>  <b_lp_Chiralities_Consistent>  (176) 
1

>  <s_lp_Variant>  (176) 
54:0-2

>  <s_i_glide_gridfile>  (176) 
pfpi4k_grid

>  <i_i_glide_lignum>  (176) 
37

>  <i_i_glide_rotatable_bonds>  (176) 
2

>  <r_i_docking_score>  (176) 
-3.29667

>  <r_i_glide_ligand_efficiency>  (176) 
-0.183148

>  <r_i_glide_ligand_efficiency_sa>  (176) 
-0.479984

>  <r_i_glide_ligand_efficiency_ln>  (176) 
-0.847391

>  <r_i_glide_gscore>  (176) 
-3.29667

>  <r_i_glide_lipo>  (176) 
-0.500156

>  <r_i_glide_hbond>  (176) 
-0.0114942

>  <r_i_glide_metal>  (176) 
-0

>  <r_i_glide_rewards>  (176) 
-1.62972

>  <r_i_glide_evdw>  (176) 
-23.2594

>  <r_i_glide_ecoul>  (176) 
-3.17723

>  <r_i_glide_erotb>  (176) 
0.500889

>  <r_i_glide_esite>  (176) 
-0.0166276

>  <r_i_glide_emodel>  (176) 
-31.2851

>  <r_i_glide_energy>  (176) 
-26.4366

>  <r_i_glide_einternal>  (176) 
4.54533

>  <r_i_glide_intrahb_reward>  (176) 
-0

>  <i_i_glide_confnum>  (176) 
2

>  <i_i_glide_posenum>  (176) 
21

>  <r_i_glide_eff_state_penalty>  (176) 
0

>  <ligand_id>  (176) 
54

>  <original_smiles>  (176) 
O=C1c2c(Cl)cccc2CC1CN1CCOCC1

>  <smiles>  (176) 
[H]c1c([H])c(Cl)c2c(c1[H])C([H])([H])C([H])(C([H])([H])[N+]1([H])C([H])([H])C([H])([H])OC([H])([H])C1([H])[H])C2=O

$$$$
54:1:2
     RDKit          3D

 35 37  0  0  1  0  0  0  0  0999 V2000
    0.6300   -0.3155    5.8903 O   0  0  0  0  0  0  0  0  0  0  0  0
   -0.1783    0.5571    5.5887 C   0  0  0  0  0  0  0  0  0  0  0  0
   -0.9529    1.3658    6.5224 C   0  0  0  0  0  0  0  0  0  0  0  0
   -0.9360    1.3586    7.9296 C   0  0  0  0  0  0  0  0  0  0  0  0
    0.1048    0.3229    8.8397 Cl  0  0  0  0  0  0  0  0  0  0  0  0
   -1.8074    2.2329    8.6038 C   0  0  0  0  0  0  0  0  0  0  0  0
   -2.6653    3.0902    7.8744 C   0  0  0  0  0  0  0  0  0  0  0  0
   -2.6604    3.0912    6.4645 C   0  0  0  0  0  0  0  0  0  0  0  0
   -1.7852    2.2161    5.8029 C   0  0  0  0  0  0  0  0  0  0  0  0
   -1.6166    2.0695    4.3080 C   0  0  0  0  0  0  0  0  0  0  0  0
   -0.5301    0.9731    4.1383 C   0  0  1  0  0  0  0  0  0  0  0  0
    0.7239    1.4347    3.3411 C   0  0  0  0  0  0  0  0  0  0  0  0
    1.3647    0.3647    2.5231 N   0  0  0  0  0  0  0  0  0  0  0  0
    2.6658    0.8104    1.9719 C   0  0  0  0  0  0  0  0  0  0  0  0
    3.3337   -0.3033    1.1453 C   0  0  0  0  0  0  0  0  0  0  0  0
    3.4848   -1.4811    1.9313 O   0  0  0  0  0  0  0  0  0  0  0  0
    2.2240   -1.9798    2.3520 C   0  0  0  0  0  0  0  0  0  0  0  0
    1.5490   -0.9313    3.2326 C   0  0  0  0  0  0  0  0  0  0  0  0
   -1.8128    2.2412    9.6832 H   0  0  0  0  0  0  0  0  0  0  0  0
   -3.3258    3.7519    8.4128 H   0  0  0  0  0  0  0  0  0  0  0  0
   -3.3137    3.7453    5.9043 H   0  0  0  0  0  0  0  0  0  0  0  0
   -2.5554    1.7475    3.8483 H   0  0  0  0  0  0  0  0  0  0  0  0
   -1.3355    3.0247    3.8587 H   0  0  0  0  0  0  0  0  0  0  0  0
   -1.0054    0.1270    3.6407 H   0  0  0  0  0  0  0  0  0  0  0  0
    0.4636    2.2416    2.6542 H   0  0  0  0  0  0  0  0  0  0  0  0
    1.4537    1.8690    4.0261 H   0  0  0  0  0  0  0  0  0  0  0  0
    2.4847    1.6795    1.3344 H   0  0  0  0  0  0  0  0  0  0  0  0
    3.3352    1.1160    2.7798 H   0  0  0  0  0  0  0  0  0  0  0  0
    2.7482   -0.5348    0.2552 H   0  0  0  0  0  0  0  0  0  0  0  0
    4.3226    0.0064    0.8082 H   0  0  0  0  0  0  0  0  0  0  0  0
    1.5928   -2.2552    1.5031 H   0  0  0  0  0  0  0  0  0  0  0  0
    2.3816   -2.8786    2.9533 H   0  0  0  0  0  0  0  0  0  0  0  0
    2.1857   -0.7768    4.1002 H   0  0  0  0  0  0  0  0  0  0  0  0
    0.5904   -1.3464    3.5413 H   0  0  0  0  0  0  0  0  0  0  0  0
    0.7667    0.1935    1.7260 H   0  0  0  0  0  0  0  0  0  0  0  0
  1  2  2  0
  2 11  1  0
  2  3  1  0
  3  9  2  0
  3  4  1  0
  4  5  1  0
  4  6  2  0
  6  7  1  0
  6 19  1  0
  7  8  2  0
  7 20  1  0
  8  9  1  0
  8 21  1  0
  9 10  1  0
 10 11  1  0
 10 22  1  0
 10 23  1  0
 11 12  1  0
 11 24  1  6
 12 13  1  0
 12 25  1  0
 12 26  1  0
 13 18  1  0
 13 14  1  0
 13 35  1  0
 14 15  1  0
 14 27  1  0
 14 28  1  0
 15 16  1  0
 15 29  1  0
 15 30  1  0
 16 17  1  0
 17 18  1  0
 17 31  1  0
 17 32  1  0
 18 33  1  0
 18 34  1  0
M  CHG  1  13   1
M  END
>  <i_m_ct_stereo_status>  (177) 
1

>  <s_m_source_file>  (177) 
/var/tmp/pbs.5076255.sched01/tmpe2rv0q7i/42k21vmx8r.sdf

>  <i_m_source_file_index>  (177) 
37

>  <i_lp_mmshare_version>  (177) 
48012

>  <i_f3d_flags>  (177) 
0

>  <s_epik_input>  (177) 
W0NIMl0xW0NIMl1PW0NIMl1bQ0gyXU4xW0NIMl1bQ0BASF0oQzI9TylbQ0gyXWMoYzIzKVtjSF1bY0hdW2NIXWMzQ2w=

>  <s_epik_cmdline>  (177) 
J2VwaWtfcHl0aG9uJywgJy1waHQnLCAnMi4wJywgJy1waCcsICc3LjAnLCAnLXRuJywgJzgnLCAnLW1hJywgJzIwMCcsICctaW1hZScsICc8aW5maWxlLm1hZT4nLCAnLW9tYWUnLCAnPG91dGZpbGUubWFlPic=

>  <r_lp_tautomer_probability>  (177) 
0.99995

>  <r_epik_Ionization_Penalty>  (177) 
1.68384

>  <r_epik_Ionization_Penalty_Charging>  (177) 
1.68384

>  <r_epik_Ionization_Penalty_Neutral>  (177) 
7.8935e-16

>  <r_epik_State_Penalty>  (177) 
1.78849

>  <r_epik_Charging_Adjusted_Penalty>  (177) 
3.47233

>  <i_epik_Tot_Q>  (177) 
1

>  <i_epik_Tot_abs_Q>  (177) 
1

>  <s_lp_Force_Field>  (177) 
OPLS3e

>  <r_lp_Energy>  (177) 
18.4881

>  <b_lp_Chiralities_Consistent>  (177) 
1

>  <s_lp_Variant>  (177) 
54:0-2

>  <s_i_glide_gridfile>  (177) 
pfpi4k_grid

>  <i_i_glide_lignum>  (177) 
37

>  <i_i_glide_rotatable_bonds>  (177) 
2

>  <r_i_docking_score>  (177) 
-3.14649

>  <r_i_glide_ligand_efficiency>  (177) 
-0.174805

>  <r_i_glide_ligand_efficiency_sa>  (177) 
-0.458119

>  <r_i_glide_ligand_efficiency_ln>  (177) 
-0.80879

>  <r_i_glide_gscore>  (177) 
-3.14649

>  <r_i_glide_lipo>  (177) 
-0.285512

>  <r_i_glide_hbond>  (177) 
0

>  <r_i_glide_metal>  (177) 
-0

>  <r_i_glide_rewards>  (177) 
-1.59039

>  <r_i_glide_evdw>  (177) 
-18.695

>  <r_i_glide_ecoul>  (177) 
-5.28186

>  <r_i_glide_erotb>  (177) 
0.500889

>  <r_i_glide_esite>  (177) 
-0.0444555

>  <r_i_glide_emodel>  (177) 
-29.7786

>  <r_i_glide_energy>  (177) 
-23.9768

>  <r_i_glide_einternal>  (177) 
1.28486

>  <r_i_glide_intrahb_reward>  (177) 
-0

>  <i_i_glide_confnum>  (177) 
1

>  <i_i_glide_posenum>  (177) 
11

>  <r_i_glide_eff_state_penalty>  (177) 
0

>  <ligand_id>  (177) 
54

>  <original_smiles>  (177) 
O=C1c2c(Cl)cccc2CC1CN1CCOCC1

>  <smiles>  (177) 
[H]c1c([H])c(Cl)c2c(c1[H])C([H])([H])C([H])(C([H])([H])[N+]1([H])C([H])([H])C([H])([H])OC([H])([H])C1([H])[H])C2=O

$$$$
55:0:0
     RDKit          3D

 72 78  0  0  1  0  0  0  0  0999 V2000
    8.1770   -6.0219    1.8965 C   0  0  0  0  0  0  0  0  0  0  0  0
    6.7547   -5.6014    1.4199 C   0  0  2  0  0  0  0  0  0  0  0  0
    6.8382   -4.0709    1.1070 C   0  0  0  0  0  0  0  0  0  0  0  0
    5.4725   -3.2789    0.9021 C   0  0  0  0  0  0  0  0  0  0  0  0
    5.4421   -2.2491    1.8697 O   0  0  0  0  0  0  0  0  0  0  0  0
    5.1807   -1.0263    1.1926 C   0  0  0  0  0  0  0  0  0  0  0  0
    5.7989   -1.3030   -0.1587 C   0  0  0  0  0  0  0  0  0  0  0  0
    5.5291   -2.6669   -0.3548 O   0  0  0  0  0  0  0  0  0  0  0  0
    4.1976   -4.2079    1.0277 C   0  0  0  0  0  0  0  0  0  0  0  0
    2.9313   -3.3360    1.1943 C   0  0  0  0  0  0  0  0  0  0  0  0
    4.0310   -4.9366   -0.3203 C   0  0  0  0  0  0  0  0  0  0  0  0
    4.4096   -5.0290    2.3466 C   0  0  2  0  0  0  0  0  0  0  0  0
    5.6595   -5.9621    2.4804 C   0  0  1  0  0  0  0  0  0  0  0  0
    5.2058   -7.4940    2.6469 C   0  0  2  0  0  0  0  0  0  0  0  0
    6.2087   -8.3345    2.1060 O   0  0  0  0  0  0  0  0  0  0  0  0
    3.9981   -7.7100    1.6835 C   0  0  1  0  0  0  0  0  0  0  0  0
    3.8029   -9.0600    0.9482 C   0  0  0  0  0  0  0  0  0  0  0  0
    2.7640   -7.0682    2.3304 C   0  0  1  0  0  0  0  0  0  0  0  0
    1.8506   -6.6721    1.3232 O   0  0  0  0  0  0  0  0  0  0  0  0
    1.9482   -8.0808    3.2179 C   0  0  0  0  0  0  0  0  0  0  0  0
    2.6482   -9.3447    3.8224 C   0  0  2  0  0  0  0  0  0  0  0  0
    1.9338   -9.8293    5.1093 C   0  0  1  0  0  0  0  0  0  0  0  0
    0.7838  -10.8024    4.8396 C   0  0  0  0  0  0  0  0  0  0  0  0
    2.9673  -10.3985    5.8784 O   0  0  0  0  0  0  0  0  0  0  0  0
    4.1903  -10.1539    5.4662 C   0  0  0  0  0  0  0  0  0  0  0  0
    5.2264  -10.5500    5.9946 O   0  0  0  0  0  0  0  0  0  0  0  0
    4.1682   -9.3320    4.1676 C   0  0  2  0  0  0  0  0  0  0  0  0
    4.9068   -7.9392    4.1864 C   0  0  1  0  0  0  0  0  0  0  0  0
    6.3217   -8.0972    4.8527 C   0  0  0  0  0  0  0  0  0  0  0  0
    3.9995   -6.9893    5.1208 C   0  0  1  0  0  0  0  0  0  0  0  0
    4.5737   -6.7015    6.3837 O   0  0  0  0  0  0  0  0  0  0  0  0
    3.6366   -5.6798    4.4911 C   0  0  2  0  0  0  0  0  0  0  0  0
    2.3391   -5.2545    4.0407 O   0  0  0  0  0  0  0  0  0  0  0  0
    3.2278   -5.7529    3.0362 C   0  0  1  0  0  0  0  0  0  0  0  0
    8.4443   -5.5396    2.8338 H   0  0  0  0  0  0  0  0  0  0  0  0
    8.9364   -5.7450    1.1687 H   0  0  0  0  0  0  0  0  0  0  0  0
    8.2899   -7.0956    2.0522 H   0  0  0  0  0  0  0  0  0  0  0  0
    6.5555   -6.1486    0.5032 H   0  0  0  0  0  0  0  0  0  0  0  0
    7.3625   -3.5878    1.9138 H   0  0  0  0  0  0  0  0  0  0  0  0
    7.4584   -3.9334    0.2195 H   0  0  0  0  0  0  0  0  0  0  0  0
    4.1014   -0.8956    1.0562 H   0  0  0  0  0  0  0  0  0  0  0  0
    5.5821   -0.1415    1.6882 H   0  0  0  0  0  0  0  0  0  0  0  0
    5.3757   -0.7096   -0.9732 H   0  0  0  0  0  0  0  0  0  0  0  0
    6.8765   -1.1386   -0.1282 H   0  0  0  0  0  0  0  0  0  0  0  0
    2.0324   -3.9448    1.2955 H   0  0  0  0  0  0  0  0  0  0  0  0
    2.8022   -2.6853    0.3339 H   0  0  0  0  0  0  0  0  0  0  0  0
    2.9899   -2.7165    2.0976 H   0  0  0  0  0  0  0  0  0  0  0  0
    3.1256   -5.5395   -0.3420 H   0  0  0  0  0  0  0  0  0  0  0  0
    4.8660   -5.5596   -0.6189 H   0  0  0  0  0  0  0  0  0  0  0  0
    3.8827   -4.2144   -1.1291 H   0  0  0  0  0  0  0  0  0  0  0  0
    4.6671   -4.2064    3.0228 H   0  0  0  0  0  0  0  0  0  0  0  0
    6.1197   -5.6981    3.4303 H   0  0  0  0  0  0  0  0  0  0  0  0
    5.8711   -9.2161    2.1026 H   0  0  0  0  0  0  0  0  0  0  0  0
    4.2412   -7.1135    0.8215 H   0  0  0  0  0  0  0  0  0  0  0  0
    3.9771   -9.9502    1.5559 H   0  0  0  0  0  0  0  0  0  0  0  0
    4.4961   -9.1266    0.1113 H   0  0  0  0  0  0  0  0  0  0  0  0
    2.7983   -9.1482    0.5342 H   0  0  0  0  0  0  0  0  0  0  0  0
    2.2793   -6.0321    0.7780 H   0  0  0  0  0  0  0  0  0  0  0  0
    1.3897   -7.5370    3.9769 H   0  0  0  0  0  0  0  0  0  0  0  0
    1.1563   -8.4988    2.5911 H   0  0  0  0  0  0  0  0  0  0  0  0
    2.5226  -10.1492    3.0954 H   0  0  0  0  0  0  0  0  0  0  0  0
    1.5491   -8.9791    5.6754 H   0  0  0  0  0  0  0  0  0  0  0  0
   -0.0114  -10.3388    4.2517 H   0  0  0  0  0  0  0  0  0  0  0  0
    0.3319  -11.1056    5.7854 H   0  0  0  0  0  0  0  0  0  0  0  0
    1.1079  -11.7076    4.3241 H   0  0  0  0  0  0  0  0  0  0  0  0
    4.7025   -9.9874    3.4917 H   0  0  0  0  0  0  0  0  0  0  0  0
    6.2943   -8.3357    5.9125 H   0  0  0  0  0  0  0  0  0  0  0  0
    6.9079   -7.1807    4.7748 H   0  0  0  0  0  0  0  0  0  0  0  0
    6.8978   -8.8988    4.3954 H   0  0  0  0  0  0  0  0  0  0  0  0
    3.0594   -7.4408    5.4276 H   0  0  0  0  0  0  0  0  0  0  0  0
    4.6539   -7.5051    6.8727 H   0  0  0  0  0  0  0  0  0  0  0  0
    4.2178   -4.8509    4.9035 H   0  0  0  0  0  0  0  0  0  0  0  0
  1  2  1  0
  1 35  1  0
  1 36  1  0
  1 37  1  0
  2 13  1  0
  2  3  1  0
  2 38  1  6
  3  4  1  0
  3 39  1  0
  3 40  1  0
  4  8  1  0
  4  5  1  0
  4  9  1  0
  5  6  1  0
  6  7  1  0
  6 41  1  0
  6 42  1  0
  7  8  1  0
  7 43  1  0
  7 44  1  0
  9 10  1  0
  9 11  1  0
  9 12  1  0
 10 45  1  0
 10 46  1  0
 10 47  1  0
 11 48  1  0
 11 49  1  0
 11 50  1  0
 12 34  1  0
 12 13  1  0
 12 51  1  1
 13 14  1  0
 13 52  1  1
 14 28  1  0
 14 15  1  6
 14 16  1  0
 15 53  1  0
 16 17  1  0
 16 18  1  0
 16 54  1  6
 17 55  1  0
 17 56  1  0
 17 57  1  0
 18 34  1  0
 18 19  1  6
 18 20  1  0
 19 58  1  0
 20 21  1  0
 20 59  1  0
 20 60  1  0
 21 27  1  0
 21 22  1  0
 21 61  1  6
 22 23  1  0
 22 24  1  0
 22 62  1  1
 23 63  1  0
 23 64  1  0
 23 65  1  0
 24 25  1  0
 25 26  2  0
 25 27  1  0
 27 28  1  0
 27 66  1  6
 28 29  1  1
 28 30  1  0
 29 67  1  0
 29 68  1  0
 29 69  1  0
 30 31  1  0
 30 32  1  0
 30 70  1  1
 31 71  1  0
 32 34  1  0
 32 33  1  0
 32 72  1  6
 34 33  1  1
M  END
>  <i_m_ct_stereo_status>  (178) 
1

>  <s_m_source_file>  (178) 
/var/tmp/pbs.5076255.sched01/tmpe2rv0q7i/42k21vmx8r.sdf

>  <i_m_source_file_index>  (178) 
38

>  <i_lp_mmshare_version>  (178) 
48012

>  <i_f3d_flags>  (178) 
0

>  <s_epik_input>  (178) 
TzFbQ0gyXVtDSDJdT0MxMltDSDJdW0NAQEhdKFtDSDNdKVtDQEhdM1tDQEBIXShDMihbQ0gzXSlbQ0gzXSlbQ0BAXTQ1W0NAQF02KFtPSF0pW0NASF0oW0NIM10pW0NAXTMoW09IXSlbQ0BAXShbQ0gzXSkoW0NAQEhdKFtPSF0pW0NAQEhdNE81KVtDQEBIXTdbQ0BIXShbQ0gyXTYpW0NAQEhdKFtDSDNdKU9DNz1P

>  <s_epik_cmdline>  (178) 
J2VwaWtfcHl0aG9uJywgJy1waHQnLCAnMi4wJywgJy1waCcsICc3LjAnLCAnLXRuJywgJzgnLCAnLW1hJywgJzIwMCcsICctaW1hZScsICc8aW5maWxlLm1hZT4nLCAnLW9tYWUnLCAnPG91dGZpbGUubWFlPic=

>  <r_lp_tautomer_probability>  (178) 
1

>  <r_epik_Ionization_Penalty>  (178) 
2.72673e-07

>  <r_epik_Ionization_Penalty_Charging>  (178) 
0

>  <r_epik_Ionization_Penalty_Neutral>  (178) 
2.72673e-07

>  <r_epik_State_Penalty>  (178) 
-0

>  <r_epik_Charging_Adjusted_Penalty>  (178) 
0

>  <i_epik_Tot_Q>  (178) 
0

>  <i_epik_Tot_abs_Q>  (178) 
0

>  <s_epik_Chemistry_Notes>  (178) 
This compound has an ester and may undergo hydrolysis at high or low pH.

>  <s_lp_Force_Field>  (178) 
OPLS3e

>  <r_lp_Energy>  (178) 
105.951

>  <b_lp_Chiralities_Consistent>  (178) 
1

>  <s_lp_Variant>  (178) 
55:0-1

>  <s_i_glide_gridfile>  (178) 
pfpi4k_grid

>  <i_i_glide_lignum>  (178) 
38

>  <i_i_glide_rotatable_bonds>  (178) 
3

>  <r_i_docking_score>  (178) 
-2.14945

>  <r_i_glide_ligand_efficiency>  (178) 
-0.0632191

>  <r_i_glide_ligand_efficiency_sa>  (178) 
-0.204805

>  <r_i_glide_ligand_efficiency_ln>  (178) 
-0.474873

>  <r_i_glide_gscore>  (178) 
-2.14945

>  <r_i_glide_lipo>  (178) 
-0.37014

>  <r_i_glide_hbond>  (178) 
0

>  <r_i_glide_metal>  (178) 
-0

>  <r_i_glide_rewards>  (178) 
-0.217658

>  <r_i_glide_evdw>  (178) 
-27.4281

>  <r_i_glide_ecoul>  (178) 
-1.18644

>  <r_i_glide_erotb>  (178) 
0

>  <r_i_glide_esite>  (178) 
-0.0122781

>  <r_i_glide_emodel>  (178) 
-31.881

>  <r_i_glide_energy>  (178) 
-28.6146

>  <r_i_glide_einternal>  (178) 
0.365121

>  <r_i_glide_intrahb_reward>  (178) 
-0

>  <i_i_glide_confnum>  (178) 
4

>  <i_i_glide_posenum>  (178) 
24

>  <r_i_glide_eff_state_penalty>  (178) 
0

>  <ligand_id>  (178) 
55

>  <original_smiles>  (178) 
CC1CC2(OCCO2)C(C)(C)C2C1C1(O)C(C)C3(O)CC4C(C)OC(=O)C4C1(C)C(O)C1OC123

>  <smiles>  (178) 
[H]OC1([H])C2([H])OC23C2([H])C([H])(C([H])(C([H])([H])[H])C([H])([H])C4(OC([H])([H])C([H])([H])O4)C2(C([H])([H])[H])C([H])([H])[H])C2(O[H])C([H])(C([H])([H])[H])C3(O[H])C([H])([H])C3([H])C([H])(C([H])([H])[H])OC(=O)C3([H])C12C([H])([H])[H]

$$$$
55:0:1
     RDKit          3D

 72 78  0  0  1  0  0  0  0  0999 V2000
    7.0735   -7.1183    3.7385 C   0  0  0  0  0  0  0  0  0  0  0  0
    6.2457   -6.5596    2.5476 C   0  0  2  0  0  0  0  0  0  0  0  0
    7.0216   -5.3187    2.0098 C   0  0  0  0  0  0  0  0  0  0  0  0
    6.2829   -4.3096    1.0539 C   0  0  0  0  0  0  0  0  0  0  0  0
    6.2483   -3.0472    1.6732 O   0  0  0  0  0  0  0  0  0  0  0  0
    6.7425   -2.0979    0.7400 C   0  0  0  0  0  0  0  0  0  0  0  0
    7.7303   -2.9473   -0.0401 C   0  0  0  0  0  0  0  0  0  0  0  0
    7.0410   -4.1777   -0.1137 O   0  0  0  0  0  0  0  0  0  0  0  0
    4.8057   -4.7409    0.7180 C   0  0  0  0  0  0  0  0  0  0  0  0
    4.0214   -3.5806    0.0568 C   0  0  0  0  0  0  0  0  0  0  0  0
    4.8869   -5.8331   -0.3411 C   0  0  0  0  0  0  0  0  0  0  0  0
    4.1439   -5.1083    2.0855 C   0  0  2  0  0  0  0  0  0  0  0  0
    4.7756   -6.2424    2.9759 C   0  0  1  0  0  0  0  0  0  0  0  0
    3.7427   -7.4628    3.1618 C   0  0  2  0  0  0  0  0  0  0  0  0
    4.4664   -8.6657    3.3595 O   0  0  0  0  0  0  0  0  0  0  0  0
    3.0446   -7.6842    1.7877 C   0  0  1  0  0  0  0  0  0  0  0  0
    2.6572   -9.1157    1.3154 C   0  0  0  0  0  0  0  0  0  0  0  0
    1.9985   -6.5631    1.6364 C   0  0  1  0  0  0  0  0  0  0  0  0
    1.7227   -6.2232    0.2972 O   0  0  0  0  0  0  0  0  0  0  0  0
    0.5882   -6.9976    2.1414 C   0  0  0  0  0  0  0  0  0  0  0  0
    0.4436   -8.1162    3.2198 C   0  0  2  0  0  0  0  0  0  0  0  0
   -0.8571   -7.9334    4.0145 C   0  0  1  0  0  0  0  0  0  0  0  0
   -2.0588   -8.6190    3.3638 C   0  0  0  0  0  0  0  0  0  0  0  0
   -0.5668   -8.4667    5.2880 O   0  0  0  0  0  0  0  0  0  0  0  0
    0.7248   -8.6660    5.5252 C   0  0  0  0  0  0  0  0  0  0  0  0
    1.1958   -9.0658    6.5806 O   0  0  0  0  0  0  0  0  0  0  0  0
    1.5618   -8.3573    4.2756 C   0  0  2  0  0  0  0  0  0  0  0  0
    2.6971   -7.2731    4.4125 C   0  0  1  0  0  0  0  0  0  0  0  0
    3.5422   -7.5395    5.7059 C   0  0  0  0  0  0  0  0  0  0  0  0
    1.9297   -5.8659    4.5757 C   0  0  1  0  0  0  0  0  0  0  0  0
    1.9943   -5.3199    5.8844 O   0  0  0  0  0  0  0  0  0  0  0  0
    2.3826   -4.7893    3.6450 C   0  0  2  0  0  0  0  0  0  0  0  0
    1.6648   -4.2333    2.5411 O   0  0  0  0  0  0  0  0  0  0  0  0
    2.6125   -5.2488    2.2234 C   0  0  1  0  0  0  0  0  0  0  0  0
    7.0956   -6.4215    4.5799 H   0  0  0  0  0  0  0  0  0  0  0  0
    8.1106   -7.2918    3.4534 H   0  0  0  0  0  0  0  0  0  0  0  0
    6.7073   -8.0632    4.1281 H   0  0  0  0  0  0  0  0  0  0  0  0
    6.2376   -7.3428    1.7847 H   0  0  0  0  0  0  0  0  0  0  0  0
    7.2719   -4.7441    2.8722 H   0  0  0  0  0  0  0  0  0  0  0  0
    7.9566   -5.6366    1.5471 H   0  0  0  0  0  0  0  0  0  0  0  0
    5.9512   -1.7700    0.0674 H   0  0  0  0  0  0  0  0  0  0  0  0
    7.1845   -1.2110    1.2096 H   0  0  0  0  0  0  0  0  0  0  0  0
    7.9406   -2.5764   -1.0420 H   0  0  0  0  0  0  0  0  0  0  0  0
    8.6710   -3.0412    0.5038 H   0  0  0  0  0  0  0  0  0  0  0  0
    3.0068   -3.8725   -0.2307 H   0  0  0  0  0  0  0  0  0  0  0  0
    4.5332   -3.2508   -0.8480 H   0  0  0  0  0  0  0  0  0  0  0  0
    3.9329   -2.7338    0.7414 H   0  0  0  0  0  0  0  0  0  0  0  0
    3.9250   -6.1777   -0.7068 H   0  0  0  0  0  0  0  0  0  0  0  0
    5.4753   -6.6770   -0.0232 H   0  0  0  0  0  0  0  0  0  0  0  0
    5.3651   -5.4341   -1.2288 H   0  0  0  0  0  0  0  0  0  0  0  0
    4.3943   -4.2012    2.6323 H   0  0  0  0  0  0  0  0  0  0  0  0
    4.8789   -5.7832    3.9617 H   0  0  0  0  0  0  0  0  0  0  0  0
    4.8537   -8.6267    4.2174 H   0  0  0  0  0  0  0  0  0  0  0  0
    3.8256   -7.4956    1.0731 H   0  0  0  0  0  0  0  0  0  0  0  0
    2.2813   -9.7592    2.1120 H   0  0  0  0  0  0  0  0  0  0  0  0
    3.5500   -9.6253    0.9538 H   0  0  0  0  0  0  0  0  0  0  0  0
    1.9544   -9.0633    0.4877 H   0  0  0  0  0  0  0  0  0  0  0  0
    2.5349   -6.0310   -0.1458 H   0  0  0  0  0  0  0  0  0  0  0  0
    0.0177   -6.1118    2.4075 H   0  0  0  0  0  0  0  0  0  0  0  0
    0.0318   -7.3980    1.2897 H   0  0  0  0  0  0  0  0  0  0  0  0
    0.3344   -9.0595    2.6825 H   0  0  0  0  0  0  0  0  0  0  0  0
   -1.0822   -6.8779    4.1710 H   0  0  0  0  0  0  0  0  0  0  0  0
   -2.3315   -8.1685    2.4047 H   0  0  0  0  0  0  0  0  0  0  0  0
   -2.9055   -8.5256    4.0292 H   0  0  0  0  0  0  0  0  0  0  0  0
   -1.8994   -9.6906    3.2345 H   0  0  0  0  0  0  0  0  0  0  0  0
    2.0471   -9.3108    4.0768 H   0  0  0  0  0  0  0  0  0  0  0  0
    2.9886   -7.3888    6.6326 H   0  0  0  0  0  0  0  0  0  0  0  0
    4.4074   -6.8835    5.7699 H   0  0  0  0  0  0  0  0  0  0  0  0
    3.8912   -8.5717    5.7581 H   0  0  0  0  0  0  0  0  0  0  0  0
    0.8557   -5.9402    4.4377 H   0  0  0  0  0  0  0  0  0  0  0  0
    1.6990   -5.9688    6.4902 H   0  0  0  0  0  0  0  0  0  0  0  0
    3.0224   -4.0445    4.1273 H   0  0  0  0  0  0  0  0  0  0  0  0
  1  2  1  0
  1 35  1  0
  1 36  1  0
  1 37  1  0
  2 13  1  0
  2  3  1  0
  2 38  1  6
  3  4  1  0
  3 39  1  0
  3 40  1  0
  4  8  1  0
  4  5  1  0
  4  9  1  0
  5  6  1  0
  6  7  1  0
  6 41  1  0
  6 42  1  0
  7  8  1  0
  7 43  1  0
  7 44  1  0
  9 10  1  0
  9 11  1  0
  9 12  1  0
 10 45  1  0
 10 46  1  0
 10 47  1  0
 11 48  1  0
 11 49  1  0
 11 50  1  0
 12 34  1  0
 12 13  1  0
 12 51  1  1
 13 14  1  0
 13 52  1  1
 14 28  1  0
 14 15  1  1
 14 16  1  0
 15 53  1  0
 16 17  1  0
 16 18  1  0
 16 54  1  6
 17 55  1  0
 17 56  1  0
 17 57  1  0
 18 34  1  0
 18 19  1  6
 18 20  1  0
 19 58  1  0
 20 21  1  0
 20 59  1  0
 20 60  1  0
 21 27  1  0
 21 22  1  0
 21 61  1  6
 22 23  1  0
 22 24  1  0
 22 62  1  1
 23 63  1  0
 23 64  1  0
 23 65  1  0
 24 25  1  0
 25 26  2  0
 25 27  1  0
 27 28  1  0
 27 66  1  6
 28 29  1  1
 28 30  1  0
 29 67  1  0
 29 68  1  0
 29 69  1  0
 30 31  1  0
 30 32  1  0
 30 70  1  6
 31 71  1  0
 32 34  1  0
 32 33  1  0
 32 72  1  1
 34 33  1  6
M  END
>  <i_m_ct_stereo_status>  (179) 
1

>  <s_m_source_file>  (179) 
/var/tmp/pbs.5076255.sched01/tmpe2rv0q7i/42k21vmx8r.sdf

>  <i_m_source_file_index>  (179) 
38

>  <i_lp_mmshare_version>  (179) 
48012

>  <i_f3d_flags>  (179) 
0

>  <s_epik_input>  (179) 
TzFbQ0gyXVtDSDJdT0MxMltDSDJdW0NAQEhdKFtDSDNdKVtDQEhdM1tDQEBIXShDMihbQ0gzXSlbQ0gzXSlbQ0BAXTQ1W0NAQF02KFtPSF0pW0NASF0oW0NIM10pW0NAXTMoW09IXSlbQ0BAXShbQ0gzXSkoW0NAQEhdKFtPSF0pW0NAQEhdNE81KVtDQEBIXTdbQ0BIXShbQ0gyXTYpW0NAQEhdKFtDSDNdKU9DNz1P

>  <s_epik_cmdline>  (179) 
J2VwaWtfcHl0aG9uJywgJy1waHQnLCAnMi4wJywgJy1waCcsICc3LjAnLCAnLXRuJywgJzgnLCAnLW1hJywgJzIwMCcsICctaW1hZScsICc8aW5maWxlLm1hZT4nLCAnLW9tYWUnLCAnPG91dGZpbGUubWFlPic=

>  <r_lp_tautomer_probability>  (179) 
1

>  <r_epik_Ionization_Penalty>  (179) 
2.72673e-07

>  <r_epik_Ionization_Penalty_Charging>  (179) 
0

>  <r_epik_Ionization_Penalty_Neutral>  (179) 
2.72673e-07

>  <r_epik_State_Penalty>  (179) 
-0

>  <r_epik_Charging_Adjusted_Penalty>  (179) 
0

>  <i_epik_Tot_Q>  (179) 
0

>  <i_epik_Tot_abs_Q>  (179) 
0

>  <s_epik_Chemistry_Notes>  (179) 
This compound has an ester and may undergo hydrolysis at high or low pH.

>  <s_lp_Force_Field>  (179) 
OPLS3e

>  <r_lp_Energy>  (179) 
105.951

>  <b_lp_Chiralities_Consistent>  (179) 
1

>  <s_lp_Variant>  (179) 
55:0-1

>  <s_i_glide_gridfile>  (179) 
pfpi4k_grid

>  <i_i_glide_lignum>  (179) 
38

>  <i_i_glide_rotatable_bonds>  (179) 
3

>  <r_i_docking_score>  (179) 
-1.92031

>  <r_i_glide_ligand_efficiency>  (179) 
-0.0564796

>  <r_i_glide_ligand_efficiency_sa>  (179) 
-0.182972

>  <r_i_glide_ligand_efficiency_ln>  (179) 
-0.424249

>  <r_i_glide_gscore>  (179) 
-1.92031

>  <r_i_glide_lipo>  (179) 
-0.350384

>  <r_i_glide_hbond>  (179) 
0

>  <r_i_glide_metal>  (179) 
-0

>  <r_i_glide_rewards>  (179) 
-0.272884

>  <r_i_glide_evdw>  (179) 
-22.2227

>  <r_i_glide_ecoul>  (179) 
-1.00959

>  <r_i_glide_erotb>  (179) 
0

>  <r_i_glide_esite>  (179) 
-0.0344658

>  <r_i_glide_emodel>  (179) 
-25.8767

>  <r_i_glide_energy>  (179) 
-23.2323

>  <r_i_glide_einternal>  (179) 
0.519307

>  <r_i_glide_intrahb_reward>  (179) 
-0

>  <i_i_glide_confnum>  (179) 
4

>  <i_i_glide_posenum>  (179) 
33

>  <r_i_glide_eff_state_penalty>  (179) 
0

>  <ligand_id>  (179) 
55

>  <original_smiles>  (179) 
CC1CC2(OCCO2)C(C)(C)C2C1C1(O)C(C)C3(O)CC4C(C)OC(=O)C4C1(C)C(O)C1OC123

>  <smiles>  (179) 
[H]OC1([H])C2([H])OC23C2([H])C([H])(C([H])(C([H])([H])[H])C([H])([H])C4(OC([H])([H])C([H])([H])O4)C2(C([H])([H])[H])C([H])([H])[H])C2(O[H])C([H])(C([H])([H])[H])C3(O[H])C([H])([H])C3([H])C([H])(C([H])([H])[H])OC(=O)C3([H])C12C([H])([H])[H]

$$$$
55:0:2
     RDKit          3D

 72 78  0  0  1  0  0  0  0  0999 V2000
    7.0452   -7.0846    3.7229 C   0  0  0  0  0  0  0  0  0  0  0  0
    6.2297   -6.5228    2.5250 C   0  0  2  0  0  0  0  0  0  0  0  0
    7.0311   -5.2978    1.9927 C   0  0  0  0  0  0  0  0  0  0  0  0
    6.3204   -4.2886    1.0132 C   0  0  0  0  0  0  0  0  0  0  0  0
    6.3333   -3.0114    1.6056 O   0  0  0  0  0  0  0  0  0  0  0  0
    6.8330   -2.0916    0.6482 C   0  0  0  0  0  0  0  0  0  0  0  0
    7.7958   -2.9847   -0.1184 C   0  0  0  0  0  0  0  0  0  0  0  0
    7.0916   -4.2110   -0.1502 O   0  0  0  0  0  0  0  0  0  0  0  0
    4.8353   -4.6925    0.6763 C   0  0  0  0  0  0  0  0  0  0  0  0
    4.0822   -3.5313   -0.0087 C   0  0  0  0  0  0  0  0  0  0  0  0
    4.8908   -5.8043   -0.3642 C   0  0  0  0  0  0  0  0  0  0  0  0
    4.1652   -5.0317    2.0452 C   0  0  2  0  0  0  0  0  0  0  0  0
    4.7644   -6.1702    2.9426 C   0  0  1  0  0  0  0  0  0  0  0  0
    3.7075   -7.3596    3.1577 C   0  0  2  0  0  0  0  0  0  0  0  0
    4.4061   -8.5679    3.3807 O   0  0  0  0  0  0  0  0  0  0  0  0
    3.0075   -7.5889    1.7755 C   0  0  1  0  0  0  0  0  0  0  0  0
    2.5928   -9.0258    1.3411 C   0  0  0  0  0  0  0  0  0  0  0  0
    1.9906   -6.4389    1.6056 C   0  0  1  0  0  0  0  0  0  0  0  0
    1.7128   -6.1109    0.2571 O   0  0  0  0  0  0  0  0  0  0  0  0
    0.5706   -6.8337    2.1147 C   0  0  0  0  0  0  0  0  0  0  0  0
    0.4046   -7.9351    3.2079 C   0  0  2  0  0  0  0  0  0  0  0  0
   -0.8864   -7.7127    3.9992 C   0  0  1  0  0  0  0  0  0  0  0  0
   -2.1251   -8.3665    3.3789 C   0  0  0  0  0  0  0  0  0  0  0  0
   -0.5963   -8.2345    5.2820 O   0  0  0  0  0  0  0  0  0  0  0  0
    0.6793   -8.4582    5.5129 C   0  0  0  0  0  0  0  0  0  0  0  0
    1.1312   -8.8702    6.5890 O   0  0  0  0  0  0  0  0  0  0  0  0
    1.5182   -8.1880    4.2708 C   0  0  2  0  0  0  0  0  0  0  0  0
    2.6721   -7.1251    4.3945 C   0  0  1  0  0  0  0  0  0  0  0  0
    3.5054   -7.3923    5.6925 C   0  0  0  0  0  0  0  0  0  0  0  0
    1.9365   -5.7056    4.5446 C   0  0  1  0  0  0  0  0  0  0  0  0
    2.0011   -5.1379    5.8393 O   0  0  0  0  0  0  0  0  0  0  0  0
    2.4290   -4.6582    3.6068 C   0  0  2  0  0  0  0  0  0  0  0  0
    1.7159   -4.0891    2.5106 O   0  0  0  0  0  0  0  0  0  0  0  0
    2.6336   -5.1340    2.1826 C   0  0  1  0  0  0  0  0  0  0  0  0
    7.0836   -6.3794    4.5561 H   0  0  0  0  0  0  0  0  0  0  0  0
    8.0782   -7.2899    3.4433 H   0  0  0  0  0  0  0  0  0  0  0  0
    6.6482   -8.0127    4.1257 H   0  0  0  0  0  0  0  0  0  0  0  0
    6.2245   -7.2960    1.7574 H   0  0  0  0  0  0  0  0  0  0  0  0
    7.2767   -4.7382    2.8684 H   0  0  0  0  0  0  0  0  0  0  0  0
    7.9722   -5.6320    1.5464 H   0  0  0  0  0  0  0  0  0  0  0  0
    6.0473   -1.7565   -0.0314 H   0  0  0  0  0  0  0  0  0  0  0  0
    7.2789   -1.1980    1.1019 H   0  0  0  0  0  0  0  0  0  0  0  0
    8.0146   -2.6268   -1.1258 H   0  0  0  0  0  0  0  0  0  0  0  0
    8.7335   -3.0734    0.4296 H   0  0  0  0  0  0  0  0  0  0  0  0
    3.0635   -3.7995   -0.2959 H   0  0  0  0  0  0  0  0  0  0  0  0
    4.5940   -3.2254   -0.9223 H   0  0  0  0  0  0  0  0  0  0  0  0
    4.0053   -2.6720    0.6607 H   0  0  0  0  0  0  0  0  0  0  0  0
    3.9270   -6.1333   -0.7307 H   0  0  0  0  0  0  0  0  0  0  0  0
    5.4765   -6.6516   -0.0497 H   0  0  0  0  0  0  0  0  0  0  0  0
    5.3445   -5.4291   -1.2742 H   0  0  0  0  0  0  0  0  0  0  0  0
    4.4340   -4.1200    2.5748 H   0  0  0  0  0  0  0  0  0  0  0  0
    4.8818   -5.6990    3.9206 H   0  0  0  0  0  0  0  0  0  0  0  0
    4.8567   -8.7862    2.5828 H   0  0  0  0  0  0  0  0  0  0  0  0
    3.7863   -7.4312    1.0505 H   0  0  0  0  0  0  0  0  0  0  0  0
    2.2152   -9.6534    2.1534 H   0  0  0  0  0  0  0  0  0  0  0  0
    3.4648   -9.5653    0.9647 H   0  0  0  0  0  0  0  0  0  0  0  0
    1.8580   -9.0003    0.5349 H   0  0  0  0  0  0  0  0  0  0  0  0
    2.5242   -5.9197   -0.1882 H   0  0  0  0  0  0  0  0  0  0  0  0
    0.0231   -5.9320    2.3726 H   0  0  0  0  0  0  0  0  0  0  0  0
    0.0019   -7.2323    1.2720 H   0  0  0  0  0  0  0  0  0  0  0  0
    0.2739   -8.8854    2.6867 H   0  0  0  0  0  0  0  0  0  0  0  0
   -1.0856   -6.6529    4.1430 H   0  0  0  0  0  0  0  0  0  0  0  0
   -2.3615   -7.9517    2.3991 H   0  0  0  0  0  0  0  0  0  0  0  0
   -2.9780   -8.2011    3.9997 H   0  0  0  0  0  0  0  0  0  0  0  0
   -1.9899   -9.4419    3.2671 H   0  0  0  0  0  0  0  0  0  0  0  0
    1.9813   -9.1565    4.0922 H   0  0  0  0  0  0  0  0  0  0  0  0
    2.9534   -7.2197    6.6151 H   0  0  0  0  0  0  0  0  0  0  0  0
    4.3868   -6.7568    5.7460 H   0  0  0  0  0  0  0  0  0  0  0  0
    3.8363   -8.4286    5.7504 H   0  0  0  0  0  0  0  0  0  0  0  0
    0.8646   -5.7498    4.3892 H   0  0  0  0  0  0  0  0  0  0  0  0
    1.6610   -5.7625    6.4518 H   0  0  0  0  0  0  0  0  0  0  0  0
    3.0827   -3.9196    4.0810 H   0  0  0  0  0  0  0  0  0  0  0  0
  1  2  1  0
  1 35  1  0
  1 36  1  0
  1 37  1  0
  2 13  1  0
  2  3  1  0
  2 38  1  6
  3  4  1  0
  3 39  1  0
  3 40  1  0
  4  8  1  0
  4  5  1  0
  4  9  1  0
  5  6  1  0
  6  7  1  0
  6 41  1  0
  6 42  1  0
  7  8  1  0
  7 43  1  0
  7 44  1  0
  9 10  1  0
  9 11  1  0
  9 12  1  0
 10 45  1  0
 10 46  1  0
 10 47  1  0
 11 48  1  0
 11 49  1  0
 11 50  1  0
 12 34  1  0
 12 13  1  0
 12 51  1  1
 13 14  1  0
 13 52  1  1
 14 28  1  0
 14 15  1  1
 14 16  1  0
 15 53  1  0
 16 17  1  0
 16 18  1  0
 16 54  1  6
 17 55  1  0
 17 56  1  0
 17 57  1  0
 18 34  1  0
 18 19  1  6
 18 20  1  0
 19 58  1  0
 20 21  1  0
 20 59  1  0
 20 60  1  0
 21 27  1  0
 21 22  1  0
 21 61  1  6
 22 23  1  0
 22 24  1  0
 22 62  1  1
 23 63  1  0
 23 64  1  0
 23 65  1  0
 24 25  1  0
 25 26  2  0
 25 27  1  0
 27 28  1  0
 27 66  1  6
 28 29  1  1
 28 30  1  0
 29 67  1  0
 29 68  1  0
 29 69  1  0
 30 31  1  0
 30 32  1  0
 30 70  1  6
 31 71  1  0
 32 34  1  0
 32 33  1  0
 32 72  1  1
 34 33  1  6
M  END
>  <i_m_ct_stereo_status>  (180) 
1

>  <s_m_source_file>  (180) 
/var/tmp/pbs.5076255.sched01/tmpe2rv0q7i/42k21vmx8r.sdf

>  <i_m_source_file_index>  (180) 
38

>  <i_lp_mmshare_version>  (180) 
48012

>  <i_f3d_flags>  (180) 
0

>  <s_epik_input>  (180) 
TzFbQ0gyXVtDSDJdT0MxMltDSDJdW0NAQEhdKFtDSDNdKVtDQEhdM1tDQEBIXShDMihbQ0gzXSlbQ0gzXSlbQ0BAXTQ1W0NAQF02KFtPSF0pW0NASF0oW0NIM10pW0NAXTMoW09IXSlbQ0BAXShbQ0gzXSkoW0NAQEhdKFtPSF0pW0NAQEhdNE81KVtDQEBIXTdbQ0BIXShbQ0gyXTYpW0NAQEhdKFtDSDNdKU9DNz1P

>  <s_epik_cmdline>  (180) 
J2VwaWtfcHl0aG9uJywgJy1waHQnLCAnMi4wJywgJy1waCcsICc3LjAnLCAnLXRuJywgJzgnLCAnLW1hJywgJzIwMCcsICctaW1hZScsICc8aW5maWxlLm1hZT4nLCAnLW9tYWUnLCAnPG91dGZpbGUubWFlPic=

>  <r_lp_tautomer_probability>  (180) 
1

>  <r_epik_Ionization_Penalty>  (180) 
2.72673e-07

>  <r_epik_Ionization_Penalty_Charging>  (180) 
0

>  <r_epik_Ionization_Penalty_Neutral>  (180) 
2.72673e-07

>  <r_epik_State_Penalty>  (180) 
-0

>  <r_epik_Charging_Adjusted_Penalty>  (180) 
0

>  <i_epik_Tot_Q>  (180) 
0

>  <i_epik_Tot_abs_Q>  (180) 
0

>  <s_epik_Chemistry_Notes>  (180) 
This compound has an ester and may undergo hydrolysis at high or low pH.

>  <s_lp_Force_Field>  (180) 
OPLS3e

>  <r_lp_Energy>  (180) 
105.951

>  <b_lp_Chiralities_Consistent>  (180) 
1

>  <s_lp_Variant>  (180) 
55:0-1

>  <s_i_glide_gridfile>  (180) 
pfpi4k_grid

>  <i_i_glide_lignum>  (180) 
38

>  <i_i_glide_rotatable_bonds>  (180) 
3

>  <r_i_docking_score>  (180) 
-1.89228

>  <r_i_glide_ligand_efficiency>  (180) 
-0.0556552

>  <r_i_glide_ligand_efficiency_sa>  (180) 
-0.180301

>  <r_i_glide_ligand_efficiency_ln>  (180) 
-0.418057

>  <r_i_glide_gscore>  (180) 
-1.89228

>  <r_i_glide_lipo>  (180) 
-0.358216

>  <r_i_glide_hbond>  (180) 
0

>  <r_i_glide_metal>  (180) 
-0

>  <r_i_glide_rewards>  (180) 
-0.275559

>  <r_i_glide_evdw>  (180) 
-20.9922

>  <r_i_glide_ecoul>  (180) 
-1.19277

>  <r_i_glide_erotb>  (180) 
0

>  <r_i_glide_esite>  (180) 
-0.0299761

>  <r_i_glide_emodel>  (180) 
-24.764

>  <r_i_glide_energy>  (180) 
-22.185

>  <r_i_glide_einternal>  (180) 
0.489066

>  <r_i_glide_intrahb_reward>  (180) 
-0

>  <i_i_glide_confnum>  (180) 
4

>  <i_i_glide_posenum>  (180) 
35

>  <r_i_glide_eff_state_penalty>  (180) 
0

>  <ligand_id>  (180) 
55

>  <original_smiles>  (180) 
CC1CC2(OCCO2)C(C)(C)C2C1C1(O)C(C)C3(O)CC4C(C)OC(=O)C4C1(C)C(O)C1OC123

>  <smiles>  (180) 
[H]OC1([H])C2([H])OC23C2([H])C([H])(C([H])(C([H])([H])[H])C([H])([H])C4(OC([H])([H])C([H])([H])O4)C2(C([H])([H])[H])C([H])([H])[H])C2(O[H])C([H])(C([H])([H])[H])C3(O[H])C([H])([H])C3([H])C([H])(C([H])([H])[H])OC(=O)C3([H])C12C([H])([H])[H]

$$$$
56:0:0
     RDKit          3D

 59 63  0  0  1  0  0  0  0  0999 V2000
    4.1077   -1.1353   -2.0991 C   0  0  0  0  0  0  0  0  0  0  0  0
    4.5263   -2.3291   -1.6430 C   0  0  0  0  0  0  0  0  0  0  0  0
    4.8484   -3.4633   -2.5347 C   0  0  0  0  0  0  0  0  0  0  0  0
    4.9616   -3.4402   -3.7578 O   0  0  0  0  0  0  0  0  0  0  0  0
    5.0154   -4.5434   -1.7558 O   0  0  0  0  0  0  0  0  0  0  0  0
    4.4599   -4.2974   -0.4944 C   0  0  2  0  0  0  0  0  0  0  0  0
    4.7859   -2.8521   -0.2505 C   0  0  2  0  0  0  0  0  0  0  0  0
    3.9835   -2.5884    1.0495 C   0  0  2  0  0  0  0  0  0  0  0  0
    2.6148   -2.5615    0.6435 O   0  0  0  0  0  0  0  0  0  0  0  0
    4.3505   -1.2439    1.7750 C   0  0  1  0  0  0  0  0  0  0  0  0
    4.9951   -0.3471    0.8908 O   0  0  0  0  0  0  0  0  0  0  0  0
    3.2748   -0.4691    2.5989 C   0  0  1  0  0  0  0  0  0  0  0  0
    2.6118    0.4539    1.7402 O   0  0  0  0  0  0  0  0  0  0  0  0
    2.1763   -1.1430    3.4904 C   0  0  1  0  0  0  0  0  0  0  0  0
    1.0480   -1.6186    2.8055 O   0  0  0  0  0  0  0  0  0  0  0  0
    2.4938   -2.0258    4.7206 C   0  0  2  0  0  0  0  0  0  0  0  0
    1.5572   -1.8691    5.9056 C   0  0  0  0  0  0  0  0  0  0  0  0
    2.8566   -1.2667    5.8882 O   0  0  0  0  0  0  0  0  0  0  0  0
    3.2711   -3.3500    4.5746 C   0  0  2  0  0  0  0  0  0  0  0  0
    4.7862   -3.1471    4.3530 C   0  0  1  0  0  0  0  0  0  0  0  0
    5.5352   -3.5748    5.4832 O   0  0  0  0  0  0  0  0  0  0  0  0
    5.3333   -3.8186    3.0627 C   0  0  1  0  0  0  0  0  0  0  0  0
    5.9502   -5.0623    3.3894 O   0  0  0  0  0  0  0  0  0  0  0  0
    4.2991   -3.9500    1.8736 C   0  0  1  0  0  0  0  0  0  0  0  0
    3.0258   -4.4443    2.3361 O   0  0  0  0  0  0  0  0  0  0  0  0
    2.6690   -4.5194    3.7227 C   0  0  0  0  0  0  0  0  0  0  0  0
    3.1008   -5.8905    4.2964 C   0  0  0  0  0  0  0  0  0  0  0  0
    1.1289   -4.5714    3.7154 C   0  0  0  0  0  0  0  0  0  0  0  0
    4.8474   -4.9845    0.7796 C   0  0  1  0  0  0  0  0  0  0  0  0
    4.3067   -6.4245    0.8807 C   0  0  0  0  0  0  0  0  0  0  0  0
    6.2616   -5.0746    0.7337 O   0  0  0  0  0  0  0  0  0  0  0  0
    3.8701   -0.3090   -1.4571 H   0  0  0  0  0  0  0  0  0  0  0  0
    4.0128   -0.9712   -3.1612 H   0  0  0  0  0  0  0  0  0  0  0  0
    3.3809   -4.4412   -0.6196 H   0  0  0  0  0  0  0  0  0  0  0  0
    5.8607   -2.7391   -0.0742 H   0  0  0  0  0  0  0  0  0  0  0  0
    2.4340   -1.8343    0.0551 H   0  0  0  0  0  0  0  0  0  0  0  0
    5.2065   -1.3994    2.4160 H   0  0  0  0  0  0  0  0  0  0  0  0
    4.3315    0.0611    0.3496 H   0  0  0  0  0  0  0  0  0  0  0  0
    3.8439    0.1702    3.2786 H   0  0  0  0  0  0  0  0  0  0  0  0
    2.0634   -0.0117    1.1169 H   0  0  0  0  0  0  0  0  0  0  0  0
    1.7491   -0.2628    3.9638 H   0  0  0  0  0  0  0  0  0  0  0  0
    0.9207   -1.0755    2.0469 H   0  0  0  0  0  0  0  0  0  0  0  0
    0.7295   -1.1720    5.8637 H   0  0  0  0  0  0  0  0  0  0  0  0
    1.4457   -2.6997    6.6030 H   0  0  0  0  0  0  0  0  0  0  0  0
    3.2082   -3.7569    5.5871 H   0  0  0  0  0  0  0  0  0  0  0  0
    4.9609   -2.0721    4.3338 H   0  0  0  0  0  0  0  0  0  0  0  0
    6.4031   -3.1992    5.4369 H   0  0  0  0  0  0  0  0  0  0  0  0
    6.1829   -3.2346    2.7064 H   0  0  0  0  0  0  0  0  0  0  0  0
    6.5240   -4.9166    4.1297 H   0  0  0  0  0  0  0  0  0  0  0  0
    2.4927   -6.1573    5.1617 H   0  0  0  0  0  0  0  0  0  0  0  0
    4.1248   -5.9143    4.6565 H   0  0  0  0  0  0  0  0  0  0  0  0
    2.9820   -6.6817    3.5551 H   0  0  0  0  0  0  0  0  0  0  0  0
    0.6982   -4.2358    4.6570 H   0  0  0  0  0  0  0  0  0  0  0  0
    0.7755   -5.5889    3.5380 H   0  0  0  0  0  0  0  0  0  0  0  0
    0.7181   -3.9800    2.9005 H   0  0  0  0  0  0  0  0  0  0  0  0
    3.2212   -6.4648    0.8423 H   0  0  0  0  0  0  0  0  0  0  0  0
    4.6190   -6.9127    1.8002 H   0  0  0  0  0  0  0  0  0  0  0  0
    4.6679   -7.0360    0.0535 H   0  0  0  0  0  0  0  0  0  0  0  0
    6.5273   -5.4988    1.5406 H   0  0  0  0  0  0  0  0  0  0  0  0
  1  2  2  0
  1 32  1  0
  1 33  1  0
  2  7  1  0
  2  3  1  0
  3  4  2  0
  3  5  1  0
  5  6  1  0
  6 29  1  0
  6  7  1  0
  6 34  1  6
  7  8  1  0
  7 35  1  1
  8 24  1  0
  8  9  1  6
  8 10  1  0
  9 36  1  0
 10 11  1  0
 10 12  1  0
 10 37  1  1
 11 38  1  0
 12 13  1  0
 12 14  1  0
 12 39  1  1
 13 40  1  0
 14 15  1  0
 14 16  1  0
 14 41  1  1
 15 42  1  0
 16 18  1  1
 16 17  1  0
 16 19  1  0
 17 18  1  0
 17 43  1  0
 17 44  1  0
 19 26  1  0
 19 20  1  0
 19 45  1  1
 20 21  1  0
 20 22  1  0
 20 46  1  6
 21 47  1  0
 22 23  1  0
 22 24  1  0
 22 48  1  6
 23 49  1  0
 24 25  1  1
 24 29  1  0
 25 26  1  0
 26 27  1  0
 26 28  1  0
 27 50  1  0
 27 51  1  0
 27 52  1  0
 28 53  1  0
 28 54  1  0
 28 55  1  0
 29 30  1  0
 29 31  1  6
 30 56  1  0
 30 57  1  0
 30 58  1  0
 31 59  1  0
M  END
>  <i_m_ct_stereo_status>  (181) 
1

>  <s_m_source_file>  (181) 
/var/tmp/pbs.5076255.sched01/tmpe2rv0q7i/42k21vmx8r.sdf

>  <i_m_source_file_index>  (181) 
39

>  <i_lp_mmshare_version>  (181) 
48012

>  <i_f3d_flags>  (181) 
0

>  <s_epik_input>  (181) 
W0NIMl09QzFDKD1PKU9bQ0BASF0oW0NAQF0yKFtDSDNdKVtPSF0pW0NAQEhdMVtDQF0oW09IXSkoW0NAQEhdKFtPSF0pW0NAQEhdKFtPSF0pW0NASF0zW09IXSlbQ0BdMihPQzQoW0NIM10pW0NIM10pW0NASF0oW09IXSlbQ0BIXShbT0hdKVtDSF00W0NAXTM1W0NIMl1PNQ==

>  <s_epik_cmdline>  (181) 
J2VwaWtfcHl0aG9uJywgJy1waHQnLCAnMi4wJywgJy1waCcsICc3LjAnLCAnLXRuJywgJzgnLCAnLW1hJywgJzIwMCcsICctaW1hZScsICc8aW5maWxlLm1hZT4nLCAnLW9tYWUnLCAnPG91dGZpbGUubWFlPic=

>  <r_lp_tautomer_probability>  (181) 
1

>  <r_epik_Ionization_Penalty>  (181) 
6.71766e-06

>  <r_epik_Ionization_Penalty_Charging>  (181) 
0

>  <r_epik_Ionization_Penalty_Neutral>  (181) 
6.71766e-06

>  <r_epik_State_Penalty>  (181) 
-0

>  <r_epik_Charging_Adjusted_Penalty>  (181) 
0

>  <i_epik_Tot_Q>  (181) 
0

>  <i_epik_Tot_abs_Q>  (181) 
0

>  <s_epik_Chemistry_Notes>  (181) 
This compound has an ester and may undergo hydrolysis at high or low pH.

>  <s_lp_Force_Field>  (181) 
OPLS3e

>  <r_lp_Energy>  (181) 
85.6849

>  <b_lp_Chiralities_Consistent>  (181) 
1

>  <s_lp_Variant>  (181) 
56:0-1

>  <s_i_glide_gridfile>  (181) 
pfpi4k_grid

>  <i_i_glide_lignum>  (181) 
39

>  <i_i_glide_rotatable_bonds>  (181) 
7

>  <r_i_docking_score>  (181) 
-2.99369

>  <r_i_glide_ligand_efficiency>  (181) 
-0.0965705

>  <r_i_glide_ligand_efficiency_sa>  (181) 
-0.303365

>  <r_i_glide_ligand_efficiency_ln>  (181) 
-0.675168

>  <r_i_glide_gscore>  (181) 
-2.99369

>  <r_i_glide_lipo>  (181) 
-0.265454

>  <r_i_glide_hbond>  (181) 
0

>  <r_i_glide_metal>  (181) 
-0

>  <r_i_glide_rewards>  (181) 
-0.990323

>  <r_i_glide_evdw>  (181) 
-27.0184

>  <r_i_glide_ecoul>  (181) 
-2.57993

>  <r_i_glide_erotb>  (181) 
0

>  <r_i_glide_esite>  (181) 
0

>  <r_i_glide_emodel>  (181) 
-38.9271

>  <r_i_glide_energy>  (181) 
-29.5983

>  <r_i_glide_einternal>  (181) 
1.27247

>  <r_i_glide_intrahb_reward>  (181) 
-0.5

>  <i_i_glide_confnum>  (181) 
1

>  <i_i_glide_posenum>  (181) 
1

>  <r_i_glide_eff_state_penalty>  (181) 
0

>  <ligand_id>  (181) 
56

>  <original_smiles>  (181) 
C=C1C(=O)OC2C1C1(O)C(O)C(O)C(O)C3(CO3)C3C(O)C(O)C1(OC3(C)C)C2(C)O

>  <smiles>  (181) 
[H]OC1([H])C([H])(O[H])C2(OC2([H])[H])C2([H])C([H])(O[H])C([H])(O[H])C3(OC2(C([H])([H])[H])C([H])([H])[H])C(O[H])(C([H])([H])[H])C2([H])OC(=O)C(=C([H])[H])C2([H])C3(O[H])C1([H])O[H]

$$$$
56:0:1
     RDKit          3D

 59 63  0  0  1  0  0  0  0  0999 V2000
    4.1995   -1.1016   -1.8969 C   0  0  0  0  0  0  0  0  0  0  0  0
    4.5827   -2.3007   -1.4304 C   0  0  0  0  0  0  0  0  0  0  0  0
    4.9256   -3.4397   -2.3020 C   0  0  0  0  0  0  0  0  0  0  0  0
    5.1325   -3.4048   -3.5174 O   0  0  0  0  0  0  0  0  0  0  0  0
    5.0118   -4.5286   -1.5162 O   0  0  0  0  0  0  0  0  0  0  0  0
    4.4360   -4.2517   -0.2661 C   0  0  2  0  0  0  0  0  0  0  0  0
    4.7920   -2.8108   -0.0237 C   0  0  2  0  0  0  0  0  0  0  0  0
    3.9770   -2.5065    1.2601 C   0  0  2  0  0  0  0  0  0  0  0  0
    2.6171   -2.4467    0.8305 O   0  0  0  0  0  0  0  0  0  0  0  0
    4.3530   -1.1621    1.9776 C   0  0  1  0  0  0  0  0  0  0  0  0
    5.0271   -0.2815    1.0919 O   0  0  0  0  0  0  0  0  0  0  0  0
    3.2801   -0.3520    2.7749 C   0  0  1  0  0  0  0  0  0  0  0  0
    2.6494    0.5700    1.8966 O   0  0  0  0  0  0  0  0  0  0  0  0
    2.1465   -0.9937    3.6463 C   0  0  1  0  0  0  0  0  0  0  0  0
    1.0257   -1.4558    2.9321 O   0  0  0  0  0  0  0  0  0  0  0  0
    2.4151   -1.8664    4.8919 C   0  0  2  0  0  0  0  0  0  0  0  0
    1.4673   -1.6757    6.0612 C   0  0  0  0  0  0  0  0  0  0  0  0
    2.7831   -1.1090    6.0599 O   0  0  0  0  0  0  0  0  0  0  0  0
    3.1602   -3.2098    4.7782 C   0  0  2  0  0  0  0  0  0  0  0  0
    4.6755   -3.0326    4.5806 C   0  0  1  0  0  0  0  0  0  0  0  0
    5.3705   -3.4252    5.7530 O   0  0  0  0  0  0  0  0  0  0  0  0
    5.2387   -3.7469    3.3153 C   0  0  1  0  0  0  0  0  0  0  0  0
    5.8073   -5.0123    3.6642 O   0  0  0  0  0  0  0  0  0  0  0  0
    4.2369   -3.8684    2.1015 C   0  0  1  0  0  0  0  0  0  0  0  0
    2.9429   -4.3325    2.5456 O   0  0  0  0  0  0  0  0  0  0  0  0
    2.5567   -4.3772    3.9283 C   0  0  0  0  0  0  0  0  0  0  0  0
    2.9495   -5.7504    4.5328 C   0  0  0  0  0  0  0  0  0  0  0  0
    1.0197   -4.3923    3.8894 C   0  0  0  0  0  0  0  0  0  0  0  0
    4.7859   -4.9257    1.0308 C   0  0  1  0  0  0  0  0  0  0  0  0
    4.2105   -6.3520    1.1371 C   0  0  0  0  0  0  0  0  0  0  0  0
    6.2026   -5.0516    1.0011 O   0  0  0  0  0  0  0  0  0  0  0  0
    3.9759   -0.2587   -1.2688 H   0  0  0  0  0  0  0  0  0  0  0  0
    4.1259   -0.9442   -2.9626 H   0  0  0  0  0  0  0  0  0  0  0  0
    3.3591   -4.3669   -0.4024 H   0  0  0  0  0  0  0  0  0  0  0  0
    5.8668   -2.7169    0.1743 H   0  0  0  0  0  0  0  0  0  0  0  0
    2.4644   -1.7422    0.2135 H   0  0  0  0  0  0  0  0  0  0  0  0
    5.1971   -1.3266    2.6311 H   0  0  0  0  0  0  0  0  0  0  0  0
    4.3782    0.1421    0.5476 H   0  0  0  0  0  0  0  0  0  0  0  0
    3.8509    0.2783    3.4564 H   0  0  0  0  0  0  0  0  0  0  0  0
    2.0935    0.1069    1.2852 H   0  0  0  0  0  0  0  0  0  0  0  0
    1.7278   -0.0981    4.1017 H   0  0  0  0  0  0  0  0  0  0  0  0
    0.8643   -0.8577    2.2269 H   0  0  0  0  0  0  0  0  0  0  0  0
    0.6611   -0.9540    5.9966 H   0  0  0  0  0  0  0  0  0  0  0  0
    1.3219   -2.4930    6.7635 H   0  0  0  0  0  0  0  0  0  0  0  0
    3.0589   -3.6049    5.7893 H   0  0  0  0  0  0  0  0  0  0  0  0
    4.8854   -1.9661    4.5455 H   0  0  0  0  0  0  0  0  0  0  0  0
    5.0610   -2.8977    6.4743 H   0  0  0  0  0  0  0  0  0  0  0  0
    6.1044   -3.1878    2.9634 H   0  0  0  0  0  0  0  0  0  0  0  0
    5.1280   -5.5462    4.0479 H   0  0  0  0  0  0  0  0  0  0  0  0
    2.3056   -5.9893    5.3788 H   0  0  0  0  0  0  0  0  0  0  0  0
    3.9556   -5.7939    4.9367 H   0  0  0  0  0  0  0  0  0  0  0  0
    2.8295   -6.5453    3.7956 H   0  0  0  0  0  0  0  0  0  0  0  0
    0.5835   -4.0351    4.8214 H   0  0  0  0  0  0  0  0  0  0  0  0
    0.6526   -5.4050    3.7133 H   0  0  0  0  0  0  0  0  0  0  0  0
    0.6423   -3.7981    3.0608 H   0  0  0  0  0  0  0  0  0  0  0  0
    3.1248   -6.3680    1.0780 H   0  0  0  0  0  0  0  0  0  0  0  0
    4.4914   -6.8392    2.0664 H   0  0  0  0  0  0  0  0  0  0  0  0
    4.5749   -6.9787    0.3248 H   0  0  0  0  0  0  0  0  0  0  0  0
    6.4632   -5.4475    1.8226 H   0  0  0  0  0  0  0  0  0  0  0  0
  1  2  2  0
  1 32  1  0
  1 33  1  0
  2  7  1  0
  2  3  1  0
  3  4  2  0
  3  5  1  0
  5  6  1  0
  6 29  1  0
  6  7  1  0
  6 34  1  6
  7  8  1  0
  7 35  1  1
  8 24  1  0
  8  9  1  6
  8 10  1  0
  9 36  1  0
 10 11  1  0
 10 12  1  0
 10 37  1  1
 11 38  1  0
 12 13  1  0
 12 14  1  0
 12 39  1  1
 13 40  1  0
 14 15  1  0
 14 16  1  0
 14 41  1  1
 15 42  1  0
 16 18  1  1
 16 17  1  0
 16 19  1  0
 17 18  1  0
 17 43  1  0
 17 44  1  0
 19 26  1  0
 19 20  1  0
 19 45  1  1
 20 21  1  0
 20 22  1  0
 20 46  1  6
 21 47  1  0
 22 23  1  0
 22 24  1  0
 22 48  1  6
 23 49  1  0
 24 25  1  1
 24 29  1  0
 25 26  1  0
 26 27  1  0
 26 28  1  0
 27 50  1  0
 27 51  1  0
 27 52  1  0
 28 53  1  0
 28 54  1  0
 28 55  1  0
 29 30  1  0
 29 31  1  1
 30 56  1  0
 30 57  1  0
 30 58  1  0
 31 59  1  0
M  END
>  <i_m_ct_stereo_status>  (182) 
1

>  <s_m_source_file>  (182) 
/var/tmp/pbs.5076255.sched01/tmpe2rv0q7i/42k21vmx8r.sdf

>  <i_m_source_file_index>  (182) 
39

>  <i_lp_mmshare_version>  (182) 
48012

>  <i_f3d_flags>  (182) 
0

>  <s_epik_input>  (182) 
W0NIMl09QzFDKD1PKU9bQ0BASF0oW0NAQF0yKFtDSDNdKVtPSF0pW0NAQEhdMVtDQF0oW09IXSkoW0NAQEhdKFtPSF0pW0NAQEhdKFtPSF0pW0NASF0zW09IXSlbQ0BdMihPQzQoW0NIM10pW0NIM10pW0NASF0oW09IXSlbQ0BIXShbT0hdKVtDSF00W0NAXTM1W0NIMl1PNQ==

>  <s_epik_cmdline>  (182) 
J2VwaWtfcHl0aG9uJywgJy1waHQnLCAnMi4wJywgJy1waCcsICc3LjAnLCAnLXRuJywgJzgnLCAnLW1hJywgJzIwMCcsICctaW1hZScsICc8aW5maWxlLm1hZT4nLCAnLW9tYWUnLCAnPG91dGZpbGUubWFlPic=

>  <r_lp_tautomer_probability>  (182) 
1

>  <r_epik_Ionization_Penalty>  (182) 
6.71766e-06

>  <r_epik_Ionization_Penalty_Charging>  (182) 
0

>  <r_epik_Ionization_Penalty_Neutral>  (182) 
6.71766e-06

>  <r_epik_State_Penalty>  (182) 
-0

>  <r_epik_Charging_Adjusted_Penalty>  (182) 
0

>  <i_epik_Tot_Q>  (182) 
0

>  <i_epik_Tot_abs_Q>  (182) 
0

>  <s_epik_Chemistry_Notes>  (182) 
This compound has an ester and may undergo hydrolysis at high or low pH.

>  <s_lp_Force_Field>  (182) 
OPLS3e

>  <r_lp_Energy>  (182) 
85.6849

>  <b_lp_Chiralities_Consistent>  (182) 
1

>  <s_lp_Variant>  (182) 
56:0-1

>  <s_i_glide_gridfile>  (182) 
pfpi4k_grid

>  <i_i_glide_lignum>  (182) 
39

>  <i_i_glide_rotatable_bonds>  (182) 
7

>  <r_i_docking_score>  (182) 
-2.99154

>  <r_i_glide_ligand_efficiency>  (182) 
-0.0965012

>  <r_i_glide_ligand_efficiency_sa>  (182) 
-0.303147

>  <r_i_glide_ligand_efficiency_ln>  (182) 
-0.674683

>  <r_i_glide_gscore>  (182) 
-2.99154

>  <r_i_glide_lipo>  (182) 
-0.234563

>  <r_i_glide_hbond>  (182) 
0

>  <r_i_glide_metal>  (182) 
-0

>  <r_i_glide_rewards>  (182) 
-1.00881

>  <r_i_glide_evdw>  (182) 
-27.6992

>  <r_i_glide_ecoul>  (182) 
-2.42137

>  <r_i_glide_erotb>  (182) 
0

>  <r_i_glide_esite>  (182) 
0

>  <r_i_glide_emodel>  (182) 
-40.3593

>  <r_i_glide_energy>  (182) 
-30.1206

>  <r_i_glide_einternal>  (182) 
0.864467

>  <r_i_glide_intrahb_reward>  (182) 
-0.5

>  <i_i_glide_confnum>  (182) 
1

>  <i_i_glide_posenum>  (182) 
22

>  <r_i_glide_eff_state_penalty>  (182) 
0

>  <ligand_id>  (182) 
56

>  <original_smiles>  (182) 
C=C1C(=O)OC2C1C1(O)C(O)C(O)C(O)C3(CO3)C3C(O)C(O)C1(OC3(C)C)C2(C)O

>  <smiles>  (182) 
[H]OC1([H])C([H])(O[H])C2(OC2([H])[H])C2([H])C([H])(O[H])C([H])(O[H])C3(OC2(C([H])([H])[H])C([H])([H])[H])C(O[H])(C([H])([H])[H])C2([H])OC(=O)C(=C([H])[H])C2([H])C3(O[H])C1([H])O[H]

$$$$
56:0:2
     RDKit          3D

 59 63  0  0  1  0  0  0  0  0999 V2000
    4.1398   -1.0947   -1.6937 C   0  0  0  0  0  0  0  0  0  0  0  0
    4.5443   -2.3195   -1.3237 C   0  0  0  0  0  0  0  0  0  0  0  0
    4.8940   -3.3812   -2.2891 C   0  0  0  0  0  0  0  0  0  0  0  0
    5.0877   -3.2495   -3.4961 O   0  0  0  0  0  0  0  0  0  0  0  0
    5.0185   -4.5301   -1.5920 O   0  0  0  0  0  0  0  0  0  0  0  0
    4.4525   -4.3643   -0.3139 C   0  0  2  0  0  0  0  0  0  0  0  0
    4.7809   -2.9397    0.0324 C   0  0  2  0  0  0  0  0  0  0  0  0
    3.9589   -2.7530    1.3390 C   0  0  2  0  0  0  0  0  0  0  0  0
    2.6139   -2.6736    0.8873 O   0  0  0  0  0  0  0  0  0  0  0  0
    4.3139   -1.4528    2.1534 C   0  0  1  0  0  0  0  0  0  0  0  0
    4.9677   -0.4929    1.3381 O   0  0  0  0  0  0  0  0  0  0  0  0
    3.2522   -0.7221    3.0442 C   0  0  1  0  0  0  0  0  0  0  0  0
    2.5861    0.2561    2.2631 O   0  0  0  0  0  0  0  0  0  0  0  0
    2.1331   -1.4538    3.8497 C   0  0  1  0  0  0  0  0  0  0  0  0
    1.0209   -1.8543    3.0894 O   0  0  0  0  0  0  0  0  0  0  0  0
    2.4167   -2.4245    5.0209 C   0  0  2  0  0  0  0  0  0  0  0  0
    1.4801   -2.3423    6.2100 C   0  0  0  0  0  0  0  0  0  0  0  0
    2.7866   -1.7587    6.2397 O   0  0  0  0  0  0  0  0  0  0  0  0
    3.1892   -3.7411    4.7983 C   0  0  2  0  0  0  0  0  0  0  0  0
    4.7029   -3.5151    4.6144 C   0  0  1  0  0  0  0  0  0  0  0  0
    5.4321   -3.9508    5.7526 O   0  0  0  0  0  0  0  0  0  0  0  0
    5.2704   -4.1152    3.2986 C   0  0  1  0  0  0  0  0  0  0  0  0
    5.8890   -5.3713    3.5593 O   0  0  0  0  0  0  0  0  0  0  0  0
    4.2617   -4.1687    2.0775 C   0  0  1  0  0  0  0  0  0  0  0  0
    2.9746   -4.6721    2.4880 O   0  0  0  0  0  0  0  0  0  0  0  0
    2.5961   -4.8433    3.8599 C   0  0  0  0  0  0  0  0  0  0  0  0
    3.0204   -6.2526    4.3444 C   0  0  0  0  0  0  0  0  0  0  0  0
    1.0553   -4.8824    3.8285 C   0  0  0  0  0  0  0  0  0  0  0  0
    4.8250   -5.1338    0.9282 C   0  0  1  0  0  0  0  0  0  0  0  0
    4.2618   -6.5665    0.9176 C   0  0  0  0  0  0  0  0  0  0  0  0
    6.2476   -5.2489    0.9238 O   0  0  0  0  0  0  0  0  0  0  0  0
    3.9090   -0.3208   -0.9810 H   0  0  0  0  0  0  0  0  0  0  0  0
    4.0587   -0.8371   -2.7406 H   0  0  0  0  0  0  0  0  0  0  0  0
    3.3782   -4.4901   -0.4610 H   0  0  0  0  0  0  0  0  0  0  0  0
    5.8522   -2.8392    0.2255 H   0  0  0  0  0  0  0  0  0  0  0  0
    2.4679   -1.8781    0.3914 H   0  0  0  0  0  0  0  0  0  0  0  0
    5.1607   -1.6472    2.7927 H   0  0  0  0  0  0  0  0  0  0  0  0
    5.7354   -0.8805    0.9421 H   0  0  0  0  0  0  0  0  0  0  0  0
    3.8188   -0.1417    3.7725 H   0  0  0  0  0  0  0  0  0  0  0  0
    2.0380   -0.1887    1.6306 H   0  0  0  0  0  0  0  0  0  0  0  0
    1.6963   -0.6115    4.3821 H   0  0  0  0  0  0  0  0  0  0  0  0
    0.3441   -2.1210    3.6932 H   0  0  0  0  0  0  0  0  0  0  0  0
    0.6631   -1.6294    6.2065 H   0  0  0  0  0  0  0  0  0  0  0  0
    1.3531   -3.2180    6.8440 H   0  0  0  0  0  0  0  0  0  0  0  0
    3.1067   -4.2202    5.7763 H   0  0  0  0  0  0  0  0  0  0  0  0
    4.8847   -2.4456    4.6505 H   0  0  0  0  0  0  0  0  0  0  0  0
    5.0997   -3.4990    6.5143 H   0  0  0  0  0  0  0  0  0  0  0  0
    6.1202   -3.5134    2.9792 H   0  0  0  0  0  0  0  0  0  0  0  0
    6.2753   -5.6591    2.7389 H   0  0  0  0  0  0  0  0  0  0  0  0
    2.4027   -6.5773    5.1815 H   0  0  0  0  0  0  0  0  0  0  0  0
    4.0393   -6.3046    4.7148 H   0  0  0  0  0  0  0  0  0  0  0  0
    2.9105   -6.9920    3.5514 H   0  0  0  0  0  0  0  0  0  0  0  0
    0.6148   -4.6062    4.7858 H   0  0  0  0  0  0  0  0  0  0  0  0
    0.7014   -5.8858    3.5861 H   0  0  0  0  0  0  0  0  0  0  0  0
    0.6605   -4.2354    3.0496 H   0  0  0  0  0  0  0  0  0  0  0  0
    3.1744   -6.5895    0.8601 H   0  0  0  0  0  0  0  0  0  0  0  0
    4.5603   -7.1177    1.8063 H   0  0  0  0  0  0  0  0  0  0  0  0
    4.6289   -7.1166    0.0516 H   0  0  0  0  0  0  0  0  0  0  0  0
    6.6185   -4.3954    0.7465 H   0  0  0  0  0  0  0  0  0  0  0  0
  1  2  2  0
  1 32  1  0
  1 33  1  0
  2  7  1  0
  2  3  1  0
  3  4  2  0
  3  5  1  0
  5  6  1  0
  6 29  1  0
  6  7  1  0
  6 34  1  6
  7  8  1  0
  7 35  1  1
  8 24  1  0
  8  9  1  6
  8 10  1  0
  9 36  1  0
 10 11  1  0
 10 12  1  0
 10 37  1  1
 11 38  1  0
 12 13  1  0
 12 14  1  0
 12 39  1  1
 13 40  1  0
 14 15  1  0
 14 16  1  0
 14 41  1  1
 15 42  1  0
 16 18  1  1
 16 17  1  0
 16 19  1  0
 17 18  1  0
 17 43  1  0
 17 44  1  0
 19 26  1  0
 19 20  1  0
 19 45  1  1
 20 21  1  0
 20 22  1  0
 20 46  1  6
 21 47  1  0
 22 23  1  0
 22 24  1  0
 22 48  1  6
 23 49  1  0
 24 25  1  1
 24 29  1  0
 25 26  1  0
 26 27  1  0
 26 28  1  0
 27 50  1  0
 27 51  1  0
 27 52  1  0
 28 53  1  0
 28 54  1  0
 28 55  1  0
 29 30  1  0
 29 31  1  1
 30 56  1  0
 30 57  1  0
 30 58  1  0
 31 59  1  0
M  END
>  <i_m_ct_stereo_status>  (183) 
1

>  <s_m_source_file>  (183) 
/var/tmp/pbs.5076255.sched01/tmpe2rv0q7i/42k21vmx8r.sdf

>  <i_m_source_file_index>  (183) 
39

>  <i_lp_mmshare_version>  (183) 
48012

>  <i_f3d_flags>  (183) 
0

>  <s_epik_input>  (183) 
W0NIMl09QzFDKD1PKU9bQ0BASF0oW0NAQF0yKFtDSDNdKVtPSF0pW0NAQEhdMVtDQF0oW09IXSkoW0NAQEhdKFtPSF0pW0NAQEhdKFtPSF0pW0NASF0zW09IXSlbQ0BdMihPQzQoW0NIM10pW0NIM10pW0NASF0oW09IXSlbQ0BIXShbT0hdKVtDSF00W0NAXTM1W0NIMl1PNQ==

>  <s_epik_cmdline>  (183) 
J2VwaWtfcHl0aG9uJywgJy1waHQnLCAnMi4wJywgJy1waCcsICc3LjAnLCAnLXRuJywgJzgnLCAnLW1hJywgJzIwMCcsICctaW1hZScsICc8aW5maWxlLm1hZT4nLCAnLW9tYWUnLCAnPG91dGZpbGUubWFlPic=

>  <r_lp_tautomer_probability>  (183) 
1

>  <r_epik_Ionization_Penalty>  (183) 
6.71766e-06

>  <r_epik_Ionization_Penalty_Charging>  (183) 
0

>  <r_epik_Ionization_Penalty_Neutral>  (183) 
6.71766e-06

>  <r_epik_State_Penalty>  (183) 
-0

>  <r_epik_Charging_Adjusted_Penalty>  (183) 
0

>  <i_epik_Tot_Q>  (183) 
0

>  <i_epik_Tot_abs_Q>  (183) 
0

>  <s_epik_Chemistry_Notes>  (183) 
This compound has an ester and may undergo hydrolysis at high or low pH.

>  <s_lp_Force_Field>  (183) 
OPLS3e

>  <r_lp_Energy>  (183) 
85.6849

>  <b_lp_Chiralities_Consistent>  (183) 
1

>  <s_lp_Variant>  (183) 
56:0-1

>  <s_i_glide_gridfile>  (183) 
pfpi4k_grid

>  <i_i_glide_lignum>  (183) 
39

>  <i_i_glide_rotatable_bonds>  (183) 
7

>  <r_i_docking_score>  (183) 
-2.80024

>  <r_i_glide_ligand_efficiency>  (183) 
-0.0903302

>  <r_i_glide_ligand_efficiency_sa>  (183) 
-0.283761

>  <r_i_glide_ligand_efficiency_ln>  (183) 
-0.631539

>  <r_i_glide_gscore>  (183) 
-2.80024

>  <r_i_glide_lipo>  (183) 
-0.242665

>  <r_i_glide_hbond>  (183) 
0

>  <r_i_glide_metal>  (183) 
-0

>  <r_i_glide_rewards>  (183) 
-1.01815

>  <r_i_glide_evdw>  (183) 
-26.8961

>  <r_i_glide_ecoul>  (183) 
-1.29746

>  <r_i_glide_erotb>  (183) 
0

>  <r_i_glide_esite>  (183) 
0

>  <r_i_glide_emodel>  (183) 
-37.8945

>  <r_i_glide_energy>  (183) 
-28.1935

>  <r_i_glide_einternal>  (183) 
1.37735

>  <r_i_glide_intrahb_reward>  (183) 
-0.5

>  <i_i_glide_confnum>  (183) 
2

>  <i_i_glide_posenum>  (183) 
26

>  <r_i_glide_eff_state_penalty>  (183) 
0

>  <ligand_id>  (183) 
56

>  <original_smiles>  (183) 
C=C1C(=O)OC2C1C1(O)C(O)C(O)C(O)C3(CO3)C3C(O)C(O)C1(OC3(C)C)C2(C)O

>  <smiles>  (183) 
[H]OC1([H])C([H])(O[H])C2(OC2([H])[H])C2([H])C([H])(O[H])C([H])(O[H])C3(OC2(C([H])([H])[H])C([H])([H])[H])C(O[H])(C([H])([H])[H])C2([H])OC(=O)C(=C([H])[H])C2([H])C3(O[H])C1([H])O[H]

$$$$
58:0:0
     RDKit          3D

 28 29  0  0  1  0  0  0  0  0999 V2000
    7.7056   -1.9140   -0.0666 C   0  0  0  0  0  0  0  0  0  0  0  0
    6.7616   -2.6924   -0.9938 C   0  0  0  0  0  0  0  0  0  0  0  0
    5.2506   -2.7130   -0.5043 C   0  0  2  0  0  0  0  0  0  0  0  0
    5.1996   -3.3731    0.7899 N   0  0  0  0  0  0  0  0  0  0  0  0
    5.2091   -4.6894    0.4986 C   0  0  0  0  0  0  0  0  0  0  0  0
    5.4909   -5.5887    1.2881 O   0  0  0  0  0  0  0  0  0  0  0  0
    4.8905   -4.8462   -0.8098 N   0  0  0  0  0  0  0  0  0  0  0  0
    4.2513   -3.6123   -1.2107 C   0  0  1  0  0  0  0  0  0  0  0  0
    2.7430   -3.6509   -0.7262 C   0  0  0  0  0  0  0  0  0  0  0  0
    4.2456   -2.8799   -2.5506 C   0  0  0  0  0  0  0  0  0  0  0  0
    4.1520   -3.3896   -3.6743 O   0  0  0  0  0  0  0  0  0  0  0  0
    4.2626   -1.5648   -2.2394 N   0  0  0  0  0  0  0  0  0  0  0  0
    3.9190   -0.5113   -3.1849 C   0  0  0  0  0  0  0  0  0  0  0  0
    4.6294   -1.3989   -0.9304 C   0  0  0  0  0  0  0  0  0  0  0  0
    4.5954   -0.3979   -0.2195 O   0  0  0  0  0  0  0  0  0  0  0  0
    8.7228   -1.8958   -0.4670 H   0  0  0  0  0  0  0  0  0  0  0  0
    7.7583   -2.3918    0.9088 H   0  0  0  0  0  0  0  0  0  0  0  0
    7.3769   -0.8842    0.0934 H   0  0  0  0  0  0  0  0  0  0  0  0
    6.8352   -2.2552   -1.9822 H   0  0  0  0  0  0  0  0  0  0  0  0
    7.1602   -3.6972   -1.1170 H   0  0  0  0  0  0  0  0  0  0  0  0
    5.5085   -2.9895    1.6845 H   0  0  0  0  0  0  0  0  0  0  0  0
    4.8092   -5.7308   -1.3113 H   0  0  0  0  0  0  0  0  0  0  0  0
    2.2742   -2.6715   -0.7407 H   0  0  0  0  0  0  0  0  0  0  0  0
    2.5966   -4.0463    0.2790 H   0  0  0  0  0  0  0  0  0  0  0  0
    2.1494   -4.2632   -1.4034 H   0  0  0  0  0  0  0  0  0  0  0  0
    3.9882    0.4898   -2.7517 H   0  0  0  0  0  0  0  0  0  0  0  0
    2.9000   -0.6465   -3.5613 H   0  0  0  0  0  0  0  0  0  0  0  0
    4.5857   -0.5475   -4.0491 H   0  0  0  0  0  0  0  0  0  0  0  0
  1  2  1  0
  1 16  1  0
  1 17  1  0
  1 18  1  0
  3  2  1  6
  2 19  1  0
  2 20  1  0
  3  8  1  0
  3 14  1  0
  3  4  1  0
  4  5  1  0
  4 21  1  0
  5  6  2  0
  5  7  1  0
  7  8  1  0
  7 22  1  0
  8  9  1  1
  8 10  1  0
  9 23  1  0
  9 24  1  0
  9 25  1  0
 10 11  2  0
 10 12  1  0
 12 13  1  0
 12 14  1  0
 13 26  1  0
 13 27  1  0
 13 28  1  0
 14 15  2  0
M  END
>  <i_m_ct_stereo_status>  (184) 
1

>  <s_m_source_file>  (184) 
/var/tmp/pbs.5076255.sched01/tmpe2rv0q7i/42k21vmx8r.sdf

>  <i_m_source_file_index>  (184) 
41

>  <i_lp_mmshare_version>  (184) 
48012

>  <i_f3d_flags>  (184) 
0

>  <s_epik_input>  (184) 
W0NIM11bQ0gyXVtDQEBdMTJbQ0BdKFtDSDNdKShbTkhdQyg9TylbTkhdMSlDKD1PKU4oW0NIM10pQzI9Tw==

>  <s_epik_cmdline>  (184) 
J2VwaWtfcHl0aG9uJywgJy1waHQnLCAnMi4wJywgJy1waCcsICc3LjAnLCAnLXRuJywgJzgnLCAnLW1hJywgJzIwMCcsICctaW1hZScsICc8aW5maWxlLm1hZT4nLCAnLW9tYWUnLCAnPG91dGZpbGUubWFlPic=

>  <r_lp_tautomer_probability>  (184) 
1

>  <r_epik_Ionization_Penalty>  (184) 
2.90864e-05

>  <r_epik_Ionization_Penalty_Charging>  (184) 
0

>  <r_epik_Ionization_Penalty_Neutral>  (184) 
2.90864e-05

>  <r_epik_State_Penalty>  (184) 
-0

>  <r_epik_Charging_Adjusted_Penalty>  (184) 
0

>  <i_epik_Tot_Q>  (184) 
0

>  <i_epik_Tot_abs_Q>  (184) 
0

>  <s_lp_Force_Field>  (184) 
OPLS3e

>  <r_lp_Energy>  (184) 
41.2134

>  <b_lp_Chiralities_Consistent>  (184) 
1

>  <s_lp_Variant>  (184) 
58:0-1

>  <s_i_glide_gridfile>  (184) 
pfpi4k_grid

>  <i_i_glide_lignum>  (184) 
41

>  <i_i_glide_rotatable_bonds>  (184) 
1

>  <r_i_docking_score>  (184) 
-3.84418

>  <r_i_glide_ligand_efficiency>  (184) 
-0.256279

>  <r_i_glide_ligand_efficiency_sa>  (184) 
-0.632038

>  <r_i_glide_ligand_efficiency_ln>  (184) 
-1.03671

>  <r_i_glide_gscore>  (184) 
-3.84418

>  <r_i_glide_lipo>  (184) 
-0.188775

>  <r_i_glide_hbond>  (184) 
-0.0544134

>  <r_i_glide_metal>  (184) 
-0

>  <r_i_glide_rewards>  (184) 
-2.07164

>  <r_i_glide_evdw>  (184) 
-22.1166

>  <r_i_glide_ecoul>  (184) 
-2.22701

>  <r_i_glide_erotb>  (184) 
0

>  <r_i_glide_esite>  (184) 
-0.0894759

>  <r_i_glide_emodel>  (184) 
-29.4088

>  <r_i_glide_energy>  (184) 
-24.3436

>  <r_i_glide_einternal>  (184) 
0.0624285

>  <r_i_glide_intrahb_reward>  (184) 
-0

>  <i_i_glide_confnum>  (184) 
1

>  <i_i_glide_posenum>  (184) 
1

>  <r_i_glide_eff_state_penalty>  (184) 
0

>  <ligand_id>  (184) 
58

>  <original_smiles>  (184) 
CCC12NC(=O)NC1(C)C(=O)N(C)C2=O

>  <smiles>  (184) 
[H]N1C(=O)N([H])C2(C([H])([H])C([H])([H])[H])C(=O)N(C([H])([H])[H])C(=O)C12C([H])([H])[H]

$$$$
58:0:1
     RDKit          3D

 28 29  0  0  1  0  0  0  0  0999 V2000
    7.3017   -2.8458   -1.8996 C   0  0  0  0  0  0  0  0  0  0  0  0
    6.8106   -2.9921   -0.4366 C   0  0  0  0  0  0  0  0  0  0  0  0
    5.2399   -2.9400   -0.0719 C   0  0  2  0  0  0  0  0  0  0  0  0
    5.1005   -3.6425    1.1885 N   0  0  0  0  0  0  0  0  0  0  0  0
    5.0733   -4.9576    0.8784 C   0  0  0  0  0  0  0  0  0  0  0  0
    5.2132   -5.8844    1.6619 O   0  0  0  0  0  0  0  0  0  0  0  0
    4.8125   -5.0598   -0.4538 N   0  0  0  0  0  0  0  0  0  0  0  0
    4.2255   -3.7969   -0.8399 C   0  0  1  0  0  0  0  0  0  0  0  0
    2.6972   -3.7975   -0.4185 C   0  0  0  0  0  0  0  0  0  0  0  0
    4.2608   -3.0053   -2.1448 C   0  0  0  0  0  0  0  0  0  0  0  0
    4.1639   -3.4558   -3.2956 O   0  0  0  0  0  0  0  0  0  0  0  0
    4.3197   -1.7096   -1.7801 N   0  0  0  0  0  0  0  0  0  0  0  0
    4.1568   -0.6187   -2.7275 C   0  0  0  0  0  0  0  0  0  0  0  0
    4.6882   -1.5833   -0.4698 C   0  0  0  0  0  0  0  0  0  0  0  0
    4.7539   -0.5708    0.2182 O   0  0  0  0  0  0  0  0  0  0  0  0
    8.3943   -2.8679   -2.0074 H   0  0  0  0  0  0  0  0  0  0  0  0
    6.9525   -1.8937   -2.2969 H   0  0  0  0  0  0  0  0  0  0  0  0
    6.9113   -3.6568   -2.5306 H   0  0  0  0  0  0  0  0  0  0  0  0
    7.2740   -3.9048   -0.0661 H   0  0  0  0  0  0  0  0  0  0  0  0
    7.2796   -2.1943    0.1391 H   0  0  0  0  0  0  0  0  0  0  0  0
    5.3799   -3.2995    2.0938 H   0  0  0  0  0  0  0  0  0  0  0  0
    4.7741   -5.9058   -1.0005 H   0  0  0  0  0  0  0  0  0  0  0  0
    2.2572   -2.7998   -0.4401 H   0  0  0  0  0  0  0  0  0  0  0  0
    2.4788   -4.2139    0.5692 H   0  0  0  0  0  0  0  0  0  0  0  0
    2.1291   -4.3746   -1.1510 H   0  0  0  0  0  0  0  0  0  0  0  0
    4.2620    0.3602   -2.2712 H   0  0  0  0  0  0  0  0  0  0  0  0
    3.1898   -0.6560   -3.2403 H   0  0  0  0  0  0  0  0  0  0  0  0
    4.9413   -0.7088   -3.4785 H   0  0  0  0  0  0  0  0  0  0  0  0
  1  2  1  0
  1 16  1  0
  1 17  1  0
  1 18  1  0
  3  2  1  6
  2 19  1  0
  2 20  1  0
  3  8  1  0
  3 14  1  0
  3  4  1  0
  4  5  1  0
  4 21  1  0
  5  6  2  0
  5  7  1  0
  7  8  1  0
  7 22  1  0
  8  9  1  1
  8 10  1  0
  9 23  1  0
  9 24  1  0
  9 25  1  0
 10 11  2  0
 10 12  1  0
 12 13  1  0
 12 14  1  0
 13 26  1  0
 13 27  1  0
 13 28  1  0
 14 15  2  0
M  END
>  <i_m_ct_stereo_status>  (185) 
1

>  <s_m_source_file>  (185) 
/var/tmp/pbs.5076255.sched01/tmpe2rv0q7i/42k21vmx8r.sdf

>  <i_m_source_file_index>  (185) 
41

>  <i_lp_mmshare_version>  (185) 
48012

>  <i_f3d_flags>  (185) 
0

>  <s_epik_input>  (185) 
W0NIM11bQ0gyXVtDQEBdMTJbQ0BdKFtDSDNdKShbTkhdQyg9TylbTkhdMSlDKD1PKU4oW0NIM10pQzI9Tw==

>  <s_epik_cmdline>  (185) 
J2VwaWtfcHl0aG9uJywgJy1waHQnLCAnMi4wJywgJy1waCcsICc3LjAnLCAnLXRuJywgJzgnLCAnLW1hJywgJzIwMCcsICctaW1hZScsICc8aW5maWxlLm1hZT4nLCAnLW9tYWUnLCAnPG91dGZpbGUubWFlPic=

>  <r_lp_tautomer_probability>  (185) 
1

>  <r_epik_Ionization_Penalty>  (185) 
2.90864e-05

>  <r_epik_Ionization_Penalty_Charging>  (185) 
0

>  <r_epik_Ionization_Penalty_Neutral>  (185) 
2.90864e-05

>  <r_epik_State_Penalty>  (185) 
-0

>  <r_epik_Charging_Adjusted_Penalty>  (185) 
0

>  <i_epik_Tot_Q>  (185) 
0

>  <i_epik_Tot_abs_Q>  (185) 
0

>  <s_lp_Force_Field>  (185) 
OPLS3e

>  <r_lp_Energy>  (185) 
41.2134

>  <b_lp_Chiralities_Consistent>  (185) 
1

>  <s_lp_Variant>  (185) 
58:0-1

>  <s_i_glide_gridfile>  (185) 
pfpi4k_grid

>  <i_i_glide_lignum>  (185) 
41

>  <i_i_glide_rotatable_bonds>  (185) 
1

>  <r_i_docking_score>  (185) 
-3.62331

>  <r_i_glide_ligand_efficiency>  (185) 
-0.241554

>  <r_i_glide_ligand_efficiency_sa>  (185) 
-0.595723

>  <r_i_glide_ligand_efficiency_ln>  (185) 
-0.977146

>  <r_i_glide_gscore>  (185) 
-3.62331

>  <r_i_glide_lipo>  (185) 
-0.213881

>  <r_i_glide_hbond>  (185) 
-0.00785695

>  <r_i_glide_metal>  (185) 
-0

>  <r_i_glide_rewards>  (185) 
-2.05041

>  <r_i_glide_evdw>  (185) 
-21.2983

>  <r_i_glide_ecoul>  (185) 
-1.29436

>  <r_i_glide_erotb>  (185) 
0

>  <r_i_glide_esite>  (185) 
-0.0920901

>  <r_i_glide_emodel>  (185) 
-23.1491

>  <r_i_glide_energy>  (185) 
-22.5927

>  <r_i_glide_einternal>  (185) 
8.08234

>  <r_i_glide_intrahb_reward>  (185) 
-0

>  <i_i_glide_confnum>  (185) 
2

>  <i_i_glide_posenum>  (185) 
36

>  <r_i_glide_eff_state_penalty>  (185) 
0

>  <ligand_id>  (185) 
58

>  <original_smiles>  (185) 
CCC12NC(=O)NC1(C)C(=O)N(C)C2=O

>  <smiles>  (185) 
[H]N1C(=O)N([H])C2(C([H])([H])C([H])([H])[H])C(=O)N(C([H])([H])[H])C(=O)C12C([H])([H])[H]

$$$$
58:0:2
     RDKit          3D

 28 29  0  0  1  0  0  0  0  0999 V2000
    5.1840   -2.4127    2.7096 C   0  0  0  0  0  0  0  0  0  0  0  0
    5.0608   -3.2558    1.4284 C   0  0  0  0  0  0  0  0  0  0  0  0
    3.6983   -3.0397    0.6611 C   0  0  2  0  0  0  0  0  0  0  0  0
    2.6487   -3.6101    1.4900 N   0  0  0  0  0  0  0  0  0  0  0  0
    2.6711   -4.9329    1.1964 C   0  0  0  0  0  0  0  0  0  0  0  0
    2.0951   -5.7859    1.8576 O   0  0  0  0  0  0  0  0  0  0  0  0
    3.4184   -5.1466    0.0949 N   0  0  0  0  0  0  0  0  0  0  0  0
    3.4212   -3.8719   -0.5932 C   0  0  1  0  0  0  0  0  0  0  0  0
    2.0570   -3.6923   -1.3764 C   0  0  0  0  0  0  0  0  0  0  0  0
    4.4615   -3.2292   -1.4925 C   0  0  0  0  0  0  0  0  0  0  0  0
    5.1085   -3.7865   -2.3821 O   0  0  0  0  0  0  0  0  0  0  0  0
    4.4299   -1.9145   -1.1980 N   0  0  0  0  0  0  0  0  0  0  0  0
    5.0280   -0.8962   -2.0427 C   0  0  0  0  0  0  0  0  0  0  0  0
    3.7994   -1.6910   -0.0190 C   0  0  0  0  0  0  0  0  0  0  0  0
    3.4948   -0.6185    0.5093 O   0  0  0  0  0  0  0  0  0  0  0  0
    6.1591   -2.5754    3.1650 H   0  0  0  0  0  0  0  0  0  0  0  0
    4.4168   -2.6747    3.4403 H   0  0  0  0  0  0  0  0  0  0  0  0
    5.1058   -1.3445    2.5063 H   0  0  0  0  0  0  0  0  0  0  0  0
    5.9079   -2.9915    0.7909 H   0  0  0  0  0  0  0  0  0  0  0  0
    5.2328   -4.3067    1.6954 H   0  0  0  0  0  0  0  0  0  0  0  0
    2.2542   -3.2044    2.3321 H   0  0  0  0  0  0  0  0  0  0  0  0
    3.6061   -6.0461   -0.3534 H   0  0  0  0  0  0  0  0  0  0  0  0
    1.8825   -2.6687   -1.7094 H   0  0  0  0  0  0  0  0  0  0  0  0
    1.1708   -4.0300   -0.8440 H   0  0  0  0  0  0  0  0  0  0  0  0
    2.0323   -4.2492   -2.3103 H   0  0  0  0  0  0  0  0  0  0  0  0
    4.8304    0.1008   -1.6590 H   0  0  0  0  0  0  0  0  0  0  0  0
    4.6299   -0.9374   -3.0553 H   0  0  0  0  0  0  0  0  0  0  0  0
    6.0995   -1.0671   -2.0693 H   0  0  0  0  0  0  0  0  0  0  0  0
  1  2  1  0
  1 16  1  0
  1 17  1  0
  1 18  1  0
  3  2  1  1
  2 19  1  0
  2 20  1  0
  3  8  1  0
  3 14  1  0
  3  4  1  0
  4  5  1  0
  4 21  1  0
  5  6  2  0
  5  7  1  0
  7  8  1  0
  7 22  1  0
  8  9  1  6
  8 10  1  0
  9 23  1  0
  9 24  1  0
  9 25  1  0
 10 11  2  0
 10 12  1  0
 12 13  1  0
 12 14  1  0
 13 26  1  0
 13 27  1  0
 13 28  1  0
 14 15  2  0
M  END
>  <i_m_ct_stereo_status>  (186) 
1

>  <s_m_source_file>  (186) 
/var/tmp/pbs.5076255.sched01/tmpe2rv0q7i/42k21vmx8r.sdf

>  <i_m_source_file_index>  (186) 
41

>  <i_lp_mmshare_version>  (186) 
48012

>  <i_f3d_flags>  (186) 
0

>  <s_epik_input>  (186) 
W0NIM11bQ0gyXVtDQEBdMTJbQ0BdKFtDSDNdKShbTkhdQyg9TylbTkhdMSlDKD1PKU4oW0NIM10pQzI9Tw==

>  <s_epik_cmdline>  (186) 
J2VwaWtfcHl0aG9uJywgJy1waHQnLCAnMi4wJywgJy1waCcsICc3LjAnLCAnLXRuJywgJzgnLCAnLW1hJywgJzIwMCcsICctaW1hZScsICc8aW5maWxlLm1hZT4nLCAnLW9tYWUnLCAnPG91dGZpbGUubWFlPic=

>  <r_lp_tautomer_probability>  (186) 
1

>  <r_epik_Ionization_Penalty>  (186) 
2.90864e-05

>  <r_epik_Ionization_Penalty_Charging>  (186) 
0

>  <r_epik_Ionization_Penalty_Neutral>  (186) 
2.90864e-05

>  <r_epik_State_Penalty>  (186) 
-0

>  <r_epik_Charging_Adjusted_Penalty>  (186) 
0

>  <i_epik_Tot_Q>  (186) 
0

>  <i_epik_Tot_abs_Q>  (186) 
0

>  <s_lp_Force_Field>  (186) 
OPLS3e

>  <r_lp_Energy>  (186) 
41.2134

>  <b_lp_Chiralities_Consistent>  (186) 
1

>  <s_lp_Variant>  (186) 
58:0-1

>  <s_i_glide_gridfile>  (186) 
pfpi4k_grid

>  <i_i_glide_lignum>  (186) 
41

>  <i_i_glide_rotatable_bonds>  (186) 
1

>  <r_i_docking_score>  (186) 
-3.25103

>  <r_i_glide_ligand_efficiency>  (186) 
-0.216736

>  <r_i_glide_ligand_efficiency_sa>  (186) 
-0.534516

>  <r_i_glide_ligand_efficiency_ln>  (186) 
-0.87675

>  <r_i_glide_gscore>  (186) 
-3.25103

>  <r_i_glide_lipo>  (186) 
-0.0947156

>  <r_i_glide_hbond>  (186) 
-0.0259667

>  <r_i_glide_metal>  (186) 
-0

>  <r_i_glide_rewards>  (186) 
-1.96897

>  <r_i_glide_evdw>  (186) 
-15.0014

>  <r_i_glide_ecoul>  (186) 
-1.77072

>  <r_i_glide_erotb>  (186) 
0

>  <r_i_glide_esite>  (186) 
-0.145703

>  <r_i_glide_emodel>  (186) 
-20.9834

>  <r_i_glide_energy>  (186) 
-16.7721

>  <r_i_glide_einternal>  (186) 
0.0342004

>  <r_i_glide_intrahb_reward>  (186) 
-0

>  <i_i_glide_confnum>  (186) 
2

>  <i_i_glide_posenum>  (186) 
9

>  <r_i_glide_eff_state_penalty>  (186) 
0

>  <ligand_id>  (186) 
58

>  <original_smiles>  (186) 
CCC12NC(=O)NC1(C)C(=O)N(C)C2=O

>  <smiles>  (186) 
[H]N1C(=O)N([H])C2(C([H])([H])C([H])([H])[H])C(=O)N(C([H])([H])[H])C(=O)C12C([H])([H])[H]

$$$$
59:0:0
     RDKit          3D

 27 29  0  0  1  0  0  0  0  0999 V2000
    4.5397   -3.4790   -3.8337 C   0  0  0  0  0  0  0  0  0  0  0  0
    3.2501   -2.9412   -3.6799 C   0  0  0  0  0  0  0  0  0  0  0  0
    2.9171   -2.2597   -2.4929 C   0  0  0  0  0  0  0  0  0  0  0  0
    3.8503   -2.0929   -1.4468 C   0  0  0  0  0  0  0  0  0  0  0  0
    3.4143   -1.3674   -0.3151 N   0  0  0  0  0  0  0  0  0  0  0  0
    4.0614   -0.9959    0.8821 C   0  0  0  0  0  0  0  0  0  0  0  0
    5.3401   -1.3594    1.0799 N   0  0  0  0  0  0  0  0  0  0  0  0
    5.9267   -0.9885    2.2106 C   0  0  0  0  0  0  0  0  0  0  0  0
    5.3968   -0.2597    3.1887 N   0  0  0  0  0  0  0  0  0  0  0  0
    4.1100    0.1179    3.0326 C   0  0  0  0  0  0  0  0  0  0  0  0
    3.4366    0.8883    4.0050 C   0  0  0  0  0  0  0  0  0  0  0  0
    2.1559    1.3000    3.9004 N   0  0  0  0  0  0  0  0  0  0  0  0
    1.4785    0.9544    2.7828 C   0  0  0  0  0  0  0  0  0  0  0  0
    2.0333    0.1834    1.7493 C   0  0  0  0  0  0  0  0  0  0  0  0
    3.3787   -0.2395    1.8670 C   0  0  0  0  0  0  0  0  0  0  0  0
    5.1410   -2.6573   -1.6130 C   0  0  0  0  0  0  0  0  0  0  0  0
    5.4779   -3.3353   -2.7980 C   0  0  0  0  0  0  0  0  0  0  0  0
    4.8074   -4.0167   -4.7328 H   0  0  0  0  0  0  0  0  0  0  0  0
    2.5088   -3.0547   -4.4585 H   0  0  0  0  0  0  0  0  0  0  0  0
    1.9163   -1.8656   -2.3956 H   0  0  0  0  0  0  0  0  0  0  0  0
    6.9611   -1.2560    2.3146 H   0  0  0  0  0  0  0  0  0  0  0  0
    3.9583    1.1926    4.8972 H   0  0  0  0  0  0  0  0  0  0  0  0
    0.4541    1.2879    2.7164 H   0  0  0  0  0  0  0  0  0  0  0  0
    1.4207   -0.0537    0.8984 H   0  0  0  0  0  0  0  0  0  0  0  0
    5.9135   -2.6018   -0.8651 H   0  0  0  0  0  0  0  0  0  0  0  0
    6.4727   -3.7481   -2.9009 H   0  0  0  0  0  0  0  0  0  0  0  0
    2.4343   -1.0681   -0.3676 H   0  0  0  0  0  0  0  0  0  0  0  0
  1 17  2  0
  1  2  1  0
  1 18  1  0
  2  3  2  0
  2 19  1  0
  3  4  1  0
  3 20  1  0
  4  5  1  0
  4 16  2  0
  5  6  1  0
  5 27  1  0
  6 15  1  0
  6  7  2  0
  7  8  1  0
  8  9  2  0
  8 21  1  0
  9 10  1  0
 10 15  2  0
 10 11  1  0
 11 12  2  0
 11 22  1  0
 12 13  1  0
 13 14  2  0
 13 23  1  0
 14 15  1  0
 14 24  1  0
 16 17  1  0
 16 25  1  0
 17 26  1  0
M  END
>  <i_m_ct_stereo_status>  (187) 
1

>  <s_m_source_file>  (187) 
/var/tmp/pbs.5076255.sched01/tmpe2rv0q7i/42k21vmx8r.sdf

>  <i_m_source_file_index>  (187) 
42

>  <i_lp_mmshare_version>  (187) 
48012

>  <i_f3d_flags>  (187) 
0

>  <s_epik_input>  (187) 
W2NIXTFbY0hdW2NIXVtjSF1bY0hdYzEvTj1jKFxbbkhdW2NIXW4yKWMoYzIzKVtjSF1bY0hdbltjSF0z

>  <s_epik_cmdline>  (187) 
J2VwaWtfcHl0aG9uJywgJy1waHQnLCAnMi4wJywgJy1waCcsICc3LjAnLCAnLXRuJywgJzgnLCAnLW1hJywgJzIwMCcsICctaW1hZScsICc8aW5maWxlLm1hZT4nLCAnLW9tYWUnLCAnPG91dGZpbGUubWFlPic=

>  <r_lp_tautomer_probability>  (187) 
1

>  <r_epik_Ionization_Penalty>  (187) 
4.47959e-06

>  <r_epik_Ionization_Penalty_Charging>  (187) 
0

>  <r_epik_Ionization_Penalty_Neutral>  (187) 
4.47959e-06

>  <r_epik_State_Penalty>  (187) 
-0

>  <r_epik_Charging_Adjusted_Penalty>  (187) 
0

>  <i_epik_Tot_Q>  (187) 
0

>  <i_epik_Tot_abs_Q>  (187) 
0

>  <s_lp_Force_Field>  (187) 
OPLS3e

>  <r_lp_Energy>  (187) 
30.3894

>  <b_lp_Chiralities_Consistent>  (187) 
1

>  <s_lp_Variant>  (187) 
59:0-1

>  <s_i_glide_gridfile>  (187) 
pfpi4k_grid

>  <i_i_glide_lignum>  (187) 
42

>  <i_i_glide_rotatable_bonds>  (187) 
2

>  <r_i_docking_score>  (187) 
-4.09707

>  <r_i_glide_ligand_efficiency>  (187) 
-0.241004

>  <r_i_glide_ligand_efficiency_sa>  (187) 
-0.619689

>  <r_i_glide_ligand_efficiency_ln>  (187) 
-1.06883

>  <r_i_glide_gscore>  (187) 
-4.09707

>  <r_i_glide_lipo>  (187) 
-0.57309

>  <r_i_glide_hbond>  (187) 
-0.16

>  <r_i_glide_metal>  (187) 
-0

>  <r_i_glide_rewards>  (187) 
-2.02269

>  <r_i_glide_evdw>  (187) 
-21.5624

>  <r_i_glide_ecoul>  (187) 
-5.64902

>  <r_i_glide_erotb>  (187) 
0.68419

>  <r_i_glide_esite>  (187) 
-0.1

>  <r_i_glide_emodel>  (187) 
-34.5706

>  <r_i_glide_energy>  (187) 
-27.2115

>  <r_i_glide_einternal>  (187) 
0.372348

>  <r_i_glide_intrahb_reward>  (187) 
-0

>  <i_i_glide_confnum>  (187) 
5

>  <i_i_glide_posenum>  (187) 
40

>  <r_i_glide_eff_state_penalty>  (187) 
0

>  <ligand_id>  (187) 
59

>  <original_smiles>  (187) 
c1ccc(N=c2[nH]cnc3cnccc23)cc1

>  <smiles>  (187) 
[H]c1nc(N([H])c2c([H])c([H])c([H])c([H])c2[H])c2c([H])c([H])nc([H])c2n1

$$$$
59:0:1
     RDKit          3D

 27 29  0  0  1  0  0  0  0  0999 V2000
    3.2643   -1.4302   -3.9485 C   0  0  0  0  0  0  0  0  0  0  0  0
    3.9934   -0.5645   -3.1198 C   0  0  0  0  0  0  0  0  0  0  0  0
    4.3241   -0.9541   -1.8090 C   0  0  0  0  0  0  0  0  0  0  0  0
    3.9275   -2.2065   -1.3027 C   0  0  0  0  0  0  0  0  0  0  0  0
    4.2690   -2.4963    0.0314 N   0  0  0  0  0  0  0  0  0  0  0  0
    4.4446   -3.7199    0.6998 C   0  0  0  0  0  0  0  0  0  0  0  0
    4.4147   -4.8731   -0.0006 N   0  0  0  0  0  0  0  0  0  0  0  0
    4.6121   -6.0110    0.6662 C   0  0  0  0  0  0  0  0  0  0  0  0
    4.8461   -6.1353    1.9718 N   0  0  0  0  0  0  0  0  0  0  0  0
    4.8913   -5.0021    2.7032 C   0  0  0  0  0  0  0  0  0  0  0  0
    5.1366   -5.0191    4.0933 C   0  0  0  0  0  0  0  0  0  0  0  0
    5.1917   -3.9117    4.8682 N   0  0  0  0  0  0  0  0  0  0  0  0
    5.0014   -2.7166    4.2730 C   0  0  0  0  0  0  0  0  0  0  0  0
    4.7500   -2.5669    2.8951 C   0  0  0  0  0  0  0  0  0  0  0  0
    4.6922   -3.7323    2.0952 C   0  0  0  0  0  0  0  0  0  0  0  0
    3.1696   -3.0609   -2.1371 C   0  0  0  0  0  0  0  0  0  0  0  0
    2.8478   -2.6808   -3.4572 C   0  0  0  0  0  0  0  0  0  0  0  0
    3.0085   -1.1171   -4.9505 H   0  0  0  0  0  0  0  0  0  0  0  0
    4.2778    0.4125   -3.4766 H   0  0  0  0  0  0  0  0  0  0  0  0
    4.8644   -0.2666   -1.1768 H   0  0  0  0  0  0  0  0  0  0  0  0
    4.5809   -6.9276    0.0959 H   0  0  0  0  0  0  0  0  0  0  0  0
    5.2948   -5.9562    4.6053 H   0  0  0  0  0  0  0  0  0  0  0  0
    5.0533   -1.8495    4.9169 H   0  0  0  0  0  0  0  0  0  0  0  0
    4.6023   -1.5787    2.4895 H   0  0  0  0  0  0  0  0  0  0  0  0
    2.8118   -4.0107   -1.7753 H   0  0  0  0  0  0  0  0  0  0  0  0
    2.2665   -3.3414   -4.0832 H   0  0  0  0  0  0  0  0  0  0  0  0
    4.4905   -1.6915    0.5960 H   0  0  0  0  0  0  0  0  0  0  0  0
  1 17  2  0
  1  2  1  0
  1 18  1  0
  2  3  2  0
  2 19  1  0
  3  4  1  0
  3 20  1  0
  4  5  1  0
  4 16  2  0
  5  6  1  0
  5 27  1  0
  6 15  1  0
  6  7  2  0
  7  8  1  0
  8  9  2  0
  8 21  1  0
  9 10  1  0
 10 15  2  0
 10 11  1  0
 11 12  2  0
 11 22  1  0
 12 13  1  0
 13 14  2  0
 13 23  1  0
 14 15  1  0
 14 24  1  0
 16 17  1  0
 16 25  1  0
 17 26  1  0
M  END
>  <i_m_ct_stereo_status>  (188) 
1

>  <s_m_source_file>  (188) 
/var/tmp/pbs.5076255.sched01/tmpe2rv0q7i/42k21vmx8r.sdf

>  <i_m_source_file_index>  (188) 
42

>  <i_lp_mmshare_version>  (188) 
48012

>  <i_f3d_flags>  (188) 
0

>  <s_epik_input>  (188) 
W2NIXTFbY0hdW2NIXVtjSF1bY0hdYzEvTj1jKFxbbkhdW2NIXW4yKWMoYzIzKVtjSF1bY0hdbltjSF0z

>  <s_epik_cmdline>  (188) 
J2VwaWtfcHl0aG9uJywgJy1waHQnLCAnMi4wJywgJy1waCcsICc3LjAnLCAnLXRuJywgJzgnLCAnLW1hJywgJzIwMCcsICctaW1hZScsICc8aW5maWxlLm1hZT4nLCAnLW9tYWUnLCAnPG91dGZpbGUubWFlPic=

>  <r_lp_tautomer_probability>  (188) 
1

>  <r_epik_Ionization_Penalty>  (188) 
4.47959e-06

>  <r_epik_Ionization_Penalty_Charging>  (188) 
0

>  <r_epik_Ionization_Penalty_Neutral>  (188) 
4.47959e-06

>  <r_epik_State_Penalty>  (188) 
-0

>  <r_epik_Charging_Adjusted_Penalty>  (188) 
0

>  <i_epik_Tot_Q>  (188) 
0

>  <i_epik_Tot_abs_Q>  (188) 
0

>  <s_lp_Force_Field>  (188) 
OPLS3e

>  <r_lp_Energy>  (188) 
30.3894

>  <b_lp_Chiralities_Consistent>  (188) 
1

>  <s_lp_Variant>  (188) 
59:0-1

>  <s_i_glide_gridfile>  (188) 
pfpi4k_grid

>  <i_i_glide_lignum>  (188) 
42

>  <i_i_glide_rotatable_bonds>  (188) 
2

>  <r_i_docking_score>  (188) 
-3.05155

>  <r_i_glide_ligand_efficiency>  (188) 
-0.179503

>  <r_i_glide_ligand_efficiency_sa>  (188) 
-0.461552

>  <r_i_glide_ligand_efficiency_ln>  (188) 
-0.796081

>  <r_i_glide_gscore>  (188) 
-3.05155

>  <r_i_glide_lipo>  (188) 
-0.610936

>  <r_i_glide_hbond>  (188) 
0

>  <r_i_glide_metal>  (188) 
-0

>  <r_i_glide_rewards>  (188) 
-2.04198

>  <r_i_glide_evdw>  (188) 
-20.6262

>  <r_i_glide_ecoul>  (188) 
-0.288048

>  <r_i_glide_erotb>  (188) 
0.68419

>  <r_i_glide_esite>  (188) 
-0.00830622

>  <r_i_glide_emodel>  (188) 
-26.3837

>  <r_i_glide_energy>  (188) 
-20.9142

>  <r_i_glide_einternal>  (188) 
0.321747

>  <r_i_glide_intrahb_reward>  (188) 
-0

>  <i_i_glide_confnum>  (188) 
1

>  <i_i_glide_posenum>  (188) 
11

>  <r_i_glide_eff_state_penalty>  (188) 
0

>  <ligand_id>  (188) 
59

>  <original_smiles>  (188) 
c1ccc(N=c2[nH]cnc3cnccc23)cc1

>  <smiles>  (188) 
[H]c1nc(N([H])c2c([H])c([H])c([H])c([H])c2[H])c2c([H])c([H])nc([H])c2n1

$$$$
59:0:2
     RDKit          3D

 27 29  0  0  1  0  0  0  0  0999 V2000
    0.1157   -7.3502    3.3677 C   0  0  0  0  0  0  0  0  0  0  0  0
    0.9706   -6.4004    3.9527 C   0  0  0  0  0  0  0  0  0  0  0  0
    1.8118   -5.6075    3.1450 C   0  0  0  0  0  0  0  0  0  0  0  0
    1.8064   -5.7517    1.7370 C   0  0  0  0  0  0  0  0  0  0  0  0
    2.6292   -4.9800    0.8903 N   0  0  0  0  0  0  0  0  0  0  0  0
    3.0772   -3.6564    1.0477 C   0  0  0  0  0  0  0  0  0  0  0  0
    2.5649   -2.9002    2.0445 N   0  0  0  0  0  0  0  0  0  0  0  0
    3.0167   -1.6505    2.1726 C   0  0  0  0  0  0  0  0  0  0  0  0
    3.9372   -1.0531    1.4169 N   0  0  0  0  0  0  0  0  0  0  0  0
    4.4503   -1.7742    0.4009 C   0  0  0  0  0  0  0  0  0  0  0  0
    5.4119   -1.2317   -0.4773 C   0  0  0  0  0  0  0  0  0  0  0  0
    5.9651   -1.9042   -1.5144 N   0  0  0  0  0  0  0  0  0  0  0  0
    5.5635   -3.1796   -1.7119 C   0  0  0  0  0  0  0  0  0  0  0  0
    4.6147   -3.8362   -0.9010 C   0  0  0  0  0  0  0  0  0  0  0  0
    4.0461   -3.1163    0.1695 C   0  0  0  0  0  0  0  0  0  0  0  0
    0.9465   -6.7123    1.1606 C   0  0  0  0  0  0  0  0  0  0  0  0
    0.1034   -7.5015    1.9687 C   0  0  0  0  0  0  0  0  0  0  0  0
   -0.5101   -7.9847    3.9819 H   0  0  0  0  0  0  0  0  0  0  0  0
    1.0054   -6.2976    5.0214 H   0  0  0  0  0  0  0  0  0  0  0  0
    2.4701   -4.9076    3.6287 H   0  0  0  0  0  0  0  0  0  0  0  0
    2.6236   -1.0621    2.9885 H   0  0  0  0  0  0  0  0  0  0  0  0
    5.7535   -0.2197   -0.3376 H   0  0  0  0  0  0  0  0  0  0  0  0
    6.0122   -3.7073   -2.5448 H   0  0  0  0  0  0  0  0  0  0  0  0
    4.3349   -4.8520   -1.1228 H   0  0  0  0  0  0  0  0  0  0  0  0
    0.9353   -6.8482    0.0913 H   0  0  0  0  0  0  0  0  0  0  0  0
   -0.5353   -8.2415    1.5083 H   0  0  0  0  0  0  0  0  0  0  0  0
    2.9997   -5.4469    0.0704 H   0  0  0  0  0  0  0  0  0  0  0  0
  1 17  2  0
  1  2  1  0
  1 18  1  0
  2  3  2  0
  2 19  1  0
  3  4  1  0
  3 20  1  0
  4  5  1  0
  4 16  2  0
  5  6  1  0
  5 27  1  0
  6 15  1  0
  6  7  2  0
  7  8  1  0
  8  9  2  0
  8 21  1  0
  9 10  1  0
 10 15  2  0
 10 11  1  0
 11 12  2  0
 11 22  1  0
 12 13  1  0
 13 14  2  0
 13 23  1  0
 14 15  1  0
 14 24  1  0
 16 17  1  0
 16 25  1  0
 17 26  1  0
M  END
>  <i_m_ct_stereo_status>  (189) 
1

>  <s_m_source_file>  (189) 
/var/tmp/pbs.5076255.sched01/tmpe2rv0q7i/42k21vmx8r.sdf

>  <i_m_source_file_index>  (189) 
42

>  <i_lp_mmshare_version>  (189) 
48012

>  <i_f3d_flags>  (189) 
0

>  <s_epik_input>  (189) 
W2NIXTFbY0hdW2NIXVtjSF1bY0hdYzEvTj1jKFxbbkhdW2NIXW4yKWMoYzIzKVtjSF1bY0hdbltjSF0z

>  <s_epik_cmdline>  (189) 
J2VwaWtfcHl0aG9uJywgJy1waHQnLCAnMi4wJywgJy1waCcsICc3LjAnLCAnLXRuJywgJzgnLCAnLW1hJywgJzIwMCcsICctaW1hZScsICc8aW5maWxlLm1hZT4nLCAnLW9tYWUnLCAnPG91dGZpbGUubWFlPic=

>  <r_lp_tautomer_probability>  (189) 
1

>  <r_epik_Ionization_Penalty>  (189) 
4.47959e-06

>  <r_epik_Ionization_Penalty_Charging>  (189) 
0

>  <r_epik_Ionization_Penalty_Neutral>  (189) 
4.47959e-06

>  <r_epik_State_Penalty>  (189) 
-0

>  <r_epik_Charging_Adjusted_Penalty>  (189) 
0

>  <i_epik_Tot_Q>  (189) 
0

>  <i_epik_Tot_abs_Q>  (189) 
0

>  <s_lp_Force_Field>  (189) 
OPLS3e

>  <r_lp_Energy>  (189) 
30.3894

>  <b_lp_Chiralities_Consistent>  (189) 
1

>  <s_lp_Variant>  (189) 
59:0-1

>  <s_i_glide_gridfile>  (189) 
pfpi4k_grid

>  <i_i_glide_lignum>  (189) 
42

>  <i_i_glide_rotatable_bonds>  (189) 
2

>  <r_i_docking_score>  (189) 
-2.93584

>  <r_i_glide_ligand_efficiency>  (189) 
-0.172696

>  <r_i_glide_ligand_efficiency_sa>  (189) 
-0.444051

>  <r_i_glide_ligand_efficiency_ln>  (189) 
-0.765895

>  <r_i_glide_gscore>  (189) 
-2.93584

>  <r_i_glide_lipo>  (189) 
-0.108627

>  <r_i_glide_hbond>  (189) 
-0.073757

>  <r_i_glide_metal>  (189) 
-0

>  <r_i_glide_rewards>  (189) 
-1.89378

>  <r_i_glide_evdw>  (189) 
-20.6262

>  <r_i_glide_ecoul>  (189) 
-3.14218

>  <r_i_glide_erotb>  (189) 
0.68419

>  <r_i_glide_esite>  (189) 
-0.0412276

>  <r_i_glide_emodel>  (189) 
-27.6926

>  <r_i_glide_energy>  (189) 
-23.7684

>  <r_i_glide_einternal>  (189) 
2.82682

>  <r_i_glide_intrahb_reward>  (189) 
-0

>  <i_i_glide_confnum>  (189) 
2

>  <i_i_glide_posenum>  (189) 
36

>  <r_i_glide_eff_state_penalty>  (189) 
0

>  <ligand_id>  (189) 
59

>  <original_smiles>  (189) 
c1ccc(N=c2[nH]cnc3cnccc23)cc1

>  <smiles>  (189) 
[H]c1nc(N([H])c2c([H])c([H])c([H])c([H])c2[H])c2c([H])c([H])nc([H])c2n1

$$$$
60:0:0
     RDKit          3D

 37 41  0  0  1  0  0  0  0  0999 V2000
    7.8493   -4.3406    1.3841 C   0  0  0  0  0  0  0  0  0  0  0  0
    7.0275   -3.1666    1.2745 O   0  0  0  0  0  0  0  0  0  0  0  0
    5.6095   -3.3596    1.1407 C   0  0  2  0  0  0  0  0  0  0  0  0
    5.0897   -3.9836    2.4371 C   0  0  0  0  0  0  0  0  0  0  0  0
    4.8390   -5.3082    2.5128 C   0  0  0  0  0  0  0  0  0  0  0  0
    5.0637   -6.1620    1.3484 C   0  0  0  0  0  0  0  0  0  0  0  0
    5.1637   -5.6257    0.1138 C   0  0  0  0  0  0  0  0  0  0  0  0
    5.0915   -4.1227   -0.0961 C   0  0  2  0  0  0  0  0  0  0  0  0
    5.9879   -3.4516   -1.1683 C   0  0  0  0  0  0  0  0  0  0  0  0
    5.4970   -2.0000   -0.9278 C   0  0  1  0  0  0  0  0  0  0  0  0
    4.3455   -1.9635   -1.9202 C   0  0  0  0  0  0  0  0  0  0  0  0
    4.2630   -1.1450   -3.0591 C   0  0  0  0  0  0  0  0  0  0  0  0
    3.1926   -1.3553   -3.9483 C   0  0  0  0  0  0  0  0  0  0  0  0
    2.2298   -2.3624   -3.6921 C   0  0  0  0  0  0  0  0  0  0  0  0
    2.3046   -3.1482   -2.5297 C   0  0  0  0  0  0  0  0  0  0  0  0
    3.3816   -2.9555   -1.6591 C   0  0  0  0  0  0  0  0  0  0  0  0
    3.5726   -3.6478   -0.3144 C   0  0  2  0  0  0  0  0  0  0  0  0
    3.4945   -2.4335    0.6296 C   0  0  0  0  0  0  0  0  0  0  0  0
    4.9889   -2.0578    0.5975 C   0  0  1  0  0  0  0  0  0  0  0  0
    8.8943   -4.0480    1.4793 H   0  0  0  0  0  0  0  0  0  0  0  0
    7.7744   -4.9808    0.5042 H   0  0  0  0  0  0  0  0  0  0  0  0
    7.5941   -4.9423    2.2545 H   0  0  0  0  0  0  0  0  0  0  0  0
    4.9393   -3.3211    3.2778 H   0  0  0  0  0  0  0  0  0  0  0  0
    4.4968   -5.7403    3.4431 H   0  0  0  0  0  0  0  0  0  0  0  0
    5.1973   -7.2260    1.4873 H   0  0  0  0  0  0  0  0  0  0  0  0
    5.3488   -6.2391   -0.7448 H   0  0  0  0  0  0  0  0  0  0  0  0
    7.0639   -3.5269   -1.0126 H   0  0  0  0  0  0  0  0  0  0  0  0
    5.8184   -3.8382   -2.1774 H   0  0  0  0  0  0  0  0  0  0  0  0
    6.2554   -1.2457   -1.1186 H   0  0  0  0  0  0  0  0  0  0  0  0
    5.0060   -0.3884   -3.2475 H   0  0  0  0  0  0  0  0  0  0  0  0
    3.1013   -0.7416   -4.8290 H   0  0  0  0  0  0  0  0  0  0  0  0
    1.3879   -2.4965   -4.3469 H   0  0  0  0  0  0  0  0  0  0  0  0
    1.5392   -3.8769   -2.3100 H   0  0  0  0  0  0  0  0  0  0  0  0
    2.8137   -4.4051   -0.1088 H   0  0  0  0  0  0  0  0  0  0  0  0
    2.8389   -1.6339    0.2730 H   0  0  0  0  0  0  0  0  0  0  0  0
    3.1346   -2.6927    1.6257 H   0  0  0  0  0  0  0  0  0  0  0  0
    5.2205   -1.1653    1.1849 H   0  0  0  0  0  0  0  0  0  0  0  0
  1  2  1  0
  1 20  1  0
  1 21  1  0
  1 22  1  0
  3  2  1  1
  3  8  1  0
  3 19  1  0
  3  4  1  0
  4  5  2  0
  4 23  1  0
  5  6  1  0
  5 24  1  0
  6  7  2  0
  6 25  1  0
  7  8  1  0
  7 26  1  0
  8 17  1  0
  8  9  1  6
  9 10  1  0
  9 27  1  0
  9 28  1  0
 10 19  1  0
 10 11  1  0
 10 29  1  1
 11 16  2  0
 11 12  1  0
 12 13  2  0
 12 30  1  0
 13 14  1  0
 13 31  1  0
 14 15  2  0
 14 32  1  0
 15 16  1  0
 15 33  1  0
 16 17  1  0
 17 18  1  0
 17 34  1  1
 18 19  1  0
 18 35  1  0
 18 36  1  0
 19 37  1  1
M  END
>  <i_m_ct_stereo_status>  (190) 
1

>  <s_m_source_file>  (190) 
/var/tmp/pbs.5076255.sched01/tmpbzpkhbzu/844yn2io63.sdf

>  <i_m_source_file_index>  (190) 
1

>  <i_lp_mmshare_version>  (190) 
48012

>  <i_f3d_flags>  (190) 
0

>  <s_epik_input>  (190) 
W0NIXTE9W0NIXVtDSF09W0NIXVtDQF0oW0NAXTEyMykoT1tDSDNdKVtDQEhdNFtDQEBIXShbQ0gyXTIpYzVjKFtDQEBIXTNbQ0gyXTQpW2NIXVtjSF1bY0hdW2NIXTU=

>  <s_epik_cmdline>  (190) 
J2VwaWtfcHl0aG9uJywgJy1waHQnLCAnMi4wJywgJy1waCcsICc3LjAnLCAnLXRuJywgJzgnLCAnLW1hJywgJzIwMCcsICctaW1hZScsICc8aW5maWxlLm1hZT4nLCAnLW9tYWUnLCAnPG91dGZpbGUubWFlPic=

>  <r_lp_tautomer_probability>  (190) 
1

>  <r_epik_Ionization_Penalty>  (190) 
2.10598e-12

>  <r_epik_Ionization_Penalty_Charging>  (190) 
0

>  <r_epik_Ionization_Penalty_Neutral>  (190) 
2.10598e-12

>  <r_epik_State_Penalty>  (190) 
-0

>  <r_epik_Charging_Adjusted_Penalty>  (190) 
0

>  <i_epik_Tot_Q>  (190) 
0

>  <i_epik_Tot_abs_Q>  (190) 
0

>  <s_lp_Force_Field>  (190) 
OPLS3e

>  <r_lp_Energy>  (190) 
99.6236

>  <b_lp_Chiralities_Consistent>  (190) 
1

>  <s_lp_Variant>  (190) 
60:0-1

>  <s_i_glide_gridfile>  (190) 
pfpi4k_grid

>  <i_i_glide_lignum>  (190) 
1

>  <i_i_glide_rotatable_bonds>  (190) 
1

>  <r_i_docking_score>  (190) 
-3.7803

>  <r_i_glide_ligand_efficiency>  (190) 
-0.198963

>  <r_i_glide_ligand_efficiency_sa>  (190) 
-0.530913

>  <r_i_glide_ligand_efficiency_ln>  (190) 
-0.958386

>  <r_i_glide_gscore>  (190) 
-3.7803

>  <r_i_glide_lipo>  (190) 
-1.13126

>  <r_i_glide_hbond>  (190) 
0

>  <r_i_glide_metal>  (190) 
-0

>  <r_i_glide_rewards>  (190) 
-1.70226

>  <r_i_glide_evdw>  (190) 
-18.7348

>  <r_i_glide_ecoul>  (190) 
-0.0669374

>  <r_i_glide_erotb>  (190) 
0

>  <r_i_glide_esite>  (190) 
0

>  <r_i_glide_emodel>  (190) 
-22.2782

>  <r_i_glide_energy>  (190) 
-18.8017

>  <r_i_glide_einternal>  (190) 
1.9628

>  <r_i_glide_intrahb_reward>  (190) 
-0

>  <i_i_glide_confnum>  (190) 
1

>  <i_i_glide_posenum>  (190) 
35

>  <r_i_glide_eff_state_penalty>  (190) 
0

>  <ligand_id>  (190) 
60

>  <original_smiles>  (190) 
COC12C=CC=CC13CC1c4ccccc4C3CC12

>  <smiles>  (190) 
[H]C1=C([H])C2(OC([H])([H])[H])C3([H])C([H])([H])C4([H])c5c([H])c([H])c([H])c([H])c5C3([H])C([H])([H])C24C([H])=C1[H]

$$$$
60:0:1
     RDKit          3D

 37 41  0  0  1  0  0  0  0  0999 V2000
    5.3920   -0.9034    3.5064 C   0  0  0  0  0  0  0  0  0  0  0  0
    5.9390   -1.5880    2.3879 O   0  0  0  0  0  0  0  0  0  0  0  0
    5.0812   -2.4925    1.6832 C   0  0  2  0  0  0  0  0  0  0  0  0
    4.7509   -3.6643    2.6142 C   0  0  0  0  0  0  0  0  0  0  0  0
    5.4428   -4.8227    2.5545 C   0  0  0  0  0  0  0  0  0  0  0  0
    6.5295   -4.9915    1.5981 C   0  0  0  0  0  0  0  0  0  0  0  0
    6.6409   -4.1592    0.5453 C   0  0  0  0  0  0  0  0  0  0  0  0
    5.6477   -3.0297    0.3408 C   0  0  2  0  0  0  0  0  0  0  0  0
    6.1823   -1.7031   -0.2223 C   0  0  0  0  0  0  0  0  0  0  0  0
    4.8232   -0.9487   -0.2305 C   0  0  1  0  0  0  0  0  0  0  0  0
    4.3443   -1.3003   -1.6369 C   0  0  0  0  0  0  0  0  0  0  0  0
    4.1407   -0.4110   -2.7109 C   0  0  0  0  0  0  0  0  0  0  0  0
    3.7696   -0.9224   -3.9669 C   0  0  0  0  0  0  0  0  0  0  0  0
    3.6328   -2.3163   -4.1426 C   0  0  0  0  0  0  0  0  0  0  0  0
    3.8720   -3.2034   -3.0799 C   0  0  0  0  0  0  0  0  0  0  0  0
    4.2266   -2.6899   -1.8255 C   0  0  0  0  0  0  0  0  0  0  0  0
    4.3746   -3.4931   -0.5286 C   0  0  2  0  0  0  0  0  0  0  0  0
    3.2188   -2.9042    0.2970 C   0  0  0  0  0  0  0  0  0  0  0  0
    3.9919   -1.7240    0.9113 C   0  0  1  0  0  0  0  0  0  0  0  0
    6.1536   -0.2330    3.9078 H   0  0  0  0  0  0  0  0  0  0  0  0
    5.1045   -1.5841    4.3086 H   0  0  0  0  0  0  0  0  0  0  0  0
    4.5364   -0.2860    3.2401 H   0  0  0  0  0  0  0  0  0  0  0  0
    3.9386   -3.5356    3.3140 H   0  0  0  0  0  0  0  0  0  0  0  0
    5.1894   -5.6369    3.2199 H   0  0  0  0  0  0  0  0  0  0  0  0
    7.2522   -5.7844    1.7419 H   0  0  0  0  0  0  0  0  0  0  0  0
    7.4406   -4.2570   -0.1710 H   0  0  0  0  0  0  0  0  0  0  0  0
    6.9397   -1.2262    0.3976 H   0  0  0  0  0  0  0  0  0  0  0  0
    6.6372   -1.8266   -1.2057 H   0  0  0  0  0  0  0  0  0  0  0  0
    4.9230    0.1210   -0.0550 H   0  0  0  0  0  0  0  0  0  0  0  0
    4.2237    0.6555   -2.5774 H   0  0  0  0  0  0  0  0  0  0  0  0
    3.5724   -0.2477   -4.7886 H   0  0  0  0  0  0  0  0  0  0  0  0
    3.3212   -2.7208   -5.0885 H   0  0  0  0  0  0  0  0  0  0  0  0
    3.7507   -4.2560   -3.2320 H   0  0  0  0  0  0  0  0  0  0  0  0
    4.2770   -4.5692   -0.6755 H   0  0  0  0  0  0  0  0  0  0  0  0
    2.3577   -2.5998   -0.2987 H   0  0  0  0  0  0  0  0  0  0  0  0
    2.8322   -3.5932    1.0447 H   0  0  0  0  0  0  0  0  0  0  0  0
    3.3521   -1.0826    1.5132 H   0  0  0  0  0  0  0  0  0  0  0  0
  1  2  1  0
  1 20  1  0
  1 21  1  0
  1 22  1  0
  3  2  1  1
  3  8  1  0
  3 19  1  0
  3  4  1  0
  4  5  2  0
  4 23  1  0
  5  6  1  0
  5 24  1  0
  6  7  2  0
  6 25  1  0
  7  8  1  0
  7 26  1  0
  8 17  1  0
  8  9  1  6
  9 10  1  0
  9 27  1  0
  9 28  1  0
 10 19  1  0
 10 11  1  0
 10 29  1  1
 11 16  2  0
 11 12  1  0
 12 13  2  0
 12 30  1  0
 13 14  1  0
 13 31  1  0
 14 15  2  0
 14 32  1  0
 15 16  1  0
 15 33  1  0
 16 17  1  0
 17 18  1  0
 17 34  1  6
 18 19  1  0
 18 35  1  0
 18 36  1  0
 19 37  1  1
M  END
>  <i_m_ct_stereo_status>  (191) 
1

>  <s_m_source_file>  (191) 
/var/tmp/pbs.5076255.sched01/tmpbzpkhbzu/844yn2io63.sdf

>  <i_m_source_file_index>  (191) 
1

>  <i_lp_mmshare_version>  (191) 
48012

>  <i_f3d_flags>  (191) 
0

>  <s_epik_input>  (191) 
W0NIXTE9W0NIXVtDSF09W0NIXVtDQF0oW0NAXTEyMykoT1tDSDNdKVtDQEhdNFtDQEBIXShbQ0gyXTIpYzVjKFtDQEBIXTNbQ0gyXTQpW2NIXVtjSF1bY0hdW2NIXTU=

>  <s_epik_cmdline>  (191) 
J2VwaWtfcHl0aG9uJywgJy1waHQnLCAnMi4wJywgJy1waCcsICc3LjAnLCAnLXRuJywgJzgnLCAnLW1hJywgJzIwMCcsICctaW1hZScsICc8aW5maWxlLm1hZT4nLCAnLW9tYWUnLCAnPG91dGZpbGUubWFlPic=

>  <r_lp_tautomer_probability>  (191) 
1

>  <r_epik_Ionization_Penalty>  (191) 
2.10598e-12

>  <r_epik_Ionization_Penalty_Charging>  (191) 
0

>  <r_epik_Ionization_Penalty_Neutral>  (191) 
2.10598e-12

>  <r_epik_State_Penalty>  (191) 
-0

>  <r_epik_Charging_Adjusted_Penalty>  (191) 
0

>  <i_epik_Tot_Q>  (191) 
0

>  <i_epik_Tot_abs_Q>  (191) 
0

>  <s_lp_Force_Field>  (191) 
OPLS3e

>  <r_lp_Energy>  (191) 
99.6236

>  <b_lp_Chiralities_Consistent>  (191) 
1

>  <s_lp_Variant>  (191) 
60:0-1

>  <s_i_glide_gridfile>  (191) 
pfpi4k_grid

>  <i_i_glide_lignum>  (191) 
1

>  <i_i_glide_rotatable_bonds>  (191) 
1

>  <r_i_docking_score>  (191) 
-3.59218

>  <r_i_glide_ligand_efficiency>  (191) 
-0.189062

>  <r_i_glide_ligand_efficiency_sa>  (191) 
-0.504493

>  <r_i_glide_ligand_efficiency_ln>  (191) 
-0.910694

>  <r_i_glide_gscore>  (191) 
-3.59218

>  <r_i_glide_lipo>  (191) 
-0.876963

>  <r_i_glide_hbond>  (191) 
0

>  <r_i_glide_metal>  (191) 
-0

>  <r_i_glide_rewards>  (191) 
-1.70226

>  <r_i_glide_evdw>  (191) 
-19.3725

>  <r_i_glide_ecoul>  (191) 
-0.295532

>  <r_i_glide_erotb>  (191) 
0

>  <r_i_glide_esite>  (191) 
0

>  <r_i_glide_emodel>  (191) 
-24.1431

>  <r_i_glide_energy>  (191) 
-19.668

>  <r_i_glide_einternal>  (191) 
0.0254039

>  <r_i_glide_intrahb_reward>  (191) 
-0

>  <i_i_glide_confnum>  (191) 
2

>  <i_i_glide_posenum>  (191) 
22

>  <r_i_glide_eff_state_penalty>  (191) 
0

>  <ligand_id>  (191) 
60

>  <original_smiles>  (191) 
COC12C=CC=CC13CC1c4ccccc4C3CC12

>  <smiles>  (191) 
[H]C1=C([H])C2(OC([H])([H])[H])C3([H])C([H])([H])C4([H])c5c([H])c([H])c([H])c([H])c5C3([H])C([H])([H])C24C([H])=C1[H]

$$$$
60:0:2
     RDKit          3D

 37 41  0  0  1  0  0  0  0  0999 V2000
    6.4928   -5.5519    2.6105 C   0  0  0  0  0  0  0  0  0  0  0  0
    5.8003   -4.3054    2.4664 O   0  0  0  0  0  0  0  0  0  0  0  0
    4.5223   -4.3380    1.8005 C   0  0  2  0  0  0  0  0  0  0  0  0
    3.5769   -5.2257    2.6217 C   0  0  0  0  0  0  0  0  0  0  0  0
    3.3389   -6.5035    2.2513 C   0  0  0  0  0  0  0  0  0  0  0  0
    3.9794   -7.0546    1.0615 C   0  0  0  0  0  0  0  0  0  0  0  0
    4.5125   -6.2389    0.1267 C   0  0  0  0  0  0  0  0  0  0  0  0
    4.4803   -4.7308    0.2997 C   0  0  2  0  0  0  0  0  0  0  0  0
    5.6905   -3.9003   -0.1804 C   0  0  0  0  0  0  0  0  0  0  0  0
    5.1379   -2.5096    0.2335 C   0  0  1  0  0  0  0  0  0  0  0  0
    4.4036   -2.1342   -1.0531 C   0  0  0  0  0  0  0  0  0  0  0  0
    4.7153   -1.0573   -1.9047 C   0  0  0  0  0  0  0  0  0  0  0  0
    4.0088   -0.9320   -3.1169 C   0  0  0  0  0  0  0  0  0  0  0  0
    3.0148   -1.8725   -3.4705 C   0  0  0  0  0  0  0  0  0  0  0  0
    2.7028   -2.9453   -2.6084 C   0  0  0  0  0  0  0  0  0  0  0  0
    3.4118   -3.0674   -1.4037 C   0  0  0  0  0  0  0  0  0  0  0  0
    3.1309   -4.0884   -0.2966 C   0  0  2  0  0  0  0  0  0  0  0  0
    2.7189   -3.1457    0.8484 C   0  0  0  0  0  0  0  0  0  0  0  0
    4.1253   -2.8964    1.4279 C   0  0  1  0  0  0  0  0  0  0  0  0
    7.4536   -5.4099    3.1028 H   0  0  0  0  0  0  0  0  0  0  0  0
    6.7019   -6.0033    1.6415 H   0  0  0  0  0  0  0  0  0  0  0  0
    5.9325   -6.2696    3.2113 H   0  0  0  0  0  0  0  0  0  0  0  0
    3.1281   -4.7962    3.5058 H   0  0  0  0  0  0  0  0  0  0  0  0
    2.6966   -7.1300    2.8582 H   0  0  0  0  0  0  0  0  0  0  0  0
    4.0570   -8.1276    0.9464 H   0  0  0  0  0  0  0  0  0  0  0  0
    5.0045   -6.6294   -0.7444 H   0  0  0  0  0  0  0  0  0  0  0  0
    6.6305   -4.1345    0.3151 H   0  0  0  0  0  0  0  0  0  0  0  0
    5.8867   -4.0130   -1.2484 H   0  0  0  0  0  0  0  0  0  0  0  0
    5.9202   -1.8044    0.5133 H   0  0  0  0  0  0  0  0  0  0  0  0
    5.4785   -0.3460   -1.6360 H   0  0  0  0  0  0  0  0  0  0  0  0
    4.2162   -0.1073   -3.7792 H   0  0  0  0  0  0  0  0  0  0  0  0
    2.4638   -1.7495   -4.3878 H   0  0  0  0  0  0  0  0  0  0  0  0
    1.9126   -3.6410   -2.8563 H   0  0  0  0  0  0  0  0  0  0  0  0
    2.3524   -4.8044   -0.5603 H   0  0  0  0  0  0  0  0  0  0  0  0
    2.2237   -2.2302    0.5189 H   0  0  0  0  0  0  0  0  0  0  0  0
    2.0390   -3.6074    1.5632 H   0  0  0  0  0  0  0  0  0  0  0  0
    4.1225   -2.1943    2.2626 H   0  0  0  0  0  0  0  0  0  0  0  0
  1  2  1  0
  1 20  1  0
  1 21  1  0
  1 22  1  0
  3  2  1  1
  3  8  1  0
  3 19  1  0
  3  4  1  0
  4  5  2  0
  4 23  1  0
  5  6  1  0
  5 24  1  0
  6  7  2  0
  6 25  1  0
  7  8  1  0
  7 26  1  0
  8 17  1  0
  8  9  1  6
  9 10  1  0
  9 27  1  0
  9 28  1  0
 10 19  1  0
 10 11  1  0
 10 29  1  1
 11 16  2  0
 11 12  1  0
 12 13  2  0
 12 30  1  0
 13 14  1  0
 13 31  1  0
 14 15  2  0
 14 32  1  0
 15 16  1  0
 15 33  1  0
 16 17  1  0
 17 18  1  0
 17 34  1  6
 18 19  1  0
 18 35  1  0
 18 36  1  0
 19 37  1  1
M  END
>  <i_m_ct_stereo_status>  (192) 
1

>  <s_m_source_file>  (192) 
/var/tmp/pbs.5076255.sched01/tmpbzpkhbzu/844yn2io63.sdf

>  <i_m_source_file_index>  (192) 
1

>  <i_lp_mmshare_version>  (192) 
48012

>  <i_f3d_flags>  (192) 
0

>  <s_epik_input>  (192) 
W0NIXTE9W0NIXVtDSF09W0NIXVtDQF0oW0NAXTEyMykoT1tDSDNdKVtDQEhdNFtDQEBIXShbQ0gyXTIpYzVjKFtDQEBIXTNbQ0gyXTQpW2NIXVtjSF1bY0hdW2NIXTU=

>  <s_epik_cmdline>  (192) 
J2VwaWtfcHl0aG9uJywgJy1waHQnLCAnMi4wJywgJy1waCcsICc3LjAnLCAnLXRuJywgJzgnLCAnLW1hJywgJzIwMCcsICctaW1hZScsICc8aW5maWxlLm1hZT4nLCAnLW9tYWUnLCAnPG91dGZpbGUubWFlPic=

>  <r_lp_tautomer_probability>  (192) 
1

>  <r_epik_Ionization_Penalty>  (192) 
2.10598e-12

>  <r_epik_Ionization_Penalty_Charging>  (192) 
0

>  <r_epik_Ionization_Penalty_Neutral>  (192) 
2.10598e-12

>  <r_epik_State_Penalty>  (192) 
-0

>  <r_epik_Charging_Adjusted_Penalty>  (192) 
0

>  <i_epik_Tot_Q>  (192) 
0

>  <i_epik_Tot_abs_Q>  (192) 
0

>  <s_lp_Force_Field>  (192) 
OPLS3e

>  <r_lp_Energy>  (192) 
99.6236

>  <b_lp_Chiralities_Consistent>  (192) 
1

>  <s_lp_Variant>  (192) 
60:0-1

>  <s_i_glide_gridfile>  (192) 
pfpi4k_grid

>  <i_i_glide_lignum>  (192) 
1

>  <i_i_glide_rotatable_bonds>  (192) 
1

>  <r_i_docking_score>  (192) 
-3.48711

>  <r_i_glide_ligand_efficiency>  (192) 
-0.183532

>  <r_i_glide_ligand_efficiency_sa>  (192) 
-0.489738

>  <r_i_glide_ligand_efficiency_ln>  (192) 
-0.884058

>  <r_i_glide_gscore>  (192) 
-3.48711

>  <r_i_glide_lipo>  (192) 
-0.648056

>  <r_i_glide_hbond>  (192) 
0

>  <r_i_glide_metal>  (192) 
-0

>  <r_i_glide_rewards>  (192) 
-1.70226

>  <r_i_glide_evdw>  (192) 
-20.5995

>  <r_i_glide_ecoul>  (192) 
-0.71214

>  <r_i_glide_erotb>  (192) 
0

>  <r_i_glide_esite>  (192) 
0

>  <r_i_glide_emodel>  (192) 
-24.6754

>  <r_i_glide_energy>  (192) 
-21.3116

>  <r_i_glide_einternal>  (192) 
1.70232

>  <r_i_glide_intrahb_reward>  (192) 
-0

>  <i_i_glide_confnum>  (192) 
2

>  <i_i_glide_posenum>  (192) 
1

>  <r_i_glide_eff_state_penalty>  (192) 
0

>  <ligand_id>  (192) 
60

>  <original_smiles>  (192) 
COC12C=CC=CC13CC1c4ccccc4C3CC12

>  <smiles>  (192) 
[H]C1=C([H])C2(OC([H])([H])[H])C3([H])C([H])([H])C4([H])c5c([H])c([H])c([H])c([H])c5C3([H])C([H])([H])C24C([H])=C1[H]

$$$$
61:0:0
     RDKit          3D

 27 29  0  0  1  0  0  0  0  0999 V2000
  -12.0186   -6.3923  -10.3194 C   0  0  0  0  0  0  0  0  0  0  0  0
  -10.6015   -6.4839   -9.7305 C   0  0  2  0  0  0  0  0  0  0  0  0
  -10.1750   -7.9430   -9.5248 C   0  0  0  0  0  0  0  0  0  0  0  0
   -8.8639   -8.0376   -8.8952 N   0  0  0  0  0  0  0  0  0  0  0  0
   -8.1180   -9.2837   -9.0172 C   0  0  0  0  0  0  0  0  0  0  0  0
   -8.5611   -7.0677   -7.9091 C   0  0  0  0  0  0  0  0  0  0  0  0
   -7.4195   -7.1687   -7.0723 C   0  0  0  0  0  0  0  0  0  0  0  0
   -7.1679   -6.2048   -6.0825 C   0  0  0  0  0  0  0  0  0  0  0  0
   -5.8356   -6.1004   -4.9279 S   0  0  0  0  0  0  0  0  0  0  0  0
   -6.5678   -4.6181   -4.3219 C   0  0  0  0  0  0  0  0  0  0  0  0
   -7.7031   -4.2247   -4.8930 N   0  0  0  0  0  0  0  0  0  0  0  0
   -8.0500   -5.1052   -5.8982 C   0  0  0  0  0  0  0  0  0  0  0  0
   -9.1769   -4.9982   -6.7281 C   0  0  0  0  0  0  0  0  0  0  0  0
   -9.4353   -5.9523   -7.7338 C   0  0  0  0  0  0  0  0  0  0  0  0
  -10.5699   -5.7765   -8.4946 O   0  0  0  0  0  0  0  0  0  0  0  0
  -12.0817   -6.9064  -11.2801 H   0  0  0  0  0  0  0  0  0  0  0  0
  -12.3272   -5.3581  -10.4823 H   0  0  0  0  0  0  0  0  0  0  0  0
  -12.7573   -6.8493   -9.6573 H   0  0  0  0  0  0  0  0  0  0  0  0
   -9.9172   -5.9879  -10.4202 H   0  0  0  0  0  0  0  0  0  0  0  0
  -10.9199   -8.4748   -8.9356 H   0  0  0  0  0  0  0  0  0  0  0  0
  -10.1370   -8.4341  -10.4949 H   0  0  0  0  0  0  0  0  0  0  0  0
   -7.2415   -9.3665   -8.3781 H   0  0  0  0  0  0  0  0  0  0  0  0
   -7.7764   -9.3845  -10.0461 H   0  0  0  0  0  0  0  0  0  0  0  0
   -8.7687  -10.1265   -8.7855 H   0  0  0  0  0  0  0  0  0  0  0  0
   -6.6971   -7.9641   -7.1377 H   0  0  0  0  0  0  0  0  0  0  0  0
   -6.1620   -4.0125   -3.5235 H   0  0  0  0  0  0  0  0  0  0  0  0
   -9.8573   -4.1654   -6.5868 H   0  0  0  0  0  0  0  0  0  0  0  0
  1  2  1  0
  1 16  1  0
  1 17  1  0
  1 18  1  0
  2 15  1  0
  2  3  1  0
  2 19  1  6
  3  4  1  0
  3 20  1  0
  3 21  1  0
  4  5  1  0
  4  6  1  0
  5 22  1  0
  5 23  1  0
  5 24  1  0
  6 14  2  0
  6  7  1  0
  7  8  2  0
  7 25  1  0
  8 12  1  0
  8  9  1  0
  9 10  1  0
 10 11  2  0
 10 26  1  0
 11 12  1  0
 12 13  2  0
 13 14  1  0
 13 27  1  0
 14 15  1  0
M  END
>  <i_m_ct_stereo_status>  (193) 
1

>  <s_m_source_file>  (193) 
/var/tmp/pbs.5076255.sched01/tmpbzpkhbzu/844yn2io63.sdf

>  <i_m_source_file_index>  (193) 
2

>  <i_lp_mmshare_version>  (193) 
48012

>  <i_f3d_flags>  (193) 
0

>  <s_epik_input>  (193) 
W0NIM11OMVtDSDJdW0NAQEhdKFtDSDNdKU9jKGMxMilbY0hdYzNjKFtjSF0yKXNbY0hdbjM=

>  <s_epik_cmdline>  (193) 
J2VwaWtfcHl0aG9uJywgJy1waHQnLCAnMi4wJywgJy1waCcsICc3LjAnLCAnLXRuJywgJzgnLCAnLW1hJywgJzIwMCcsICctaW1hZScsICc8aW5maWxlLm1hZT4nLCAnLW9tYWUnLCAnPG91dGZpbGUubWFlPic=

>  <r_lp_tautomer_probability>  (193) 
1

>  <r_epik_Ionization_Penalty>  (193) 
0.00036691

>  <r_epik_Ionization_Penalty_Charging>  (193) 
0

>  <r_epik_Ionization_Penalty_Neutral>  (193) 
0.00036691

>  <r_epik_State_Penalty>  (193) 
-0

>  <r_epik_Charging_Adjusted_Penalty>  (193) 
0

>  <i_epik_Tot_Q>  (193) 
0

>  <i_epik_Tot_abs_Q>  (193) 
0

>  <s_lp_Force_Field>  (193) 
OPLS3e

>  <r_lp_Energy>  (193) 
29.1094

>  <b_lp_Chiralities_Consistent>  (193) 
1

>  <s_lp_Variant>  (193) 
61:0-1

>  <s_i_glide_gridfile>  (193) 
pfpi4k_grid

>  <i_i_glide_lignum>  (193) 
2

>  <i_i_glide_rotatable_bonds>  (193) 
0

>  <r_i_docking_score>  (193) 
-5.71442

>  <r_i_glide_ligand_efficiency>  (193) 
-0.380961

>  <r_i_glide_ligand_efficiency_sa>  (193) 
-0.939531

>  <r_i_glide_ligand_efficiency_ln>  (193) 
-1.54108

>  <r_i_glide_gscore>  (193) 
-5.71442

>  <r_i_glide_lipo>  (193) 
-1.99801

>  <r_i_glide_hbond>  (193) 
0

>  <r_i_glide_metal>  (193) 
-0

>  <r_i_glide_rewards>  (193) 
-2.3833

>  <r_i_glide_evdw>  (193) 
-24.7769

>  <r_i_glide_ecoul>  (193) 
-0.628375

>  <r_i_glide_erotb>  (193) 
0

>  <r_i_glide_esite>  (193) 
0

>  <r_i_glide_emodel>  (193) 
-33.8186

>  <r_i_glide_energy>  (193) 
-25.4052

>  <r_i_glide_einternal>  (193) 
0

>  <r_i_glide_intrahb_reward>  (193) 
-0

>  <i_i_glide_confnum>  (193) 
3

>  <i_i_glide_posenum>  (193) 
1

>  <r_i_glide_eff_state_penalty>  (193) 
0

>  <ligand_id>  (193) 
61

>  <original_smiles>  (193) 
CC1CN(C)c2cc3scnc3cc2O1

>  <smiles>  (193) 
[H]c1nc2c([H])c3c(c([H])c2s1)N(C([H])([H])[H])C([H])([H])C([H])(C([H])([H])[H])O3

$$$$
61:0:1
     RDKit          3D

 27 29  0  0  1  0  0  0  0  0999 V2000
  -11.6679   -7.0178  -10.3325 C   0  0  0  0  0  0  0  0  0  0  0  0
  -10.3038   -7.1978   -9.6456 C   0  0  2  0  0  0  0  0  0  0  0  0
  -10.1696   -8.5876   -9.0049 C   0  0  0  0  0  0  0  0  0  0  0  0
   -8.9033   -8.7390   -8.2898 N   0  0  0  0  0  0  0  0  0  0  0  0
   -8.4325  -10.0866   -7.9980 C   0  0  0  0  0  0  0  0  0  0  0  0
   -8.4292   -7.5974   -7.6031 C   0  0  0  0  0  0  0  0  0  0  0  0
   -7.3481   -7.6567   -6.6984 C   0  0  0  0  0  0  0  0  0  0  0  0
   -6.9380   -6.5148   -5.9972 C   0  0  0  0  0  0  0  0  0  0  0  0
   -5.6249   -6.3429   -4.8301 S   0  0  0  0  0  0  0  0  0  0  0  0
   -6.0478   -4.6356   -4.7198 C   0  0  0  0  0  0  0  0  0  0  0  0
   -7.0952   -4.2268   -5.4215 N   0  0  0  0  0  0  0  0  0  0  0  0
   -7.5962   -5.2687   -6.1787 C   0  0  0  0  0  0  0  0  0  0  0  0
   -8.6583   -5.1968   -7.0900 C   0  0  0  0  0  0  0  0  0  0  0  0
   -9.0765   -6.3403   -7.8079 C   0  0  0  0  0  0  0  0  0  0  0  0
  -10.1483   -6.1837   -8.6576 O   0  0  0  0  0  0  0  0  0  0  0  0
  -11.8168   -7.7695  -11.1094 H   0  0  0  0  0  0  0  0  0  0  0  0
  -11.7608   -6.0378  -10.8050 H   0  0  0  0  0  0  0  0  0  0  0  0
  -12.4914   -7.1153   -9.6213 H   0  0  0  0  0  0  0  0  0  0  0  0
   -9.5221   -7.0580  -10.3930 H   0  0  0  0  0  0  0  0  0  0  0  0
  -11.0138   -8.7802   -8.3415 H   0  0  0  0  0  0  0  0  0  0  0  0
  -10.2193   -9.3359   -9.7957 H   0  0  0  0  0  0  0  0  0  0  0  0
   -7.5983  -10.1570   -7.3025 H   0  0  0  0  0  0  0  0  0  0  0  0
   -8.1035  -10.5475   -8.9299 H   0  0  0  0  0  0  0  0  0  0  0  0
   -9.2456  -10.6865   -7.5841 H   0  0  0  0  0  0  0  0  0  0  0  0
   -6.7817   -8.5403   -6.4676 H   0  0  0  0  0  0  0  0  0  0  0  0
   -5.5428   -3.9065   -4.1029 H   0  0  0  0  0  0  0  0  0  0  0  0
   -9.1606   -4.2505   -7.2399 H   0  0  0  0  0  0  0  0  0  0  0  0
  1  2  1  0
  1 16  1  0
  1 17  1  0
  1 18  1  0
  2 15  1  0
  2  3  1  0
  2 19  1  6
  3  4  1  0
  3 20  1  0
  3 21  1  0
  4  5  1  0
  4  6  1  0
  5 22  1  0
  5 23  1  0
  5 24  1  0
  6 14  2  0
  6  7  1  0
  7  8  2  0
  7 25  1  0
  8 12  1  0
  8  9  1  0
  9 10  1  0
 10 11  2  0
 10 26  1  0
 11 12  1  0
 12 13  2  0
 13 14  1  0
 13 27  1  0
 14 15  1  0
M  END
>  <i_m_ct_stereo_status>  (194) 
1

>  <s_m_source_file>  (194) 
/var/tmp/pbs.5076255.sched01/tmpbzpkhbzu/844yn2io63.sdf

>  <i_m_source_file_index>  (194) 
2

>  <i_lp_mmshare_version>  (194) 
48012

>  <i_f3d_flags>  (194) 
0

>  <s_epik_input>  (194) 
W0NIM11OMVtDSDJdW0NAQEhdKFtDSDNdKU9jKGMxMilbY0hdYzNjKFtjSF0yKXNbY0hdbjM=

>  <s_epik_cmdline>  (194) 
J2VwaWtfcHl0aG9uJywgJy1waHQnLCAnMi4wJywgJy1waCcsICc3LjAnLCAnLXRuJywgJzgnLCAnLW1hJywgJzIwMCcsICctaW1hZScsICc8aW5maWxlLm1hZT4nLCAnLW9tYWUnLCAnPG91dGZpbGUubWFlPic=

>  <r_lp_tautomer_probability>  (194) 
1

>  <r_epik_Ionization_Penalty>  (194) 
0.00036691

>  <r_epik_Ionization_Penalty_Charging>  (194) 
0

>  <r_epik_Ionization_Penalty_Neutral>  (194) 
0.00036691

>  <r_epik_State_Penalty>  (194) 
-0

>  <r_epik_Charging_Adjusted_Penalty>  (194) 
0

>  <i_epik_Tot_Q>  (194) 
0

>  <i_epik_Tot_abs_Q>  (194) 
0

>  <s_lp_Force_Field>  (194) 
OPLS3e

>  <r_lp_Energy>  (194) 
29.1094

>  <b_lp_Chiralities_Consistent>  (194) 
1

>  <s_lp_Variant>  (194) 
61:0-1

>  <s_i_glide_gridfile>  (194) 
pfpi4k_grid

>  <i_i_glide_lignum>  (194) 
2

>  <i_i_glide_rotatable_bonds>  (194) 
0

>  <r_i_docking_score>  (194) 
-5.50772

>  <r_i_glide_ligand_efficiency>  (194) 
-0.367181

>  <r_i_glide_ligand_efficiency_sa>  (194) 
-0.905547

>  <r_i_glide_ligand_efficiency_ln>  (194) 
-1.48534

>  <r_i_glide_gscore>  (194) 
-5.50772

>  <r_i_glide_lipo>  (194) 
-1.80506

>  <r_i_glide_hbond>  (194) 
0

>  <r_i_glide_metal>  (194) 
-0

>  <r_i_glide_rewards>  (194) 
-2.43664

>  <r_i_glide_evdw>  (194) 
-22.5562

>  <r_i_glide_ecoul>  (194) 
-0.921438

>  <r_i_glide_erotb>  (194) 
0

>  <r_i_glide_esite>  (194) 
0

>  <r_i_glide_emodel>  (194) 
-31.5832

>  <r_i_glide_energy>  (194) 
-23.4776

>  <r_i_glide_einternal>  (194) 
0

>  <r_i_glide_intrahb_reward>  (194) 
-0

>  <i_i_glide_confnum>  (194) 
1

>  <i_i_glide_posenum>  (194) 
9

>  <r_i_glide_eff_state_penalty>  (194) 
0

>  <ligand_id>  (194) 
61

>  <original_smiles>  (194) 
CC1CN(C)c2cc3scnc3cc2O1

>  <smiles>  (194) 
[H]c1nc2c([H])c3c(c([H])c2s1)N(C([H])([H])[H])C([H])([H])C([H])(C([H])([H])[H])O3

$$$$
61:0:2
     RDKit          3D

 27 29  0  0  1  0  0  0  0  0999 V2000
   -1.9416   -8.7141    2.5993 C   0  0  0  0  0  0  0  0  0  0  0  0
   -0.4810   -8.3365    2.3227 C   0  0  2  0  0  0  0  0  0  0  0  0
    0.4790   -9.5227    2.4931 C   0  0  0  0  0  0  0  0  0  0  0  0
    0.5840   -9.9325    3.8870 N   0  0  0  0  0  0  0  0  0  0  0  0
    1.0136  -11.2901    4.2056 C   0  0  0  0  0  0  0  0  0  0  0  0
    0.5083   -8.9175    4.8676 C   0  0  0  0  0  0  0  0  0  0  0  0
    0.7452   -9.1702    6.2425 C   0  0  0  0  0  0  0  0  0  0  0  0
    0.6755   -8.1327    7.1844 C   0  0  0  0  0  0  0  0  0  0  0  0
    0.9153   -8.1852    8.9319 S   0  0  0  0  0  0  0  0  0  0  0  0
    0.6221   -6.4506    8.9687 C   0  0  0  0  0  0  0  0  0  0  0  0
    0.3346   -5.8557    7.8075 N   0  0  0  0  0  0  0  0  0  0  0  0
    0.3755   -6.7960    6.7877 C   0  0  0  0  0  0  0  0  0  0  0  0
    0.1344   -6.5437    5.4238 C   0  0  0  0  0  0  0  0  0  0  0  0
    0.1803   -7.5829    4.4769 C   0  0  0  0  0  0  0  0  0  0  0  0
   -0.0970   -7.2555    3.1686 O   0  0  0  0  0  0  0  0  0  0  0  0
   -2.2676   -9.5209    1.9446 H   0  0  0  0  0  0  0  0  0  0  0  0
   -2.5910   -7.8569    2.4459 H   0  0  0  0  0  0  0  0  0  0  0  0
   -2.0763   -9.0557    3.6261 H   0  0  0  0  0  0  0  0  0  0  0  0
   -0.4222   -7.9760    1.2942 H   0  0  0  0  0  0  0  0  0  0  0  0
    0.1180  -10.3635    1.9015 H   0  0  0  0  0  0  0  0  0  0  0  0
    1.4650   -9.2698    2.1100 H   0  0  0  0  0  0  0  0  0  0  0  0
    0.8529  -11.5782    5.2395 H   0  0  0  0  0  0  0  0  0  0  0  0
    2.0751  -11.3850    3.9705 H   0  0  0  0  0  0  0  0  0  0  0  0
    0.4659  -12.0047    3.5874 H   0  0  0  0  0  0  0  0  0  0  0  0
    0.9833  -10.1498    6.6197 H   0  0  0  0  0  0  0  0  0  0  0  0
    0.6549   -5.8597    9.8744 H   0  0  0  0  0  0  0  0  0  0  0  0
   -0.1065   -5.5359    5.1082 H   0  0  0  0  0  0  0  0  0  0  0  0
  1  2  1  0
  1 16  1  0
  1 17  1  0
  1 18  1  0
  2 15  1  0
  2  3  1  0
  2 19  1  6
  3  4  1  0
  3 20  1  0
  3 21  1  0
  4  5  1  0
  4  6  1  0
  5 22  1  0
  5 23  1  0
  5 24  1  0
  6 14  2  0
  6  7  1  0
  7  8  2  0
  7 25  1  0
  8 12  1  0
  8  9  1  0
  9 10  1  0
 10 11  2  0
 10 26  1  0
 11 12  1  0
 12 13  2  0
 13 14  1  0
 13 27  1  0
 14 15  1  0
M  END
>  <i_m_ct_stereo_status>  (195) 
1

>  <s_m_source_file>  (195) 
/var/tmp/pbs.5076255.sched01/tmpbzpkhbzu/844yn2io63.sdf

>  <i_m_source_file_index>  (195) 
2

>  <i_lp_mmshare_version>  (195) 
48012

>  <i_f3d_flags>  (195) 
0

>  <s_epik_input>  (195) 
W0NIM11OMVtDSDJdW0NAQEhdKFtDSDNdKU9jKGMxMilbY0hdYzNjKFtjSF0yKXNbY0hdbjM=

>  <s_epik_cmdline>  (195) 
J2VwaWtfcHl0aG9uJywgJy1waHQnLCAnMi4wJywgJy1waCcsICc3LjAnLCAnLXRuJywgJzgnLCAnLW1hJywgJzIwMCcsICctaW1hZScsICc8aW5maWxlLm1hZT4nLCAnLW9tYWUnLCAnPG91dGZpbGUubWFlPic=

>  <r_lp_tautomer_probability>  (195) 
1

>  <r_epik_Ionization_Penalty>  (195) 
0.00036691

>  <r_epik_Ionization_Penalty_Charging>  (195) 
0

>  <r_epik_Ionization_Penalty_Neutral>  (195) 
0.00036691

>  <r_epik_State_Penalty>  (195) 
-0

>  <r_epik_Charging_Adjusted_Penalty>  (195) 
0

>  <i_epik_Tot_Q>  (195) 
0

>  <i_epik_Tot_abs_Q>  (195) 
0

>  <s_lp_Force_Field>  (195) 
OPLS3e

>  <r_lp_Energy>  (195) 
29.1094

>  <b_lp_Chiralities_Consistent>  (195) 
1

>  <s_lp_Variant>  (195) 
61:0-1

>  <s_i_glide_gridfile>  (195) 
pfpi4k_grid

>  <i_i_glide_lignum>  (195) 
2

>  <i_i_glide_rotatable_bonds>  (195) 
0

>  <r_i_docking_score>  (195) 
-3.41721

>  <r_i_glide_ligand_efficiency>  (195) 
-0.227814

>  <r_i_glide_ligand_efficiency_sa>  (195) 
-0.561838

>  <r_i_glide_ligand_efficiency_ln>  (195) 
-0.921566

>  <r_i_glide_gscore>  (195) 
-3.41721

>  <r_i_glide_lipo>  (195) 
-0.259946

>  <r_i_glide_hbond>  (195) 
0

>  <r_i_glide_metal>  (195) 
-0

>  <r_i_glide_rewards>  (195) 
-1.9071

>  <r_i_glide_evdw>  (195) 
-18.88

>  <r_i_glide_ecoul>  (195) 
-1.80962

>  <r_i_glide_erotb>  (195) 
0

>  <r_i_glide_esite>  (195) 
-0.0347226

>  <r_i_glide_emodel>  (195) 
-25.5654

>  <r_i_glide_energy>  (195) 
-20.6896

>  <r_i_glide_einternal>  (195) 
0

>  <r_i_glide_intrahb_reward>  (195) 
-0

>  <i_i_glide_confnum>  (195) 
4

>  <i_i_glide_posenum>  (195) 
2

>  <r_i_glide_eff_state_penalty>  (195) 
0

>  <ligand_id>  (195) 
61

>  <original_smiles>  (195) 
CC1CN(C)c2cc3scnc3cc2O1

>  <smiles>  (195) 
[H]c1nc2c([H])c3c(c([H])c2s1)N(C([H])([H])[H])C([H])([H])C([H])(C([H])([H])[H])O3

$$$$
62:0:0
     RDKit          3D

 37 42  0  0  1  0  0  0  0  0999 V2000
    2.1529   -7.7393    3.3510 C   0  0  0  0  0  0  0  0  0  0  0  0
    2.3599   -6.6048    2.4104 C   0  0  0  0  0  0  0  0  0  0  0  0
    1.5879   -6.2974    1.3711 N   0  0  0  0  0  0  0  0  0  0  0  0
    2.1955   -5.2223    0.7721 N   0  0  0  0  0  0  0  0  0  0  0  0
    3.2353   -4.9032    1.5358 C   0  0  0  0  0  0  0  0  0  0  0  0
    4.2331   -3.7940    1.3022 C   0  0  2  0  0  0  0  0  0  0  0  0
    3.8384   -2.2873    0.8713 C   0  0  2  0  0  0  0  0  0  0  0  0
    3.6440   -1.1477   -0.3687 C   0  0  0  0  0  0  0  0  0  0  0  0
    3.5947   -1.3795   -2.0325 C   0  0  2  0  0  0  0  0  0  0  0  0
    4.5977   -1.9476   -3.1991 C   0  0  2  0  0  0  0  0  0  0  0  0
    4.3013   -3.4418   -3.4773 C   0  0  0  0  0  0  0  0  0  0  0  0
    3.9050   -3.6736   -2.0188 C   0  0  1  0  0  0  0  0  0  0  0  0
    4.7021   -4.4287   -1.1446 O   0  0  0  0  0  0  0  0  0  0  0  0
    5.2240   -3.8436    0.1503 C   0  0  2  0  0  0  0  0  0  0  0  0
    6.6898   -3.6387   -0.2402 C   0  0  0  0  0  0  0  0  0  0  0  0
    6.7454   -2.9645   -1.6909 C   0  0  0  0  0  0  0  0  0  0  0  0
    5.5793   -1.9399   -2.0714 C   0  0  2  0  0  0  0  0  0  0  0  0
    4.2710   -2.4290   -1.6173 N   0  0  0  0  0  0  0  0  0  0  0  0
    5.2698   -2.3761    0.5420 O   0  0  0  0  0  0  0  0  0  0  0  0
    3.4236   -5.7690    2.5749 O   0  0  0  0  0  0  0  0  0  0  0  0
    1.2378   -8.2761    3.0836 H   0  0  0  0  0  0  0  0  0  0  0  0
    2.0562   -7.3703    4.3731 H   0  0  0  0  0  0  0  0  0  0  0  0
    2.9918   -8.4342    3.2910 H   0  0  0  0  0  0  0  0  0  0  0  0
    4.7923   -3.7231    2.2337 H   0  0  0  0  0  0  0  0  0  0  0  0
    3.0228   -2.8521    0.4189 H   0  0  0  0  0  0  0  0  0  0  0  0
    2.7014   -0.6569   -0.1259 H   0  0  0  0  0  0  0  0  0  0  0  0
    4.3384   -0.3266   -0.1577 H   0  0  0  0  0  0  0  0  0  0  0  0
    2.5866   -1.6707   -2.3353 H   0  0  0  0  0  0  0  0  0  0  0  0
    4.8198   -1.2928   -4.0340 H   0  0  0  0  0  0  0  0  0  0  0  0
    3.4613   -3.5996   -4.1566 H   0  0  0  0  0  0  0  0  0  0  0  0
    5.1592   -4.0371   -3.7861 H   0  0  0  0  0  0  0  0  0  0  0  0
    2.8373   -3.8496   -1.8650 H   0  0  0  0  0  0  0  0  0  0  0  0
    7.2869   -3.0764    0.4819 H   0  0  0  0  0  0  0  0  0  0  0  0
    7.1743   -4.6104   -0.3047 H   0  0  0  0  0  0  0  0  0  0  0  0
    7.7081   -2.4739   -1.8054 H   0  0  0  0  0  0  0  0  0  0  0  0
    6.7917   -3.7629   -2.4316 H   0  0  0  0  0  0  0  0  0  0  0  0
    5.7780   -0.9355   -1.6848 H   0  0  0  0  0  0  0  0  0  0  0  0
  1  2  1  0
  1 21  1  0
  1 22  1  0
  1 23  1  0
  2 20  1  0
  2  3  2  0
  3  4  1  0
  4  5  2  0
  5  6  1  0
  5 20  1  0
  6 14  1  0
  6  7  1  0
  6 24  1  1
  7 19  1  0
  7  8  1  0
  7 25  1  1
  8  9  1  0
  8 26  1  0
  8 27  1  0
  9 18  1  0
  9 10  1  0
  9 28  1  6
 10 17  1  0
 10 11  1  0
 10 29  1  6
 11 12  1  0
 11 30  1  0
 11 31  1  0
 12 18  1  0
 12 13  1  0
 12 32  1  6
 13 14  1  0
 14 15  1  0
 14 19  1  6
 15 16  1  0
 15 33  1  0
 15 34  1  0
 16 17  1  0
 16 35  1  0
 16 36  1  0
 17 18  1  0
 17 37  1  1
M  END
>  <i_m_ct_stereo_status>  (196) 
1

>  <s_m_source_file>  (196) 
/var/tmp/pbs.5076255.sched01/tmpbzpkhbzu/844yn2io63.sdf

>  <i_m_source_file_index>  (196) 
3

>  <i_lp_mmshare_version>  (196) 
48012

>  <i_f3d_flags>  (196) 
0

>  <s_epik_input>  (196) 
W0NIM11jMW5uYyhvMSlbQ0BASF0oQzIzNClbQ0BIXShPNClbQ0gyXVtDQEhdNVtDQEhdNltDQEhdKFtDSDJdW0NIMl0zKU41W0NASF0oTzIpW0NIMl02

>  <s_epik_cmdline>  (196) 
J2VwaWtfcHl0aG9uJywgJy1waHQnLCAnMi4wJywgJy1waCcsICc3LjAnLCAnLXRuJywgJzgnLCAnLW1hJywgJzIwMCcsICctaW1hZScsICc8aW5maWxlLm1hZT4nLCAnLW9tYWUnLCAnPG91dGZpbGUubWFlPic=

>  <r_lp_tautomer_probability>  (196) 
1

>  <r_epik_Ionization_Penalty>  (196) 
0.138121

>  <r_epik_Ionization_Penalty_Charging>  (196) 
0

>  <r_epik_Ionization_Penalty_Neutral>  (196) 
0.138121

>  <r_epik_State_Penalty>  (196) 
0.127454

>  <r_epik_Charging_Adjusted_Penalty>  (196) 
0.127454

>  <i_epik_Tot_Q>  (196) 
0

>  <i_epik_Tot_abs_Q>  (196) 
0

>  <s_epik_Chemistry_Notes>  (196) 
This compound contains an acetal/aminal-like group ( X-CH(R)-Y where X, Y are N, S, or O) that may be acid/base labile, releasing an aldehyde.

>  <s_lp_Force_Field>  (196) 
OPLS3e

>  <r_lp_Energy>  (196) 
342.646

>  <b_lp_Chiralities_Consistent>  (196) 
1

>  <s_lp_Variant>  (196) 
62:0-1

>  <s_i_glide_gridfile>  (196) 
pfpi4k_grid

>  <i_i_glide_lignum>  (196) 
3

>  <i_i_glide_rotatable_bonds>  (196) 
1

>  <r_i_docking_score>  (196) 
-3.19305

>  <r_i_glide_ligand_efficiency>  (196) 
-0.159653

>  <r_i_glide_ligand_efficiency_sa>  (196) 
-0.433364

>  <r_i_glide_ligand_efficiency_ln>  (196) 
-0.799115

>  <r_i_glide_gscore>  (196) 
-3.19305

>  <r_i_glide_lipo>  (196) 
-0.341654

>  <r_i_glide_hbond>  (196) 
0

>  <r_i_glide_metal>  (196) 
-0

>  <r_i_glide_rewards>  (196) 
-1.60093

>  <r_i_glide_evdw>  (196) 
-19.8447

>  <r_i_glide_ecoul>  (196) 
-2.35573

>  <r_i_glide_erotb>  (196) 
0.237123

>  <r_i_glide_esite>  (196) 
-0.142

>  <r_i_glide_emodel>  (196) 
-26.9706

>  <r_i_glide_energy>  (196) 
-22.2004

>  <r_i_glide_einternal>  (196) 
0.490681

>  <r_i_glide_intrahb_reward>  (196) 
-0

>  <i_i_glide_confnum>  (196) 
4

>  <i_i_glide_posenum>  (196) 
6

>  <r_i_glide_eff_state_penalty>  (196) 
0

>  <ligand_id>  (196) 
62

>  <original_smiles>  (196) 
Cc1nnc(C2C3CC4C5CC6OC2(CCC5N64)O3)o1

>  <smiles>  (196) 
[H]C([H])([H])c1nnc(C2([H])C3([H])OC24OC2([H])N5C([H])(C([H])([H])C4([H])[H])C([H])(C2([H])[H])C5([H])C3([H])[H])o1

$$$$
62:0:1
     RDKit          3D

 37 42  0  0  1  0  0  0  0  0999 V2000
    2.8760   -8.7771    1.9493 C   0  0  0  0  0  0  0  0  0  0  0  0
    2.8097   -7.3141    1.6837 C   0  0  0  0  0  0  0  0  0  0  0  0
    1.7365   -6.6312    1.2936 N   0  0  0  0  0  0  0  0  0  0  0  0
    2.1659   -5.3412    1.1270 N   0  0  0  0  0  0  0  0  0  0  0  0
    3.4534   -5.3223    1.4691 C   0  0  0  0  0  0  0  0  0  0  0  0
    4.4122   -4.1568    1.4031 C   0  0  2  0  0  0  0  0  0  0  0  0
    3.9635   -2.6136    1.1926 C   0  0  2  0  0  0  0  0  0  0  0  0
    3.7427   -1.3023    0.1391 C   0  0  0  0  0  0  0  0  0  0  0  0
    3.7264   -1.2763   -1.5371 C   0  0  2  0  0  0  0  0  0  0  0  0
    4.7598   -1.6343   -2.7561 C   0  0  2  0  0  0  0  0  0  0  0  0
    4.5152   -3.0713   -3.2694 C   0  0  0  0  0  0  0  0  0  0  0  0
    4.1035   -3.5385   -1.8739 C   0  0  1  0  0  0  0  0  0  0  0  0
    4.9177   -4.3909   -1.1136 O   0  0  0  0  0  0  0  0  0  0  0  0
    5.4061   -3.9920    0.2661 C   0  0  2  0  0  0  0  0  0  0  0  0
    6.8692   -3.6939   -0.0664 C   0  0  0  0  0  0  0  0  0  0  0  0
    6.9235   -2.8026   -1.3916 C   0  0  0  0  0  0  0  0  0  0  0  0
    5.7261   -1.7689   -1.6264 C   0  0  2  0  0  0  0  0  0  0  0  0
    4.4253   -2.3598   -1.2762 N   0  0  0  0  0  0  0  0  0  0  0  0
    5.4002   -2.6019    0.8819 O   0  0  0  0  0  0  0  0  0  0  0  0
    3.9334   -6.5523    1.8184 O   0  0  0  0  0  0  0  0  0  0  0  0
    1.8843   -9.2179    1.8203 H   0  0  0  0  0  0  0  0  0  0  0  0
    3.2119   -8.9545    2.9709 H   0  0  0  0  0  0  0  0  0  0  0  0
    3.5630   -9.2537    1.2490 H   0  0  0  0  0  0  0  0  0  0  0  0
    4.9632   -4.2051    2.3421 H   0  0  0  0  0  0  0  0  0  0  0  0
    3.1809   -3.1302    0.6392 H   0  0  0  0  0  0  0  0  0  0  0  0
    2.7726   -0.8883    0.4223 H   0  0  0  0  0  0  0  0  0  0  0  0
    4.4022   -0.4998    0.4897 H   0  0  0  0  0  0  0  0  0  0  0  0
    2.7331   -1.5422   -1.9041 H   0  0  0  0  0  0  0  0  0  0  0  0
    4.9716   -0.8458   -3.4688 H   0  0  0  0  0  0  0  0  0  0  0  0
    3.6899   -3.1426   -3.9767 H   0  0  0  0  0  0  0  0  0  0  0  0
    5.3975   -3.5860   -3.6479 H   0  0  0  0  0  0  0  0  0  0  0  0
    3.0424   -3.7907   -1.7727 H   0  0  0  0  0  0  0  0  0  0  0  0
    7.4433   -3.2356    0.7425 H   0  0  0  0  0  0  0  0  0  0  0  0
    7.3851   -4.6284   -0.2759 H   0  0  0  0  0  0  0  0  0  0  0  0
    7.8754   -2.2794   -1.4064 H   0  0  0  0  0  0  0  0  0  0  0  0
    7.0092   -3.4698   -2.2491 H   0  0  0  0  0  0  0  0  0  0  0  0
    5.8794   -0.8319   -1.0800 H   0  0  0  0  0  0  0  0  0  0  0  0
  1  2  1  0
  1 21  1  0
  1 22  1  0
  1 23  1  0
  2 20  1  0
  2  3  2  0
  3  4  1  0
  4  5  2  0
  5  6  1  0
  5 20  1  0
  6 14  1  0
  6  7  1  0
  6 24  1  1
  7 19  1  0
  7  8  1  0
  7 25  1  1
  8  9  1  0
  8 26  1  0
  8 27  1  0
  9 18  1  0
  9 10  1  0
  9 28  1  6
 10 17  1  0
 10 11  1  0
 10 29  1  6
 11 12  1  0
 11 30  1  0
 11 31  1  0
 12 18  1  0
 12 13  1  0
 12 32  1  6
 13 14  1  0
 14 15  1  0
 14 19  1  6
 15 16  1  0
 15 33  1  0
 15 34  1  0
 16 17  1  0
 16 35  1  0
 16 36  1  0
 17 18  1  0
 17 37  1  1
M  END
>  <i_m_ct_stereo_status>  (197) 
1

>  <s_m_source_file>  (197) 
/var/tmp/pbs.5076255.sched01/tmpbzpkhbzu/844yn2io63.sdf

>  <i_m_source_file_index>  (197) 
3

>  <i_lp_mmshare_version>  (197) 
48012

>  <i_f3d_flags>  (197) 
0

>  <s_epik_input>  (197) 
W0NIM11jMW5uYyhvMSlbQ0BASF0oQzIzNClbQ0BIXShPNClbQ0gyXVtDQEhdNVtDQEhdNltDQEhdKFtDSDJdW0NIMl0zKU41W0NASF0oTzIpW0NIMl02

>  <s_epik_cmdline>  (197) 
J2VwaWtfcHl0aG9uJywgJy1waHQnLCAnMi4wJywgJy1waCcsICc3LjAnLCAnLXRuJywgJzgnLCAnLW1hJywgJzIwMCcsICctaW1hZScsICc8aW5maWxlLm1hZT4nLCAnLW9tYWUnLCAnPG91dGZpbGUubWFlPic=

>  <r_lp_tautomer_probability>  (197) 
1

>  <r_epik_Ionization_Penalty>  (197) 
0.138121

>  <r_epik_Ionization_Penalty_Charging>  (197) 
0

>  <r_epik_Ionization_Penalty_Neutral>  (197) 
0.138121

>  <r_epik_State_Penalty>  (197) 
0.127454

>  <r_epik_Charging_Adjusted_Penalty>  (197) 
0.127454

>  <i_epik_Tot_Q>  (197) 
0

>  <i_epik_Tot_abs_Q>  (197) 
0

>  <s_epik_Chemistry_Notes>  (197) 
This compound contains an acetal/aminal-like group ( X-CH(R)-Y where X, Y are N, S, or O) that may be acid/base labile, releasing an aldehyde.

>  <s_lp_Force_Field>  (197) 
OPLS3e

>  <r_lp_Energy>  (197) 
342.646

>  <b_lp_Chiralities_Consistent>  (197) 
1

>  <s_lp_Variant>  (197) 
62:0-1

>  <s_i_glide_gridfile>  (197) 
pfpi4k_grid

>  <i_i_glide_lignum>  (197) 
3

>  <i_i_glide_rotatable_bonds>  (197) 
1

>  <r_i_docking_score>  (197) 
-3.19079

>  <r_i_glide_ligand_efficiency>  (197) 
-0.15954

>  <r_i_glide_ligand_efficiency_sa>  (197) 
-0.433057

>  <r_i_glide_ligand_efficiency_ln>  (197) 
-0.79855

>  <r_i_glide_gscore>  (197) 
-3.19079

>  <r_i_glide_lipo>  (197) 
-0.313194

>  <r_i_glide_hbond>  (197) 
0

>  <r_i_glide_metal>  (197) 
-0

>  <r_i_glide_rewards>  (197) 
-1.6112

>  <r_i_glide_evdw>  (197) 
-21.4719

>  <r_i_glide_ecoul>  (197) 
-2.05752

>  <r_i_glide_erotb>  (197) 
0.237123

>  <r_i_glide_esite>  (197) 
-0.121293

>  <r_i_glide_emodel>  (197) 
-28.0853

>  <r_i_glide_energy>  (197) 
-23.5294

>  <r_i_glide_einternal>  (197) 
0.707376

>  <r_i_glide_intrahb_reward>  (197) 
-0

>  <i_i_glide_confnum>  (197) 
2

>  <i_i_glide_posenum>  (197) 
1

>  <r_i_glide_eff_state_penalty>  (197) 
0

>  <ligand_id>  (197) 
62

>  <original_smiles>  (197) 
Cc1nnc(C2C3CC4C5CC6OC2(CCC5N64)O3)o1

>  <smiles>  (197) 
[H]C([H])([H])c1nnc(C2([H])C3([H])OC24OC2([H])N5C([H])(C([H])([H])C4([H])[H])C([H])(C2([H])[H])C5([H])C3([H])[H])o1

$$$$
62:0:2
     RDKit          3D

 37 42  0  0  1  0  0  0  0  0999 V2000
   -1.3129   -9.5227    2.3562 C   0  0  0  0  0  0  0  0  0  0  0  0
   -0.7802   -8.2751    2.9644 C   0  0  0  0  0  0  0  0  0  0  0  0
   -0.5843   -7.1124    2.3344 N   0  0  0  0  0  0  0  0  0  0  0  0
   -0.0514   -6.2734    3.2757 N   0  0  0  0  0  0  0  0  0  0  0  0
    0.0387   -6.9821    4.4081 C   0  0  0  0  0  0  0  0  0  0  0  0
    0.4527   -6.4705    5.7589 C   0  0  2  0  0  0  0  0  0  0  0  0
   -0.5390   -5.7195    6.7942 C   0  0  2  0  0  0  0  0  0  0  0  0
   -1.1139   -4.2662    7.4587 C   0  0  0  0  0  0  0  0  0  0  0  0
   -0.9552   -2.6989    6.8803 C   0  0  2  0  0  0  0  0  0  0  0  0
    0.2667   -1.6489    6.5675 C   0  0  2  0  0  0  0  0  0  0  0  0
    0.6451   -1.7122    5.0687 C   0  0  0  0  0  0  0  0  0  0  0  0
    0.2998   -3.1978    4.9937 C   0  0  1  0  0  0  0  0  0  0  0  0
    1.2787   -4.1955    4.8603 O   0  0  0  0  0  0  0  0  0  0  0  0
    1.4266   -5.3050    5.8855 C   0  0  2  0  0  0  0  0  0  0  0  0
    2.6972   -4.8227    6.5894 C   0  0  0  0  0  0  0  0  0  0  0  0
    2.5499   -3.2603    6.8960 C   0  0  0  0  0  0  0  0  0  0  0  0
    1.0825   -2.7155    7.2216 C   0  0  2  0  0  0  0  0  0  0  0  0
    0.0714   -3.3082    6.3262 N   0  0  0  0  0  0  0  0  0  0  0  0
    0.8058   -5.3594    7.2687 O   0  0  0  0  0  0  0  0  0  0  0  0
   -0.4486   -8.2462    4.2810 O   0  0  0  0  0  0  0  0  0  0  0  0
   -1.5606   -9.3443    1.3088 H   0  0  0  0  0  0  0  0  0  0  0  0
   -2.2114   -9.8432    2.8818 H   0  0  0  0  0  0  0  0  0  0  0  0
   -0.5634  -10.3139    2.4052 H   0  0  0  0  0  0  0  0  0  0  0  0
    0.8717   -7.3408    6.2716 H   0  0  0  0  0  0  0  0  0  0  0  0
   -0.9961   -5.4507    5.8396 H   0  0  0  0  0  0  0  0  0  0  0  0
   -2.1928   -4.4094    7.5439 H   0  0  0  0  0  0  0  0  0  0  0  0
   -0.8368   -4.2683    8.5199 H   0  0  0  0  0  0  0  0  0  0  0  0
   -1.7313   -2.5025    6.1407 H   0  0  0  0  0  0  0  0  0  0  0  0
    0.2639   -0.6816    7.0690 H   0  0  0  0  0  0  0  0  0  0  0  0
   -0.0088   -1.1164    4.4320 H   0  0  0  0  0  0  0  0  0  0  0  0
    1.6904   -1.5081    4.8400 H   0  0  0  0  0  0  0  0  0  0  0  0
   -0.5889   -3.4268    4.4077 H   0  0  0  0  0  0  0  0  0  0  0  0
    2.9625   -5.3843    7.4877 H   0  0  0  0  0  0  0  0  0  0  0  0
    3.5429   -4.9490    5.9144 H   0  0  0  0  0  0  0  0  0  0  0  0
    3.2154   -3.0068    7.7192 H   0  0  0  0  0  0  0  0  0  0  0  0
    2.9797   -2.7168    6.0535 H   0  0  0  0  0  0  0  0  0  0  0  0
    0.8302   -2.8643    8.2764 H   0  0  0  0  0  0  0  0  0  0  0  0
  1  2  1  0
  1 21  1  0
  1 22  1  0
  1 23  1  0
  2 20  1  0
  2  3  2  0
  3  4  1  0
  4  5  2  0
  5  6  1  0
  5 20  1  0
  6 14  1  0
  6  7  1  0
  6 24  1  1
  7 19  1  0
  7  8  1  0
  7 25  1  1
  8  9  1  0
  8 26  1  0
  8 27  1  0
  9 18  1  0
  9 10  1  0
  9 28  1  6
 10 17  1  0
 10 11  1  0
 10 29  1  1
 11 12  1  0
 11 30  1  0
 11 31  1  0
 12 18  1  0
 12 13  1  0
 12 32  1  6
 13 14  1  0
 14 15  1  0
 14 19  1  1
 15 16  1  0
 15 33  1  0
 15 34  1  0
 16 17  1  0
 16 35  1  0
 16 36  1  0
 17 18  1  0
 17 37  1  1
M  END
>  <i_m_ct_stereo_status>  (198) 
1

>  <s_m_source_file>  (198) 
/var/tmp/pbs.5076255.sched01/tmpbzpkhbzu/844yn2io63.sdf

>  <i_m_source_file_index>  (198) 
3

>  <i_lp_mmshare_version>  (198) 
48012

>  <i_f3d_flags>  (198) 
0

>  <s_epik_input>  (198) 
W0NIM11jMW5uYyhvMSlbQ0BASF0oQzIzNClbQ0BIXShPNClbQ0gyXVtDQEhdNVtDQEhdNltDQEhdKFtDSDJdW0NIMl0zKU41W0NASF0oTzIpW0NIMl02

>  <s_epik_cmdline>  (198) 
J2VwaWtfcHl0aG9uJywgJy1waHQnLCAnMi4wJywgJy1waCcsICc3LjAnLCAnLXRuJywgJzgnLCAnLW1hJywgJzIwMCcsICctaW1hZScsICc8aW5maWxlLm1hZT4nLCAnLW9tYWUnLCAnPG91dGZpbGUubWFlPic=

>  <r_lp_tautomer_probability>  (198) 
1

>  <r_epik_Ionization_Penalty>  (198) 
0.138121

>  <r_epik_Ionization_Penalty_Charging>  (198) 
0

>  <r_epik_Ionization_Penalty_Neutral>  (198) 
0.138121

>  <r_epik_State_Penalty>  (198) 
0.127454

>  <r_epik_Charging_Adjusted_Penalty>  (198) 
0.127454

>  <i_epik_Tot_Q>  (198) 
0

>  <i_epik_Tot_abs_Q>  (198) 
0

>  <s_epik_Chemistry_Notes>  (198) 
This compound contains an acetal/aminal-like group ( X-CH(R)-Y where X, Y are N, S, or O) that may be acid/base labile, releasing an aldehyde.

>  <s_lp_Force_Field>  (198) 
OPLS3e

>  <r_lp_Energy>  (198) 
342.646

>  <b_lp_Chiralities_Consistent>  (198) 
1

>  <s_lp_Variant>  (198) 
62:0-1

>  <s_i_glide_gridfile>  (198) 
pfpi4k_grid

>  <i_i_glide_lignum>  (198) 
3

>  <i_i_glide_rotatable_bonds>  (198) 
1

>  <r_i_docking_score>  (198) 
-3.12109

>  <r_i_glide_ligand_efficiency>  (198) 
-0.156055

>  <r_i_glide_ligand_efficiency_sa>  (198) 
-0.423597

>  <r_i_glide_ligand_efficiency_ln>  (198) 
-0.781106

>  <r_i_glide_gscore>  (198) 
-3.12109

>  <r_i_glide_lipo>  (198) 
-0.295842

>  <r_i_glide_hbond>  (198) 
0

>  <r_i_glide_metal>  (198) 
-0

>  <r_i_glide_rewards>  (198) 
-1.53202

>  <r_i_glide_evdw>  (198) 
-15.2953

>  <r_i_glide_ecoul>  (198) 
-3.88801

>  <r_i_glide_erotb>  (198) 
0.237123

>  <r_i_glide_esite>  (198) 
-0.182383

>  <r_i_glide_emodel>  (198) 
-23.8361

>  <r_i_glide_energy>  (198) 
-19.1833

>  <r_i_glide_einternal>  (198) 
0.558985

>  <r_i_glide_intrahb_reward>  (198) 
-0

>  <i_i_glide_confnum>  (198) 
4

>  <i_i_glide_posenum>  (198) 
8

>  <r_i_glide_eff_state_penalty>  (198) 
0

>  <ligand_id>  (198) 
62

>  <original_smiles>  (198) 
Cc1nnc(C2C3CC4C5CC6OC2(CCC5N64)O3)o1

>  <smiles>  (198) 
[H]C([H])([H])c1nnc(C2([H])C3([H])OC24OC2([H])N5C([H])(C([H])([H])C4([H])[H])C([H])(C2([H])[H])C5([H])C3([H])[H])o1

$$$$
62:1:0
     RDKit          3D

 37 42  0  0  1  0  0  0  0  0999 V2000
    2.0767   -9.5639    2.0781 C   0  0  0  0  0  0  0  0  0  0  0  0
    2.0225   -8.1297    1.6766 C   0  0  0  0  0  0  0  0  0  0  0  0
    0.9397   -7.3366    1.6401 N   0  0  0  0  0  0  0  0  0  0  0  0
    1.3891   -6.1100    1.2135 N   0  0  0  0  0  0  0  0  0  0  0  0
    2.7161   -6.2298    1.0629 C   0  0  0  0  0  0  0  0  0  0  0  0
    3.6865   -5.1835    0.6087 C   0  0  2  0  0  0  0  0  0  0  0  0
    4.9267   -5.0246    1.4652 C   0  0  1  0  0  0  0  0  0  0  0  0
    6.4221   -4.8111    0.7779 C   0  0  0  0  0  0  0  0  0  0  0  0
    6.9815   -3.4443    0.0430 C   0  0  2  0  0  0  0  0  0  0  0  0
    6.5980   -2.4255   -1.1663 C   0  0  2  0  0  0  0  0  0  0  0  0
    5.8676   -1.1843   -0.5910 C   0  0  0  0  0  0  0  0  0  0  0  0
    5.1871   -2.0259    0.4856 C   0  0  1  0  0  0  0  0  0  0  0  0
    3.7847   -2.2302    0.5427 O   0  0  0  0  0  0  0  0  0  0  0  0
    3.2932   -3.6232    0.8580 C   0  0  1  0  0  0  0  0  0  0  0  0
    2.9597   -3.4393   -0.7148 C   0  0  0  0  0  0  0  0  0  0  0  0
    4.0599   -3.1791   -1.8246 C   0  0  0  0  0  0  0  0  0  0  0  0
    5.5289   -3.4368   -1.4288 C   0  0  2  0  0  0  0  0  0  0  0  0
    5.6384   -3.2419   -0.0070 N   0  0  0  0  0  0  0  0  0  0  0  0
    4.2386   -3.8622    2.0261 O   0  0  0  0  0  0  0  0  0  0  0  0
    3.1584   -7.4959    1.2928 O   0  0  0  0  0  0  0  0  0  0  0  0
    1.0929   -9.9182    2.3882 H   0  0  0  0  0  0  0  0  0  0  0  0
    2.7708   -9.6991    2.9086 H   0  0  0  0  0  0  0  0  0  0  0  0
    2.4189  -10.1753    1.2431 H   0  0  0  0  0  0  0  0  0  0  0  0
    4.0188   -5.4765   -0.3916 H   0  0  0  0  0  0  0  0  0  0  0  0
    4.9640   -5.8389    2.1967 H   0  0  0  0  0  0  0  0  0  0  0  0
    7.1406   -5.0310    1.5693 H   0  0  0  0  0  0  0  0  0  0  0  0
    6.5781   -5.6517    0.0939 H   0  0  0  0  0  0  0  0  0  0  0  0
    7.4616   -2.8269    0.8076 H   0  0  0  0  0  0  0  0  0  0  0  0
    7.3242   -2.2874   -1.9729 H   0  0  0  0  0  0  0  0  0  0  0  0
    6.5335   -0.4525   -0.1305 H   0  0  0  0  0  0  0  0  0  0  0  0
    5.1516   -0.6990   -1.2507 H   0  0  0  0  0  0  0  0  0  0  0  0
    5.5497   -1.8354    1.4923 H   0  0  0  0  0  0  0  0  0  0  0  0
    2.3569   -4.2778   -1.0797 H   0  0  0  0  0  0  0  0  0  0  0  0
    2.2099   -2.6582   -0.8461 H   0  0  0  0  0  0  0  0  0  0  0  0
    3.8228   -3.7894   -2.6963 H   0  0  0  0  0  0  0  0  0  0  0  0
    3.9259   -2.1609   -2.1903 H   0  0  0  0  0  0  0  0  0  0  0  0
    5.8562   -4.4412   -1.6992 H   0  0  0  0  0  0  0  0  0  0  0  0
  1  2  1  0
  1 21  1  0
  1 22  1  0
  1 23  1  0
  2 20  1  0
  2  3  2  0
  3  4  1  0
  4  5  2  0
  5  6  1  0
  5 20  1  0
  6 14  1  0
  6  7  1  0
  6 24  1  6
  7 19  1  0
  7  8  1  0
  7 25  1  1
  8  9  1  0
  8 26  1  0
  8 27  1  0
  9 18  1  0
  9 10  1  0
  9 28  1  1
 10 17  1  0
 10 11  1  0
 10 29  1  6
 11 12  1  0
 11 30  1  0
 11 31  1  0
 12 18  1  0
 12 13  1  0
 12 32  1  1
 13 14  1  0
 14 15  1  0
 14 19  1  1
 15 16  1  0
 15 33  1  0
 15 34  1  0
 16 17  1  0
 16 35  1  0
 16 36  1  0
 17 18  1  0
 17 37  1  1
M  END
>  <i_m_ct_stereo_status>  (199) 
1

>  <s_m_source_file>  (199) 
/var/tmp/pbs.5076255.sched01/tmpbzpkhbzu/844yn2io63.sdf

>  <i_m_source_file_index>  (199) 
4

>  <i_lp_mmshare_version>  (199) 
48012

>  <i_f3d_flags>  (199) 
0

>  <s_epik_input>  (199) 
W0NIM11jMW5uYyhvMSlbQ0BASF0oQzIzNClbQ0BIXShPNClbQ0gyXVtDQEhdNVtDQEhdNltDQEhdKFtDSDJdW0NIMl0zKU41W0NASF0oTzIpW0NIMl02

>  <s_epik_cmdline>  (199) 
J2VwaWtfcHl0aG9uJywgJy1waHQnLCAnMi4wJywgJy1waCcsICc3LjAnLCAnLXRuJywgJzgnLCAnLW1hJywgJzIwMCcsICctaW1hZScsICc8aW5maWxlLm1hZT4nLCAnLW9tYWUnLCAnPG91dGZpbGUubWFlPic=

>  <r_lp_tautomer_probability>  (199) 
1

>  <r_epik_Ionization_Penalty>  (199) 
0.138121

>  <r_epik_Ionization_Penalty_Charging>  (199) 
0

>  <r_epik_Ionization_Penalty_Neutral>  (199) 
0.138121

>  <r_epik_State_Penalty>  (199) 
0.127454

>  <r_epik_Charging_Adjusted_Penalty>  (199) 
0.127454

>  <i_epik_Tot_Q>  (199) 
0

>  <i_epik_Tot_abs_Q>  (199) 
0

>  <s_epik_Chemistry_Notes>  (199) 
This compound contains an acetal/aminal-like group ( X-CH(R)-Y where X, Y are N, S, or O) that may be acid/base labile, releasing an aldehyde.

>  <s_lp_Force_Field>  (199) 
OPLS3e

>  <r_lp_Energy>  (199) 
298.619

>  <b_lp_Chiralities_Consistent>  (199) 
1

>  <s_lp_Variant>  (199) 
62:0-2

>  <s_i_glide_gridfile>  (199) 
pfpi4k_grid

>  <i_i_glide_lignum>  (199) 
4

>  <i_i_glide_rotatable_bonds>  (199) 
1

>  <r_i_docking_score>  (199) 
-3.4959

>  <r_i_glide_ligand_efficiency>  (199) 
-0.174795

>  <r_i_glide_ligand_efficiency_sa>  (199) 
-0.474467

>  <r_i_glide_ligand_efficiency_ln>  (199) 
-0.874909

>  <r_i_glide_gscore>  (199) 
-3.4959

>  <r_i_glide_lipo>  (199) 
-0.490906

>  <r_i_glide_hbond>  (199) 
0

>  <r_i_glide_metal>  (199) 
-0

>  <r_i_glide_rewards>  (199) 
-1.58993

>  <r_i_glide_evdw>  (199) 
-19.8767

>  <r_i_glide_ecoul>  (199) 
-3.46019

>  <r_i_glide_erotb>  (199) 
0.237123

>  <r_i_glide_esite>  (199) 
-0.139326

>  <r_i_glide_emodel>  (199) 
-28.1011

>  <r_i_glide_energy>  (199) 
-23.3369

>  <r_i_glide_einternal>  (199) 
1.41644

>  <r_i_glide_intrahb_reward>  (199) 
-0

>  <i_i_glide_confnum>  (199) 
2

>  <i_i_glide_posenum>  (199) 
6

>  <r_i_glide_eff_state_penalty>  (199) 
0

>  <ligand_id>  (199) 
62

>  <original_smiles>  (199) 
Cc1nnc(C2C3CC4C5CC6OC2(CCC5N64)O3)o1

>  <smiles>  (199) 
[H]C([H])([H])c1nnc(C2([H])C3([H])OC24OC2([H])N5C([H])(C([H])([H])C4([H])[H])C([H])(C2([H])[H])C5([H])C3([H])[H])o1

$$$$
62:1:1
     RDKit          3D

 37 42  0  0  1  0  0  0  0  0999 V2000
   -2.0119    4.4736    8.6910 C   0  0  0  0  0  0  0  0  0  0  0  0
   -1.8673    3.2668    7.8275 C   0  0  0  0  0  0  0  0  0  0  0  0
   -2.5863    2.1449    7.8940 N   0  0  0  0  0  0  0  0  0  0  0  0
   -2.0951    1.3137    6.9186 N   0  0  0  0  0  0  0  0  0  0  0  0
   -1.0874    1.9803    6.3416 C   0  0  0  0  0  0  0  0  0  0  0  0
   -0.2488    1.5334    5.1791 C   0  0  2  0  0  0  0  0  0  0  0  0
   -0.9423    1.3376    3.8487 C   0  0  1  0  0  0  0  0  0  0  0  0
   -0.2540    1.8710    2.4338 C   0  0  0  0  0  0  0  0  0  0  0  0
    1.0455    1.2204    1.6584 C   0  0  2  0  0  0  0  0  0  0  0  0
    2.5991    0.8234    1.9280 C   0  0  2  0  0  0  0  0  0  0  0  0
    2.7132   -0.6804    2.2662 C   0  0  0  0  0  0  0  0  0  0  0  0
    1.3726   -0.6560    2.9963 C   0  0  1  0  0  0  0  0  0  0  0  0
    1.2495   -0.8841    4.3928 O   0  0  0  0  0  0  0  0  0  0  0  0
    0.2947    0.0009    5.1588 C   0  0  1  0  0  0  0  0  0  0  0  0
    1.7605    0.5035    5.6253 C   0  0  0  0  0  0  0  0  0  0  0  0
    2.8401    1.1060    4.6290 C   0  0  0  0  0  0  0  0  0  0  0  0
    2.3527    1.5246    3.2204 C   0  0  2  0  0  0  0  0  0  0  0  0
    1.2018    0.7191    2.9110 N   0  0  0  0  0  0  0  0  0  0  0  0
   -0.8616   -0.0909    4.1684 O   0  0  0  0  0  0  0  0  0  0  0  0
   -0.9260    3.2354    6.8506 O   0  0  0  0  0  0  0  0  0  0  0  0
   -2.8380    4.3461    9.3899 H   0  0  0  0  0  0  0  0  0  0  0  0
   -2.2125    5.3502    8.0803 H   0  0  0  0  0  0  0  0  0  0  0  0
   -1.0995    4.6434    9.2596 H   0  0  0  0  0  0  0  0  0  0  0  0
    0.4890    2.3258    5.0132 H   0  0  0  0  0  0  0  0  0  0  0  0
   -1.9738    1.6923    3.9265 H   0  0  0  0  0  0  0  0  0  0  0  0
   -1.0541    1.8628    1.6935 H   0  0  0  0  0  0  0  0  0  0  0  0
   -0.0690    2.9426    2.5538 H   0  0  0  0  0  0  0  0  0  0  0  0
    0.6735    0.4762    0.9538 H   0  0  0  0  0  0  0  0  0  0  0  0
    3.3612    1.2710    1.2868 H   0  0  0  0  0  0  0  0  0  0  0  0
    2.6718   -1.3235    1.3853 H   0  0  0  0  0  0  0  0  0  0  0  0
    3.5376   -0.9636    2.9175 H   0  0  0  0  0  0  0  0  0  0  0  0
    0.5863   -1.1991    2.4787 H   0  0  0  0  0  0  0  0  0  0  0  0
    1.6755    1.2309    6.4388 H   0  0  0  0  0  0  0  0  0  0  0  0
    2.2591   -0.2867    6.2001 H   0  0  0  0  0  0  0  0  0  0  0  0
    3.3151    1.9641    5.1024 H   0  0  0  0  0  0  0  0  0  0  0  0
    3.6561    0.3874    4.5549 H   0  0  0  0  0  0  0  0  0  0  0  0
    2.1115    2.5898    3.1371 H   0  0  0  0  0  0  0  0  0  0  0  0
  1  2  1  0
  1 21  1  0
  1 22  1  0
  1 23  1  0
  2 20  1  0
  2  3  2  0
  3  4  1  0
  4  5  2  0
  5  6  1  0
  5 20  1  0
  6 14  1  0
  6  7  1  0
  6 24  1  6
  7 19  1  0
  7  8  1  0
  7 25  1  1
  8  9  1  0
  8 26  1  0
  8 27  1  0
  9 18  1  0
  9 10  1  0
  9 28  1  6
 10 17  1  0
 10 11  1  0
 10 29  1  6
 11 12  1  0
 11 30  1  0
 11 31  1  0
 12 18  1  0
 12 13  1  0
 12 32  1  6
 13 14  1  0
 14 15  1  0
 14 19  1  1
 15 16  1  0
 15 33  1  0
 15 34  1  0
 16 17  1  0
 16 35  1  0
 16 36  1  0
 17 18  1  0
 17 37  1  6
M  END
>  <i_m_ct_stereo_status>  (200) 
1

>  <s_m_source_file>  (200) 
/var/tmp/pbs.5076255.sched01/tmpbzpkhbzu/844yn2io63.sdf

>  <i_m_source_file_index>  (200) 
4

>  <i_lp_mmshare_version>  (200) 
48012

>  <i_f3d_flags>  (200) 
0

>  <s_epik_input>  (200) 
W0NIM11jMW5uYyhvMSlbQ0BASF0oQzIzNClbQ0BIXShPNClbQ0gyXVtDQEhdNVtDQEhdNltDQEhdKFtDSDJdW0NIMl0zKU41W0NASF0oTzIpW0NIMl02

>  <s_epik_cmdline>  (200) 
J2VwaWtfcHl0aG9uJywgJy1waHQnLCAnMi4wJywgJy1waCcsICc3LjAnLCAnLXRuJywgJzgnLCAnLW1hJywgJzIwMCcsICctaW1hZScsICc8aW5maWxlLm1hZT4nLCAnLW9tYWUnLCAnPG91dGZpbGUubWFlPic=

>  <r_lp_tautomer_probability>  (200) 
1

>  <r_epik_Ionization_Penalty>  (200) 
0.138121

>  <r_epik_Ionization_Penalty_Charging>  (200) 
0

>  <r_epik_Ionization_Penalty_Neutral>  (200) 
0.138121

>  <r_epik_State_Penalty>  (200) 
0.127454

>  <r_epik_Charging_Adjusted_Penalty>  (200) 
0.127454

>  <i_epik_Tot_Q>  (200) 
0

>  <i_epik_Tot_abs_Q>  (200) 
0

>  <s_epik_Chemistry_Notes>  (200) 
This compound contains an acetal/aminal-like group ( X-CH(R)-Y where X, Y are N, S, or O) that may be acid/base labile, releasing an aldehyde.

>  <s_lp_Force_Field>  (200) 
OPLS3e

>  <r_lp_Energy>  (200) 
298.619

>  <b_lp_Chiralities_Consistent>  (200) 
1

>  <s_lp_Variant>  (200) 
62:0-2

>  <s_i_glide_gridfile>  (200) 
pfpi4k_grid

>  <i_i_glide_lignum>  (200) 
4

>  <i_i_glide_rotatable_bonds>  (200) 
1

>  <r_i_docking_score>  (200) 
-2.7781

>  <r_i_glide_ligand_efficiency>  (200) 
-0.138905

>  <r_i_glide_ligand_efficiency_sa>  (200) 
-0.377046

>  <r_i_glide_ligand_efficiency_ln>  (200) 
-0.695266

>  <r_i_glide_gscore>  (200) 
-2.7781

>  <r_i_glide_lipo>  (200) 
-0.0241087

>  <r_i_glide_hbond>  (200) 
0

>  <r_i_glide_metal>  (200) 
-0

>  <r_i_glide_rewards>  (200) 
-1.53202

>  <r_i_glide_evdw>  (200) 
-16.7172

>  <r_i_glide_ecoul>  (200) 
-3.4509

>  <r_i_glide_erotb>  (200) 
0.237123

>  <r_i_glide_esite>  (200) 
-0.105592

>  <r_i_glide_emodel>  (200) 
-24.3832

>  <r_i_glide_energy>  (200) 
-20.1681

>  <r_i_glide_einternal>  (200) 
0.29563

>  <r_i_glide_intrahb_reward>  (200) 
-0

>  <i_i_glide_confnum>  (200) 
2

>  <i_i_glide_posenum>  (200) 
7

>  <r_i_glide_eff_state_penalty>  (200) 
0

>  <ligand_id>  (200) 
62

>  <original_smiles>  (200) 
Cc1nnc(C2C3CC4C5CC6OC2(CCC5N64)O3)o1

>  <smiles>  (200) 
[H]C([H])([H])c1nnc(C2([H])C3([H])OC24OC2([H])N5C([H])(C([H])([H])C4([H])[H])C([H])(C2([H])[H])C5([H])C3([H])[H])o1

$$$$
62:1:2
     RDKit          3D

 37 42  0  0  1  0  0  0  0  0999 V2000
   -2.0163    3.7385   11.1763 C   0  0  0  0  0  0  0  0  0  0  0  0
   -2.3537    3.4016    9.7622 C   0  0  0  0  0  0  0  0  0  0  0  0
   -3.5721    3.2356    9.2462 N   0  0  0  0  0  0  0  0  0  0  0  0
   -3.3795    2.9474    7.9127 N   0  0  0  0  0  0  0  0  0  0  0  0
   -2.0589    2.9598    7.7164 C   0  0  0  0  0  0  0  0  0  0  0  0
   -1.3163    2.7766    6.4225 C   0  0  2  0  0  0  0  0  0  0  0  0
   -0.7522    4.0172    5.7668 C   0  0  1  0  0  0  0  0  0  0  0  0
    0.7714    4.0191    5.1030 C   0  0  0  0  0  0  0  0  0  0  0  0
    1.2420    3.2796    3.7050 C   0  0  2  0  0  0  0  0  0  0  0  0
    1.2546    1.8088    3.0086 C   0  0  2  0  0  0  0  0  0  0  0  0
    0.0468    1.6684    2.0554 C   0  0  0  0  0  0  0  0  0  0  0  0
   -0.8279    2.5220    2.9729 C   0  0  1  0  0  0  0  0  0  0  0  0
   -1.9650    2.0104    3.6513 O   0  0  0  0  0  0  0  0  0  0  0  0
   -2.1748    2.4302    5.0850 C   0  0  1  0  0  0  0  0  0  0  0  0
   -1.7281    0.8757    5.1805 C   0  0  0  0  0  0  0  0  0  0  0  0
   -0.3270    0.3312    4.6690 C   0  0  0  0  0  0  0  0  0  0  0  0
    0.7720    1.3760    4.3531 C   0  0  2  0  0  0  0  0  0  0  0  0
    0.1038    2.6013    4.0011 N   0  0  0  0  0  0  0  0  0  0  0  0
   -1.9020    3.9140    4.8685 O   0  0  0  0  0  0  0  0  0  0  0  0
   -1.3563    3.2441    8.8494 O   0  0  0  0  0  0  0  0  0  0  0  0
   -2.9274    3.8553   11.7659 H   0  0  0  0  0  0  0  0  0  0  0  0
   -1.4510    4.6687   11.2227 H   0  0  0  0  0  0  0  0  0  0  0  0
   -1.4226    2.9410   11.6236 H   0  0  0  0  0  0  0  0  0  0  0  0
   -0.4635    2.1306    6.6528 H   0  0  0  0  0  0  0  0  0  0  0  0
   -0.8711    4.8613    6.4538 H   0  0  0  0  0  0  0  0  0  0  0  0
    1.0366    5.0696    4.9768 H   0  0  0  0  0  0  0  0  0  0  0  0
    1.4589    3.7081    5.8955 H   0  0  0  0  0  0  0  0  0  0  0  0
    1.0964    3.9836    2.8813 H   0  0  0  0  0  0  0  0  0  0  0  0
    2.2175    1.3962    2.6952 H   0  0  0  0  0  0  0  0  0  0  0  0
    0.2001    2.1413    1.0910 H   0  0  0  0  0  0  0  0  0  0  0  0
   -0.3461    0.6642    1.9164 H   0  0  0  0  0  0  0  0  0  0  0  0
   -1.0688    3.4988    2.5605 H   0  0  0  0  0  0  0  0  0  0  0  0
   -1.8226    0.5207    6.2101 H   0  0  0  0  0  0  0  0  0  0  0  0
   -2.5016    0.2338    4.7409 H   0  0  0  0  0  0  0  0  0  0  0  0
    0.0628   -0.3771    5.3997 H   0  0  0  0  0  0  0  0  0  0  0  0
   -0.5196   -0.2986    3.8000 H   0  0  0  0  0  0  0  0  0  0  0  0
    1.4705    1.5421    5.1794 H   0  0  0  0  0  0  0  0  0  0  0  0
  1  2  1  0
  1 21  1  0
  1 22  1  0
  1 23  1  0
  2 20  1  0
  2  3  2  0
  3  4  1  0
  4  5  2  0
  5  6  1  0
  5 20  1  0
  6 14  1  0
  6  7  1  0
  6 24  1  1
  7 19  1  0
  7  8  1  0
  7 25  1  1
  8  9  1  0
  8 26  1  0
  8 27  1  0
  9 18  1  0
  9 10  1  0
  9 28  1  6
 10 17  1  0
 10 11  1  0
 10 29  1  6
 11 12  1  0
 11 30  1  0
 11 31  1  0
 12 18  1  0
 12 13  1  0
 12 32  1  6
 13 14  1  0
 14 15  1  0
 14 19  1  6
 15 16  1  0
 15 33  1  0
 15 34  1  0
 16 17  1  0
 16 35  1  0
 16 36  1  0
 17 18  1  0
 17 37  1  1
M  END
>  <i_m_ct_stereo_status>  (201) 
1

>  <s_m_source_file>  (201) 
/var/tmp/pbs.5076255.sched01/tmpbzpkhbzu/844yn2io63.sdf

>  <i_m_source_file_index>  (201) 
4

>  <i_lp_mmshare_version>  (201) 
48012

>  <i_f3d_flags>  (201) 
0

>  <s_epik_input>  (201) 
W0NIM11jMW5uYyhvMSlbQ0BASF0oQzIzNClbQ0BIXShPNClbQ0gyXVtDQEhdNVtDQEhdNltDQEhdKFtDSDJdW0NIMl0zKU41W0NASF0oTzIpW0NIMl02

>  <s_epik_cmdline>  (201) 
J2VwaWtfcHl0aG9uJywgJy1waHQnLCAnMi4wJywgJy1waCcsICc3LjAnLCAnLXRuJywgJzgnLCAnLW1hJywgJzIwMCcsICctaW1hZScsICc8aW5maWxlLm1hZT4nLCAnLW9tYWUnLCAnPG91dGZpbGUubWFlPic=

>  <r_lp_tautomer_probability>  (201) 
1

>  <r_epik_Ionization_Penalty>  (201) 
0.138121

>  <r_epik_Ionization_Penalty_Charging>  (201) 
0

>  <r_epik_Ionization_Penalty_Neutral>  (201) 
0.138121

>  <r_epik_State_Penalty>  (201) 
0.127454

>  <r_epik_Charging_Adjusted_Penalty>  (201) 
0.127454

>  <i_epik_Tot_Q>  (201) 
0

>  <i_epik_Tot_abs_Q>  (201) 
0

>  <s_epik_Chemistry_Notes>  (201) 
This compound contains an acetal/aminal-like group ( X-CH(R)-Y where X, Y are N, S, or O) that may be acid/base labile, releasing an aldehyde.

>  <s_lp_Force_Field>  (201) 
OPLS3e

>  <r_lp_Energy>  (201) 
298.619

>  <b_lp_Chiralities_Consistent>  (201) 
1

>  <s_lp_Variant>  (201) 
62:0-2

>  <s_i_glide_gridfile>  (201) 
pfpi4k_grid

>  <i_i_glide_lignum>  (201) 
4

>  <i_i_glide_rotatable_bonds>  (201) 
1

>  <r_i_docking_score>  (201) 
-2.77095

>  <r_i_glide_ligand_efficiency>  (201) 
-0.138548

>  <r_i_glide_ligand_efficiency_sa>  (201) 
-0.376076

>  <r_i_glide_ligand_efficiency_ln>  (201) 
-0.693478

>  <r_i_glide_gscore>  (201) 
-2.77095

>  <r_i_glide_lipo>  (201) 
-0.0686674

>  <r_i_glide_hbond>  (201) 
0

>  <r_i_glide_metal>  (201) 
-0

>  <r_i_glide_rewards>  (201) 
-1.53202

>  <r_i_glide_evdw>  (201) 
-19.6534

>  <r_i_glide_ecoul>  (201) 
-2.28503

>  <r_i_glide_erotb>  (201) 
0.237123

>  <r_i_glide_esite>  (201) 
-0.0819588

>  <r_i_glide_emodel>  (201) 
-25.9824

>  <r_i_glide_energy>  (201) 
-21.9385

>  <r_i_glide_einternal>  (201) 
0.549905

>  <r_i_glide_intrahb_reward>  (201) 
-0

>  <i_i_glide_confnum>  (201) 
2

>  <i_i_glide_posenum>  (201) 
15

>  <r_i_glide_eff_state_penalty>  (201) 
0

>  <ligand_id>  (201) 
62

>  <original_smiles>  (201) 
Cc1nnc(C2C3CC4C5CC6OC2(CCC5N64)O3)o1

>  <smiles>  (201) 
[H]C([H])([H])c1nnc(C2([H])C3([H])OC24OC2([H])N5C([H])(C([H])([H])C4([H])[H])C([H])(C2([H])[H])C5([H])C3([H])[H])o1

$$$$
62:2:0
     RDKit          3D

 38 43  0  0  1  0  0  0  0  0999 V2000
    1.0038   -8.6042    2.8833 C   0  0  0  0  0  0  0  0  0  0  0  0
    1.3906   -7.5209    1.9355 C   0  0  0  0  0  0  0  0  0  0  0  0
    0.5630   -6.6846    1.2934 N   0  0  0  0  0  0  0  0  0  0  0  0
    1.3780   -5.8580    0.5615 N   0  0  0  0  0  0  0  0  0  0  0  0
    2.6257   -6.2378    0.8372 C   0  0  0  0  0  0  0  0  0  0  0  0
    3.8794   -5.6080    0.3109 C   0  0  2  0  0  0  0  0  0  0  0  0
    4.9766   -4.9643    1.3051 C   0  0  2  0  0  0  0  0  0  0  0  0
    5.6755   -3.6298    2.0421 C   0  0  0  0  0  0  0  0  0  0  0  0
    5.0159   -2.1375    2.1847 C   0  0  2  0  0  0  0  0  0  0  0  0
    4.5657   -0.8976    1.2261 C   0  0  2  0  0  0  0  0  0  0  0  0
    3.0328   -0.9323    1.0378 C   0  0  0  0  0  0  0  0  0  0  0  0
    2.8410   -2.4743    1.0962 C   0  0  1  0  0  0  0  0  0  0  0  0
    2.7492   -3.3120   -0.0353 O   0  0  0  0  0  0  0  0  0  0  0  0
    3.8150   -4.2971   -0.4582 C   0  0  2  0  0  0  0  0  0  0  0  0
    4.3446   -3.5704   -1.7073 C   0  0  0  0  0  0  0  0  0  0  0  0
    4.5835   -2.0258   -1.3598 C   0  0  0  0  0  0  0  0  0  0  0  0
    5.1043   -1.7185    0.1123 C   0  0  2  0  0  0  0  0  0  0  0  0
    4.3176   -2.4758    1.1028 N   0  0  1  0  0  0  0  0  0  0  0  0
    5.2507   -4.3192    0.0222 O   0  0  0  0  0  0  0  0  0  0  0  0
    2.7013   -7.2932    1.6838 O   0  0  0  0  0  0  0  0  0  0  0  0
   -0.0763   -8.6145    3.0256 H   0  0  0  0  0  0  0  0  0  0  0  0
    1.4837   -8.4390    3.8488 H   0  0  0  0  0  0  0  0  0  0  0  0
    1.3182   -9.5718    2.4911 H   0  0  0  0  0  0  0  0  0  0  0  0
    4.3583   -6.3621   -0.3143 H   0  0  0  0  0  0  0  0  0  0  0  0
    4.0938   -4.8093    1.9240 H   0  0  0  0  0  0  0  0  0  0  0  0
    5.8469   -3.9550    3.0673 H   0  0  0  0  0  0  0  0  0  0  0  0
    6.7025   -3.5379    1.6796 H   0  0  0  0  0  0  0  0  0  0  0  0
    4.4036   -2.0877    3.0821 H   0  0  0  0  0  0  0  0  0  0  0  0
    5.0714    0.0599    1.3722 H   0  0  0  0  0  0  0  0  0  0  0  0
    2.5135   -0.4357    1.8635 H   0  0  0  0  0  0  0  0  0  0  0  0
    2.6858   -0.5129    0.0887 H   0  0  0  0  0  0  0  0  0  0  0  0
    2.4132   -2.8822    2.0126 H   0  0  0  0  0  0  0  0  0  0  0  0
    5.2342   -4.0322   -2.1456 H   0  0  0  0  0  0  0  0  0  0  0  0
    3.5812   -3.6236   -2.4836 H   0  0  0  0  0  0  0  0  0  0  0  0
    5.2716   -1.6042   -2.0997 H   0  0  0  0  0  0  0  0  0  0  0  0
    3.6410   -1.5083   -1.5474 H   0  0  0  0  0  0  0  0  0  0  0  0
    6.1848   -1.8629    0.1842 H   0  0  0  0  0  0  0  0  0  0  0  0
    4.6124   -3.4313    0.8667 H   0  0  0  0  0  0  0  0  0  0  0  0
  1  2  1  0
  1 21  1  0
  1 22  1  0
  1 23  1  0
  2 20  1  0
  2  3  2  0
  3  4  1  0
  4  5  2  0
  5  6  1  0
  5 20  1  0
  6 14  1  0
  6  7  1  0
  6 24  1  6
  7 19  1  0
  7  8  1  0
  7 25  1  6
  8  9  1  0
  8 26  1  0
  8 27  1  0
  9 18  1  0
  9 10  1  0
  9 28  1  1
 10 17  1  0
 10 11  1  0
 10 29  1  1
 11 12  1  0
 11 30  1  0
 11 31  1  0
 12 18  1  0
 12 13  1  0
 12 32  1  1
 13 14  1  0
 14 15  1  0
 14 19  1  1
 15 16  1  0
 15 33  1  0
 15 34  1  0
 16 17  1  0
 16 35  1  0
 16 36  1  0
 17 18  1  0
 17 37  1  6
 18 38  1  6
M  CHG  1  18   1
M  END
>  <i_m_ct_stereo_status>  (202) 
1

>  <s_m_source_file>  (202) 
/var/tmp/pbs.5076255.sched01/tmpbzpkhbzu/844yn2io63.sdf

>  <i_m_source_file_index>  (202) 
5

>  <i_lp_mmshare_version>  (202) 
48012

>  <i_f3d_flags>  (202) 
0

>  <s_epik_input>  (202) 
W0NIM11jMW5uYyhvMSlbQ0BASF0oQzIzNClbQ0BIXShPNClbQ0gyXVtDQEhdNVtDQEhdNltDQEhdKFtDSDJdW0NIMl0zKU41W0NASF0oTzIpW0NIMl02

>  <s_epik_cmdline>  (202) 
J2VwaWtfcHl0aG9uJywgJy1waHQnLCAnMi4wJywgJy1waCcsICc3LjAnLCAnLXRuJywgJzgnLCAnLW1hJywgJzIwMCcsICctaW1hZScsICc8aW5maWxlLm1hZT4nLCAnLW9tYWUnLCAnPG91dGZpbGUubWFlPic=

>  <r_lp_tautomer_probability>  (202) 
1

>  <r_epik_Ionization_Penalty>  (202) 
0.930496

>  <r_epik_Ionization_Penalty_Charging>  (202) 
0.930496

>  <r_epik_Ionization_Penalty_Neutral>  (202) 
7.06767e-09

>  <r_epik_State_Penalty>  (202) 
0.972982

>  <r_epik_Charging_Adjusted_Penalty>  (202) 
1.90348

>  <i_epik_Tot_Q>  (202) 
1

>  <i_epik_Tot_abs_Q>  (202) 
1

>  <s_epik_Chemistry_Notes>  (202) 
This compound contains an acetal/aminal-like group ( X-CH(R)-Y where X, Y are N, S, or O) that may be acid/base labile, releasing an aldehyde.

>  <s_lp_Force_Field>  (202) 
OPLS3e

>  <r_lp_Energy>  (202) 
337.963

>  <b_lp_Chiralities_Consistent>  (202) 
1

>  <s_lp_Variant>  (202) 
62:0-3

>  <s_i_glide_gridfile>  (202) 
pfpi4k_grid

>  <i_i_glide_lignum>  (202) 
5

>  <i_i_glide_rotatable_bonds>  (202) 
1

>  <r_i_docking_score>  (202) 
-3.86126

>  <r_i_glide_ligand_efficiency>  (202) 
-0.193063

>  <r_i_glide_ligand_efficiency_sa>  (202) 
-0.524053

>  <r_i_glide_ligand_efficiency_ln>  (202) 
-0.966345

>  <r_i_glide_gscore>  (202) 
-3.86126

>  <r_i_glide_lipo>  (202) 
-0.252884

>  <r_i_glide_hbond>  (202) 
0

>  <r_i_glide_metal>  (202) 
-0

>  <r_i_glide_rewards>  (202) 
-1.52515

>  <r_i_glide_evdw>  (202) 
-17.898

>  <r_i_glide_ecoul>  (202) 
-7.74449

>  <r_i_glide_erotb>  (202) 
0.235625

>  <r_i_glide_esite>  (202) 
-0.262272

>  <r_i_glide_emodel>  (202) 
-32.8295

>  <r_i_glide_energy>  (202) 
-25.6425

>  <r_i_glide_einternal>  (202) 
0.886944

>  <r_i_glide_intrahb_reward>  (202) 
-0

>  <i_i_glide_confnum>  (202) 
5

>  <i_i_glide_posenum>  (202) 
2

>  <r_i_glide_eff_state_penalty>  (202) 
0

>  <ligand_id>  (202) 
62

>  <original_smiles>  (202) 
Cc1nnc(C2C3CC4C5CC6OC2(CCC5N64)O3)o1

>  <smiles>  (202) 
[H]C([H])([H])c1nnc(C2([H])C3([H])OC24OC2([H])C([H])([H])C5([H])C([H])(C([H])([H])C4([H])[H])[N+]2([H])C5([H])C3([H])[H])o1

$$$$
62:2:1
     RDKit          3D

 38 43  0  0  1  0  0  0  0  0999 V2000
   -0.8114   -9.3739    2.8596 C   0  0  0  0  0  0  0  0  0  0  0  0
   -0.0462   -8.1499    2.4882 C   0  0  0  0  0  0  0  0  0  0  0  0
   -0.4930   -7.1616    1.7074 N   0  0  0  0  0  0  0  0  0  0  0  0
    0.5438   -6.2652    1.6086 N   0  0  0  0  0  0  0  0  0  0  0  0
    1.5267   -6.7621    2.3725 C   0  0  0  0  0  0  0  0  0  0  0  0
    2.8768   -6.1427    2.6013 C   0  0  2  0  0  0  0  0  0  0  0  0
    3.0711   -4.5854    2.9985 C   0  0  2  0  0  0  0  0  0  0  0  0
    3.4359   -3.0098    2.5591 C   0  0  0  0  0  0  0  0  0  0  0  0
    3.4693   -2.4138    1.0346 C   0  0  2  0  0  0  0  0  0  0  0  0
    4.3193   -2.6046   -0.3386 C   0  0  2  0  0  0  0  0  0  0  0  0
    3.5322   -3.4892   -1.3286 C   0  0  0  0  0  0  0  0  0  0  0  0
    2.8229   -4.3826   -0.2806 C   0  0  1  0  0  0  0  0  0  0  0  0
    3.2807   -5.6631    0.1052 O   0  0  0  0  0  0  0  0  0  0  0  0
    3.8581   -5.9778    1.4629 C   0  0  2  0  0  0  0  0  0  0  0  0
    5.3265   -6.1716    1.0671 C   0  0  0  0  0  0  0  0  0  0  0  0
    5.7736   -4.9682    0.1148 C   0  0  0  0  0  0  0  0  0  0  0  0
    5.1536   -3.5431    0.4469 C   0  0  2  0  0  0  0  0  0  0  0  0
    3.7091   -3.6716    0.6681 N   0  0  1  0  0  0  0  0  0  0  0  0
    4.3746   -4.9730    2.4723 O   0  0  0  0  0  0  0  0  0  0  0  0
    1.2193   -7.9620    2.9501 O   0  0  0  0  0  0  0  0  0  0  0  0
   -1.8065   -9.3294    2.4142 H   0  0  0  0  0  0  0  0  0  0  0  0
   -0.9144   -9.4386    3.9402 H   0  0  0  0  0  0  0  0  0  0  0  0
   -0.3047  -10.2605    2.4852 H   0  0  0  0  0  0  0  0  0  0  0  0
    3.3587   -6.7369    3.3824 H   0  0  0  0  0  0  0  0  0  0  0  0
    2.1506   -4.4963    2.4291 H   0  0  0  0  0  0  0  0  0  0  0  0
    2.6970   -2.4019    3.0824 H   0  0  0  0  0  0  0  0  0  0  0  0
    4.3450   -2.7084    3.0854 H   0  0  0  0  0  0  0  0  0  0  0  0
    2.4815   -2.0689    0.7425 H   0  0  0  0  0  0  0  0  0  0  0  0
    4.8511   -1.7241   -0.7032 H   0  0  0  0  0  0  0  0  0  0  0  0
    2.7992   -2.9012   -1.8944 H   0  0  0  0  0  0  0  0  0  0  0  0
    4.1515   -4.0684   -2.0188 H   0  0  0  0  0  0  0  0  0  0  0  0
    1.7764   -4.1836   -0.1067 H   0  0  0  0  0  0  0  0  0  0  0  0
    6.0096   -6.2917    1.9136 H   0  0  0  0  0  0  0  0  0  0  0  0
    5.4090   -7.0954    0.4934 H   0  0  0  0  0  0  0  0  0  0  0  0
    6.8664   -4.9148    0.1093 H   0  0  0  0  0  0  0  0  0  0  0  0
    5.5008   -5.2648   -0.8975 H   0  0  0  0  0  0  0  0  0  0  0  0
    5.6997   -3.0405    1.2506 H   0  0  0  0  0  0  0  0  0  0  0  0
    3.7282   -4.2113    1.5341 H   0  0  0  0  0  0  0  0  0  0  0  0
  1  2  1  0
  1 21  1  0
  1 22  1  0
  1 23  1  0
  2 20  1  0
  2  3  2  0
  3  4  1  0
  4  5  2  0
  5  6  1  0
  5 20  1  0
  6 14  1  0
  6  7  1  0
  6 24  1  1
  7 19  1  0
  7  8  1  0
  7 25  1  1
  8  9  1  0
  8 26  1  0
  8 27  1  0
  9 18  1  0
  9 10  1  0
  9 28  1  6
 10 17  1  0
 10 11  1  0
 10 29  1  6
 11 12  1  0
 11 30  1  0
 11 31  1  0
 12 18  1  0
 12 13  1  0
 12 32  1  1
 13 14  1  0
 14 15  1  0
 14 19  1  1
 15 16  1  0
 15 33  1  0
 15 34  1  0
 16 17  1  0
 16 35  1  0
 16 36  1  0
 17 18  1  0
 17 37  1  1
 18 38  1  1
M  CHG  1  18   1
M  END
>  <i_m_ct_stereo_status>  (203) 
1

>  <s_m_source_file>  (203) 
/var/tmp/pbs.5076255.sched01/tmpbzpkhbzu/844yn2io63.sdf

>  <i_m_source_file_index>  (203) 
5

>  <i_lp_mmshare_version>  (203) 
48012

>  <i_f3d_flags>  (203) 
0

>  <s_epik_input>  (203) 
W0NIM11jMW5uYyhvMSlbQ0BASF0oQzIzNClbQ0BIXShPNClbQ0gyXVtDQEhdNVtDQEhdNltDQEhdKFtDSDJdW0NIMl0zKU41W0NASF0oTzIpW0NIMl02

>  <s_epik_cmdline>  (203) 
J2VwaWtfcHl0aG9uJywgJy1waHQnLCAnMi4wJywgJy1waCcsICc3LjAnLCAnLXRuJywgJzgnLCAnLW1hJywgJzIwMCcsICctaW1hZScsICc8aW5maWxlLm1hZT4nLCAnLW9tYWUnLCAnPG91dGZpbGUubWFlPic=

>  <r_lp_tautomer_probability>  (203) 
1

>  <r_epik_Ionization_Penalty>  (203) 
0.930496

>  <r_epik_Ionization_Penalty_Charging>  (203) 
0.930496

>  <r_epik_Ionization_Penalty_Neutral>  (203) 
7.06767e-09

>  <r_epik_State_Penalty>  (203) 
0.972982

>  <r_epik_Charging_Adjusted_Penalty>  (203) 
1.90348

>  <i_epik_Tot_Q>  (203) 
1

>  <i_epik_Tot_abs_Q>  (203) 
1

>  <s_epik_Chemistry_Notes>  (203) 
This compound contains an acetal/aminal-like group ( X-CH(R)-Y where X, Y are N, S, or O) that may be acid/base labile, releasing an aldehyde.

>  <s_lp_Force_Field>  (203) 
OPLS3e

>  <r_lp_Energy>  (203) 
337.963

>  <b_lp_Chiralities_Consistent>  (203) 
1

>  <s_lp_Variant>  (203) 
62:0-3

>  <s_i_glide_gridfile>  (203) 
pfpi4k_grid

>  <i_i_glide_lignum>  (203) 
5

>  <i_i_glide_rotatable_bonds>  (203) 
1

>  <r_i_docking_score>  (203) 
-3.70081

>  <r_i_glide_ligand_efficiency>  (203) 
-0.18504

>  <r_i_glide_ligand_efficiency_sa>  (203) 
-0.502277

>  <r_i_glide_ligand_efficiency_ln>  (203) 
-0.92619

>  <r_i_glide_gscore>  (203) 
-3.70081

>  <r_i_glide_lipo>  (203) 
-0.240013

>  <r_i_glide_hbond>  (203) 
0

>  <r_i_glide_metal>  (203) 
-0

>  <r_i_glide_rewards>  (203) 
-1.58339

>  <r_i_glide_evdw>  (203) 
-16.5293

>  <r_i_glide_ecoul>  (203) 
-6.92859

>  <r_i_glide_erotb>  (203) 
0.235625

>  <r_i_glide_esite>  (203) 
-0.247271

>  <r_i_glide_emodel>  (203) 
-30.538

>  <r_i_glide_energy>  (203) 
-23.4579

>  <r_i_glide_einternal>  (203) 
0.332342

>  <r_i_glide_intrahb_reward>  (203) 
-0

>  <i_i_glide_confnum>  (203) 
5

>  <i_i_glide_posenum>  (203) 
14

>  <r_i_glide_eff_state_penalty>  (203) 
0

>  <ligand_id>  (203) 
62

>  <original_smiles>  (203) 
Cc1nnc(C2C3CC4C5CC6OC2(CCC5N64)O3)o1

>  <smiles>  (203) 
[H]C([H])([H])c1nnc(C2([H])C3([H])OC24OC2([H])C([H])([H])C5([H])C([H])(C([H])([H])C4([H])[H])[N+]2([H])C5([H])C3([H])[H])o1

$$$$
62:2:2
     RDKit          3D

 38 43  0  0  1  0  0  0  0  0999 V2000
   -0.2577   -8.6913    2.4708 C   0  0  0  0  0  0  0  0  0  0  0  0
    0.5628   -7.5540    1.9630 C   0  0  0  0  0  0  0  0  0  0  0  0
    0.2349   -6.7499    0.9492 N   0  0  0  0  0  0  0  0  0  0  0  0
    1.3033   -5.9096    0.7874 N   0  0  0  0  0  0  0  0  0  0  0  0
    2.1800   -6.2363    1.7400 C   0  0  0  0  0  0  0  0  0  0  0  0
    3.4466   -5.4953    2.0661 C   0  0  2  0  0  0  0  0  0  0  0  0
    3.4703   -4.0273    2.7446 C   0  0  2  0  0  0  0  0  0  0  0  0
    3.6761   -2.3673    2.6194 C   0  0  0  0  0  0  0  0  0  0  0  0
    3.5700   -1.4928    1.2410 C   0  0  2  0  0  0  0  0  0  0  0  0
    4.3583   -1.3245   -0.1745 C   0  0  2  0  0  0  0  0  0  0  0  0
    3.6037   -2.0851   -1.2862 C   0  0  0  0  0  0  0  0  0  0  0  0
    3.0433   -3.2269   -0.4017 C   0  0  1  0  0  0  0  0  0  0  0  0
    3.6595   -4.4897   -0.2968 O   0  0  0  0  0  0  0  0  0  0  0  0
    4.3382   -4.9957    0.9543 C   0  0  2  0  0  0  0  0  0  0  0  0
    5.7935   -4.9639    0.4808 C   0  0  0  0  0  0  0  0  0  0  0  0
    6.0717   -3.5624   -0.2364 C   0  0  0  0  0  0  0  0  0  0  0  0
    5.3268   -2.2984    0.3824 C   0  0  2  0  0  0  0  0  0  0  0  0
    3.9116   -2.6159    0.6256 N   0  0  1  0  0  0  0  0  0  0  0  0
    4.7885   -4.1491    2.1263 O   0  0  0  0  0  0  0  0  0  0  0  0
    1.7561   -7.2512    2.5501 O   0  0  0  0  0  0  0  0  0  0  0  0
   -1.1808   -8.7636    1.8885 H   0  0  0  0  0  0  0  0  0  0  0  0
   -0.5108   -8.5320    3.5178 H   0  0  0  0  0  0  0  0  0  0  0  0
    0.2863   -9.6303    2.3609 H   0  0  0  0  0  0  0  0  0  0  0  0
    4.0292   -6.1537    2.7127 H   0  0  0  0  0  0  0  0  0  0  0  0
    2.5152   -3.9635    2.2251 H   0  0  0  0  0  0  0  0  0  0  0  0
    2.9195   -1.9411    3.2784 H   0  0  0  0  0  0  0  0  0  0  0  0
    4.5806   -2.0774    3.1628 H   0  0  0  0  0  0  0  0  0  0  0  0
    2.5455   -1.1969    1.0537 H   0  0  0  0  0  0  0  0  0  0  0  0
    4.7831   -0.3398   -0.3779 H   0  0  0  0  0  0  0  0  0  0  0  0
    2.7967   -1.4804   -1.7138 H   0  0  0  0  0  0  0  0  0  0  0  0
    4.2389   -2.4706   -2.0904 H   0  0  0  0  0  0  0  0  0  0  0  0
    1.9812   -3.1877   -0.1633 H   0  0  0  0  0  0  0  0  0  0  0  0
    6.5247   -5.1718    1.2671 H   0  0  0  0  0  0  0  0  0  0  0  0
    5.9230   -5.7508   -0.2607 H   0  0  0  0  0  0  0  0  0  0  0  0
    7.1536   -3.3950   -0.2572 H   0  0  0  0  0  0  0  0  0  0  0  0
    5.7998   -3.6908   -1.2851 H   0  0  0  0  0  0  0  0  0  0  0  0
    5.8636   -1.8967    1.2468 H   0  0  0  0  0  0  0  0  0  0  0  0
    4.0357   -3.3016    1.3690 H   0  0  0  0  0  0  0  0  0  0  0  0
  1  2  1  0
  1 21  1  0
  1 22  1  0
  1 23  1  0
  2 20  1  0
  2  3  2  0
  3  4  1  0
  4  5  2  0
  5  6  1  0
  5 20  1  0
  6 14  1  0
  6  7  1  0
  6 24  1  1
  7 19  1  0
  7  8  1  0
  7 25  1  1
  8  9  1  0
  8 26  1  0
  8 27  1  0
  9 18  1  0
  9 10  1  0
  9 28  1  6
 10 17  1  0
 10 11  1  0
 10 29  1  6
 11 12  1  0
 11 30  1  0
 11 31  1  0
 12 18  1  0
 12 13  1  0
 12 32  1  1
 13 14  1  0
 14 15  1  0
 14 19  1  1
 15 16  1  0
 15 33  1  0
 15 34  1  0
 16 17  1  0
 16 35  1  0
 16 36  1  0
 17 18  1  0
 17 37  1  1
 18 38  1  1
M  CHG  1  18   1
M  END
>  <i_m_ct_stereo_status>  (204) 
1

>  <s_m_source_file>  (204) 
/var/tmp/pbs.5076255.sched01/tmpbzpkhbzu/844yn2io63.sdf

>  <i_m_source_file_index>  (204) 
5

>  <i_lp_mmshare_version>  (204) 
48012

>  <i_f3d_flags>  (204) 
0

>  <s_epik_input>  (204) 
W0NIM11jMW5uYyhvMSlbQ0BASF0oQzIzNClbQ0BIXShPNClbQ0gyXVtDQEhdNVtDQEhdNltDQEhdKFtDSDJdW0NIMl0zKU41W0NASF0oTzIpW0NIMl02

>  <s_epik_cmdline>  (204) 
J2VwaWtfcHl0aG9uJywgJy1waHQnLCAnMi4wJywgJy1waCcsICc3LjAnLCAnLXRuJywgJzgnLCAnLW1hJywgJzIwMCcsICctaW1hZScsICc8aW5maWxlLm1hZT4nLCAnLW9tYWUnLCAnPG91dGZpbGUubWFlPic=

>  <r_lp_tautomer_probability>  (204) 
1

>  <r_epik_Ionization_Penalty>  (204) 
0.930496

>  <r_epik_Ionization_Penalty_Charging>  (204) 
0.930496

>  <r_epik_Ionization_Penalty_Neutral>  (204) 
7.06767e-09

>  <r_epik_State_Penalty>  (204) 
0.972982

>  <r_epik_Charging_Adjusted_Penalty>  (204) 
1.90348

>  <i_epik_Tot_Q>  (204) 
1

>  <i_epik_Tot_abs_Q>  (204) 
1

>  <s_epik_Chemistry_Notes>  (204) 
This compound contains an acetal/aminal-like group ( X-CH(R)-Y where X, Y are N, S, or O) that may be acid/base labile, releasing an aldehyde.

>  <s_lp_Force_Field>  (204) 
OPLS3e

>  <r_lp_Energy>  (204) 
337.963

>  <b_lp_Chiralities_Consistent>  (204) 
1

>  <s_lp_Variant>  (204) 
62:0-3

>  <s_i_glide_gridfile>  (204) 
pfpi4k_grid

>  <i_i_glide_lignum>  (204) 
5

>  <i_i_glide_rotatable_bonds>  (204) 
1

>  <r_i_docking_score>  (204) 
-3.69401

>  <r_i_glide_ligand_efficiency>  (204) 
-0.1847

>  <r_i_glide_ligand_efficiency_sa>  (204) 
-0.501354

>  <r_i_glide_ligand_efficiency_ln>  (204) 
-0.924488

>  <r_i_glide_gscore>  (204) 
-3.69401

>  <r_i_glide_lipo>  (204) 
-0.218322

>  <r_i_glide_hbond>  (204) 
0

>  <r_i_glide_metal>  (204) 
-0

>  <r_i_glide_rewards>  (204) 
-1.57459

>  <r_i_glide_evdw>  (204) 
-16.5066

>  <r_i_glide_ecoul>  (204) 
-7.34367

>  <r_i_glide_erotb>  (204) 
0.235625

>  <r_i_glide_esite>  (204) 
-0.209844

>  <r_i_glide_emodel>  (204) 
-30.926

>  <r_i_glide_energy>  (204) 
-23.8502

>  <r_i_glide_einternal>  (204) 
0.409655

>  <r_i_glide_intrahb_reward>  (204) 
-0

>  <i_i_glide_confnum>  (204) 
2

>  <i_i_glide_posenum>  (204) 
25

>  <r_i_glide_eff_state_penalty>  (204) 
0

>  <ligand_id>  (204) 
62

>  <original_smiles>  (204) 
Cc1nnc(C2C3CC4C5CC6OC2(CCC5N64)O3)o1

>  <smiles>  (204) 
[H]C([H])([H])c1nnc(C2([H])C3([H])OC24OC2([H])C([H])([H])C5([H])C([H])(C([H])([H])C4([H])[H])[N+]2([H])C5([H])C3([H])[H])o1

$$$$
62:3:0
     RDKit          3D

 38 43  0  0  1  0  0  0  0  0999 V2000
   -2.1236    4.3906    8.6960 C   0  0  0  0  0  0  0  0  0  0  0  0
   -1.9018    3.1763    7.8516 C   0  0  0  0  0  0  0  0  0  0  0  0
   -2.5315    2.0027    7.9560 N   0  0  0  0  0  0  0  0  0  0  0  0
   -1.9932    1.1904    6.9827 N   0  0  0  0  0  0  0  0  0  0  0  0
   -1.0452    1.9198    6.3746 C   0  0  0  0  0  0  0  0  0  0  0  0
   -0.2051    1.5155    5.1949 C   0  0  2  0  0  0  0  0  0  0  0  0
   -0.8705    1.5138    3.8345 C   0  0  1  0  0  0  0  0  0  0  0  0
   -0.1302    2.1448    2.5025 C   0  0  0  0  0  0  0  0  0  0  0  0
    1.0886    1.4150    1.7171 C   0  0  2  0  0  0  0  0  0  0  0  0
    2.5992    0.9019    1.9594 C   0  0  2  0  0  0  0  0  0  0  0  0
    2.5996   -0.6328    2.0919 C   0  0  0  0  0  0  0  0  0  0  0  0
    1.2414   -0.7815    2.8277 C   0  0  1  0  0  0  0  0  0  0  0  0
    1.0856   -0.9794    4.2365 O   0  0  0  0  0  0  0  0  0  0  0  0
    0.2027   -0.0585    5.0408 C   0  0  1  0  0  0  0  0  0  0  0  0
    1.6918    0.2501    5.5993 C   0  0  0  0  0  0  0  0  0  0  0  0
    2.8721    0.7722    4.6767 C   0  0  0  0  0  0  0  0  0  0  0  0
    2.4328    1.4239    3.3427 C   0  0  2  0  0  0  0  0  0  0  0  0
    1.2546    0.7248    2.8769 N   0  0  1  0  0  0  0  0  0  0  0  0
   -0.8825    0.0577    3.9800 O   0  0  0  0  0  0  0  0  0  0  0  0
   -0.9801    3.1905    6.8543 O   0  0  0  0  0  0  0  0  0  0  0  0
   -2.8941    4.2078    9.4454 H   0  0  0  0  0  0  0  0  0  0  0  0
   -2.4483    5.2314    8.0793 H   0  0  0  0  0  0  0  0  0  0  0  0
   -1.2049    4.6736    9.2099 H   0  0  0  0  0  0  0  0  0  0  0  0
    0.6052    2.2548    5.1395 H   0  0  0  0  0  0  0  0  0  0  0  0
   -1.8896    1.9015    3.9231 H   0  0  0  0  0  0  0  0  0  0  0  0
   -0.9142    2.2810    1.7631 H   0  0  0  0  0  0  0  0  0  0  0  0
    0.1652    3.1667    2.7502 H   0  0  0  0  0  0  0  0  0  0  0  0
    0.6699    0.8091    0.9042 H   0  0  0  0  0  0  0  0  0  0  0  0
    3.3934    1.3466    1.3612 H   0  0  0  0  0  0  0  0  0  0  0  0
    2.5427   -1.1184    1.1114 H   0  0  0  0  0  0  0  0  0  0  0  0
    3.4278   -1.0621    2.6520 H   0  0  0  0  0  0  0  0  0  0  0  0
    0.4057   -1.1272    2.2351 H   0  0  0  0  0  0  0  0  0  0  0  0
    1.6543    0.9380    6.4479 H   0  0  0  0  0  0  0  0  0  0  0  0
    2.0653   -0.6252    6.1408 H   0  0  0  0  0  0  0  0  0  0  0  0
    3.4946    1.4702    5.2408 H   0  0  0  0  0  0  0  0  0  0  0  0
    3.5442   -0.0676    4.5027 H   0  0  0  0  0  0  0  0  0  0  0  0
    2.3202    2.5083    3.4088 H   0  0  0  0  0  0  0  0  0  0  0  0
    0.4634    0.9679    3.4606 H   0  0  0  0  0  0  0  0  0  0  0  0
  1  2  1  0
  1 21  1  0
  1 22  1  0
  1 23  1  0
  2 20  1  0
  2  3  2  0
  3  4  1  0
  4  5  2  0
  5  6  1  0
  5 20  1  0
  6 14  1  0
  6  7  1  0
  6 24  1  6
  7 19  1  0
  7  8  1  0
  7 25  1  1
  8  9  1  0
  8 26  1  0
  8 27  1  0
  9 18  1  0
  9 10  1  0
  9 28  1  6
 10 17  1  0
 10 11  1  0
 10 29  1  6
 11 12  1  0
 11 30  1  0
 11 31  1  0
 12 18  1  0
 12 13  1  0
 12 32  1  6
 13 14  1  0
 14 15  1  0
 14 19  1  1
 15 16  1  0
 15 33  1  0
 15 34  1  0
 16 17  1  0
 16 35  1  0
 16 36  1  0
 17 18  1  0
 17 37  1  6
 18 38  1  1
M  CHG  1  18   1
M  END
>  <i_m_ct_stereo_status>  (205) 
1

>  <s_m_source_file>  (205) 
/var/tmp/pbs.5076255.sched01/tmpbzpkhbzu/844yn2io63.sdf

>  <i_m_source_file_index>  (205) 
6

>  <i_lp_mmshare_version>  (205) 
48012

>  <i_f3d_flags>  (205) 
0

>  <s_epik_input>  (205) 
W0NIM11jMW5uYyhvMSlbQ0BASF0oQzIzNClbQ0BIXShPNClbQ0gyXVtDQEhdNVtDQEhdNltDQEhdKFtDSDJdW0NIMl0zKU41W0NASF0oTzIpW0NIMl02

>  <s_epik_cmdline>  (205) 
J2VwaWtfcHl0aG9uJywgJy1waHQnLCAnMi4wJywgJy1waCcsICc3LjAnLCAnLXRuJywgJzgnLCAnLW1hJywgJzIwMCcsICctaW1hZScsICc8aW5maWxlLm1hZT4nLCAnLW9tYWUnLCAnPG91dGZpbGUubWFlPic=

>  <r_lp_tautomer_probability>  (205) 
1

>  <r_epik_Ionization_Penalty>  (205) 
0.930496

>  <r_epik_Ionization_Penalty_Charging>  (205) 
0.930496

>  <r_epik_Ionization_Penalty_Neutral>  (205) 
7.06767e-09

>  <r_epik_State_Penalty>  (205) 
0.972982

>  <r_epik_Charging_Adjusted_Penalty>  (205) 
1.90348

>  <i_epik_Tot_Q>  (205) 
1

>  <i_epik_Tot_abs_Q>  (205) 
1

>  <s_epik_Chemistry_Notes>  (205) 
This compound contains an acetal/aminal-like group ( X-CH(R)-Y where X, Y are N, S, or O) that may be acid/base labile, releasing an aldehyde.

>  <s_lp_Force_Field>  (205) 
OPLS3e

>  <r_lp_Energy>  (205) 
295.335

>  <b_lp_Chiralities_Consistent>  (205) 
1

>  <s_lp_Variant>  (205) 
62:0-4

>  <s_i_glide_gridfile>  (205) 
pfpi4k_grid

>  <i_i_glide_lignum>  (205) 
6

>  <i_i_glide_rotatable_bonds>  (205) 
1

>  <r_i_docking_score>  (205) 
-3.18429

>  <r_i_glide_ligand_efficiency>  (205) 
-0.159215

>  <r_i_glide_ligand_efficiency_sa>  (205) 
-0.432175

>  <r_i_glide_ligand_efficiency_ln>  (205) 
-0.796924

>  <r_i_glide_gscore>  (205) 
-3.18429

>  <r_i_glide_lipo>  (205) 
-0.020831

>  <r_i_glide_hbond>  (205) 
0

>  <r_i_glide_metal>  (205) 
-0

>  <r_i_glide_rewards>  (205) 
-1.52515

>  <r_i_glide_evdw>  (205) 
-14.5436

>  <r_i_glide_ecoul>  (205) 
-6.54191

>  <r_i_glide_erotb>  (205) 
0.235625

>  <r_i_glide_esite>  (205) 
-0.165469

>  <r_i_glide_emodel>  (205) 
-26.4551

>  <r_i_glide_energy>  (205) 
-21.0855

>  <r_i_glide_einternal>  (205) 
0.214248

>  <r_i_glide_intrahb_reward>  (205) 
-0

>  <i_i_glide_confnum>  (205) 
2

>  <i_i_glide_posenum>  (205) 
27

>  <r_i_glide_eff_state_penalty>  (205) 
0

>  <ligand_id>  (205) 
62

>  <original_smiles>  (205) 
Cc1nnc(C2C3CC4C5CC6OC2(CCC5N64)O3)o1

>  <smiles>  (205) 
[H]C([H])([H])c1nnc(C2([H])C3([H])OC24OC2([H])C([H])([H])C5([H])C([H])(C([H])([H])C4([H])[H])[N+]2([H])C5([H])C3([H])[H])o1

$$$$
62:3:1
     RDKit          3D

 38 43  0  0  1  0  0  0  0  0999 V2000
   -3.6325    3.0769    9.0723 C   0  0  0  0  0  0  0  0  0  0  0  0
   -2.5537    3.4018    8.1030 C   0  0  0  0  0  0  0  0  0  0  0  0
   -1.7857    4.4944    8.0662 N   0  0  0  0  0  0  0  0  0  0  0  0
   -0.9388    4.3224    6.9910 N   0  0  0  0  0  0  0  0  0  0  0  0
   -1.2502    3.1295    6.4613 C   0  0  0  0  0  0  0  0  0  0  0  0
   -0.5956    2.4431    5.2966 C   0  0  2  0  0  0  0  0  0  0  0  0
   -1.5126    1.8934    4.2218 C   0  0  1  0  0  0  0  0  0  0  0  0
   -1.1799    2.0542    2.6130 C   0  0  0  0  0  0  0  0  0  0  0  0
   -0.0450    1.1922    1.8405 C   0  0  2  0  0  0  0  0  0  0  0  0
    1.5484    0.9281    1.8473 C   0  0  2  0  0  0  0  0  0  0  0  0
    1.8300   -0.4458    2.4853 C   0  0  0  0  0  0  0  0  0  0  0  0
    0.7008   -0.4233    3.5515 C   0  0  1  0  0  0  0  0  0  0  0  0
    0.8811   -0.1024    4.9309 O   0  0  0  0  0  0  0  0  0  0  0  0
    0.0402    0.9676    5.5742 C   0  0  1  0  0  0  0  0  0  0  0  0
    1.5388    1.5881    5.5955 C   0  0  0  0  0  0  0  0  0  0  0  0
    2.3981    1.8310    4.2829 C   0  0  0  0  0  0  0  0  0  0  0  0
    1.5873    1.9086    2.9674 C   0  0  2  0  0  0  0  0  0  0  0  0
    0.4737    0.9956    3.0799 N   0  0  1  0  0  0  0  0  0  0  0  0
   -1.2471    0.5957    4.8463 O   0  0  0  0  0  0  0  0  0  0  0  0
   -2.2648    2.5123    7.1173 O   0  0  0  0  0  0  0  0  0  0  0  0
   -3.7496    3.8702    9.8106 H   0  0  0  0  0  0  0  0  0  0  0  0
   -3.3882    2.1524    9.5953 H   0  0  0  0  0  0  0  0  0  0  0  0
   -4.5789    2.9430    8.5469 H   0  0  0  0  0  0  0  0  0  0  0  0
    0.0414    3.1902    4.8090 H   0  0  0  0  0  0  0  0  0  0  0  0
   -2.5396    2.2045    4.4251 H   0  0  0  0  0  0  0  0  0  0  0  0
   -2.1145    1.8494    2.0937 H   0  0  0  0  0  0  0  0  0  0  0  0
   -1.0207    3.1172    2.4225 H   0  0  0  0  0  0  0  0  0  0  0  0
   -0.5103    0.2950    1.4183 H   0  0  0  0  0  0  0  0  0  0  0  0
    2.1063    1.1933    0.9460 H   0  0  0  0  0  0  0  0  0  0  0  0
    1.6506   -1.2603    1.7734 H   0  0  0  0  0  0  0  0  0  0  0  0
    2.8172   -0.5705    2.9259 H   0  0  0  0  0  0  0  0  0  0  0  0
   -0.1683   -1.0434    3.3531 H   0  0  0  0  0  0  0  0  0  0  0  0
    1.5637    2.5346    6.1426 H   0  0  0  0  0  0  0  0  0  0  0  0
    2.1606    1.0084    6.2864 H   0  0  0  0  0  0  0  0  0  0  0  0
    2.9997    2.7341    4.3993 H   0  0  0  0  0  0  0  0  0  0  0  0
    3.1488    1.0420    4.2355 H   0  0  0  0  0  0  0  0  0  0  0  0
    1.3088    2.9295    2.6887 H   0  0  0  0  0  0  0  0  0  0  0  0
   -0.2063    1.3756    3.7317 H   0  0  0  0  0  0  0  0  0  0  0  0
  1  2  1  0
  1 21  1  0
  1 22  1  0
  1 23  1  0
  2 20  1  0
  2  3  2  0
  3  4  1  0
  4  5  2  0
  5  6  1  0
  5 20  1  0
  6 14  1  0
  6  7  1  0
  6 24  1  6
  7 19  1  0
  7  8  1  0
  7 25  1  6
  8  9  1  0
  8 26  1  0
  8 27  1  0
  9 18  1  0
  9 10  1  0
  9 28  1  6
 10 17  1  0
 10 11  1  0
 10 29  1  6
 11 12  1  0
 11 30  1  0
 11 31  1  0
 12 18  1  0
 12 13  1  0
 12 32  1  1
 13 14  1  0
 14 15  1  0
 14 19  1  1
 15 16  1  0
 15 33  1  0
 15 34  1  0
 16 17  1  0
 16 35  1  0
 16 36  1  0
 17 18  1  0
 17 37  1  6
 18 38  1  1
M  CHG  1  18   1
M  END
>  <i_m_ct_stereo_status>  (206) 
1

>  <s_m_source_file>  (206) 
/var/tmp/pbs.5076255.sched01/tmpbzpkhbzu/844yn2io63.sdf

>  <i_m_source_file_index>  (206) 
6

>  <i_lp_mmshare_version>  (206) 
48012

>  <i_f3d_flags>  (206) 
0

>  <s_epik_input>  (206) 
W0NIM11jMW5uYyhvMSlbQ0BASF0oQzIzNClbQ0BIXShPNClbQ0gyXVtDQEhdNVtDQEhdNltDQEhdKFtDSDJdW0NIMl0zKU41W0NASF0oTzIpW0NIMl02

>  <s_epik_cmdline>  (206) 
J2VwaWtfcHl0aG9uJywgJy1waHQnLCAnMi4wJywgJy1waCcsICc3LjAnLCAnLXRuJywgJzgnLCAnLW1hJywgJzIwMCcsICctaW1hZScsICc8aW5maWxlLm1hZT4nLCAnLW9tYWUnLCAnPG91dGZpbGUubWFlPic=

>  <r_lp_tautomer_probability>  (206) 
1

>  <r_epik_Ionization_Penalty>  (206) 
0.930496

>  <r_epik_Ionization_Penalty_Charging>  (206) 
0.930496

>  <r_epik_Ionization_Penalty_Neutral>  (206) 
7.06767e-09

>  <r_epik_State_Penalty>  (206) 
0.972982

>  <r_epik_Charging_Adjusted_Penalty>  (206) 
1.90348

>  <i_epik_Tot_Q>  (206) 
1

>  <i_epik_Tot_abs_Q>  (206) 
1

>  <s_epik_Chemistry_Notes>  (206) 
This compound contains an acetal/aminal-like group ( X-CH(R)-Y where X, Y are N, S, or O) that may be acid/base labile, releasing an aldehyde.

>  <s_lp_Force_Field>  (206) 
OPLS3e

>  <r_lp_Energy>  (206) 
295.335

>  <b_lp_Chiralities_Consistent>  (206) 
1

>  <s_lp_Variant>  (206) 
62:0-4

>  <s_i_glide_gridfile>  (206) 
pfpi4k_grid

>  <i_i_glide_lignum>  (206) 
6

>  <i_i_glide_rotatable_bonds>  (206) 
1

>  <r_i_docking_score>  (206) 
-3.07944

>  <r_i_glide_ligand_efficiency>  (206) 
-0.153972

>  <r_i_glide_ligand_efficiency_sa>  (206) 
-0.417945

>  <r_i_glide_ligand_efficiency_ln>  (206) 
-0.770683

>  <r_i_glide_gscore>  (206) 
-3.07944

>  <r_i_glide_lipo>  (206) 
-0.110322

>  <r_i_glide_hbond>  (206) 
0

>  <r_i_glide_metal>  (206) 
-0

>  <r_i_glide_rewards>  (206) 
-1.52515

>  <r_i_glide_evdw>  (206) 
-17.7771

>  <r_i_glide_ecoul>  (206) 
-4.85133

>  <r_i_glide_erotb>  (206) 
0.235625

>  <r_i_glide_esite>  (206) 
-0.0630388

>  <r_i_glide_emodel>  (206) 
-27.982

>  <r_i_glide_energy>  (206) 
-22.6285

>  <r_i_glide_einternal>  (206) 
0.0120631

>  <r_i_glide_intrahb_reward>  (206) 
-0

>  <i_i_glide_confnum>  (206) 
4

>  <i_i_glide_posenum>  (206) 
32

>  <r_i_glide_eff_state_penalty>  (206) 
0

>  <ligand_id>  (206) 
62

>  <original_smiles>  (206) 
Cc1nnc(C2C3CC4C5CC6OC2(CCC5N64)O3)o1

>  <smiles>  (206) 
[H]C([H])([H])c1nnc(C2([H])C3([H])OC24OC2([H])C([H])([H])C5([H])C([H])(C([H])([H])C4([H])[H])[N+]2([H])C5([H])C3([H])[H])o1

$$$$
62:3:2
     RDKit          3D

 38 43  0  0  1  0  0  0  0  0999 V2000
   -2.8878    4.7901    9.3022 C   0  0  0  0  0  0  0  0  0  0  0  0
   -2.3511    3.5936    8.5809 C   0  0  0  0  0  0  0  0  0  0  0  0
   -2.4184    2.3309    8.9656 N   0  0  0  0  0  0  0  0  0  0  0  0
   -1.7955    1.5943    7.9785 N   0  0  0  0  0  0  0  0  0  0  0  0
   -1.3642    2.4736    7.0815 C   0  0  0  0  0  0  0  0  0  0  0  0
   -0.6739    2.1905    5.7714 C   0  0  2  0  0  0  0  0  0  0  0  0
   -1.5574    1.9869    4.5624 C   0  0  1  0  0  0  0  0  0  0  0  0
   -1.2101    2.6746    3.0996 C   0  0  0  0  0  0  0  0  0  0  0  0
   -0.0311    2.1428    2.1186 C   0  0  2  0  0  0  0  0  0  0  0  0
    1.5715    1.9576    2.0925 C   0  0  2  0  0  0  0  0  0  0  0  0
    1.9014    0.4601    2.2458 C   0  0  0  0  0  0  0  0  0  0  0  0
    0.7597    0.0804    3.2248 C   0  0  1  0  0  0  0  0  0  0  0  0
    0.8934   -0.0607    4.6424 O   0  0  0  0  0  0  0  0  0  0  0  0
   -0.0010    0.7150    5.5761 C   0  0  1  0  0  0  0  0  0  0  0  0
    1.4735    1.3342    5.8461 C   0  0  0  0  0  0  0  0  0  0  0  0
    2.3417    2.0249    4.7163 C   0  0  0  0  0  0  0  0  0  0  0  0
    1.5524    2.5081    3.4745 C   0  0  2  0  0  0  0  0  0  0  0  0
    0.4682    1.5627    3.2448 N   0  0  1  0  0  0  0  0  0  0  0  0
   -1.2591    0.5630    4.7317 O   0  0  0  0  0  0  0  0  0  0  0  0
   -1.7202    3.7578    7.3827 O   0  0  0  0  0  0  0  0  0  0  0  0
   -3.3656    4.4860   10.2372 H   0  0  0  0  0  0  0  0  0  0  0  0
   -3.6284    5.3018    8.6900 H   0  0  0  0  0  0  0  0  0  0  0  0
   -2.0862    5.4875    9.5441 H   0  0  0  0  0  0  0  0  0  0  0  0
   -0.0517    3.0665    5.5637 H   0  0  0  0  0  0  0  0  0  0  0  0
   -2.5976    2.1842    4.8359 H   0  0  0  0  0  0  0  0  0  0  0  0
   -2.1272    2.6199    2.5158 H   0  0  0  0  0  0  0  0  0  0  0  0
   -1.0876    3.7480    3.2570 H   0  0  0  0  0  0  0  0  0  0  0  0
   -0.4528    1.4217    1.4081 H   0  0  0  0  0  0  0  0  0  0  0  0
    2.1207    2.5411    1.3574 H   0  0  0  0  0  0  0  0  0  0  0  0
    1.7730   -0.0773    1.2979 H   0  0  0  0  0  0  0  0  0  0  0  0
    2.8885    0.2310    2.6534 H   0  0  0  0  0  0  0  0  0  0  0  0
   -0.0862   -0.4525    2.8113 H   0  0  0  0  0  0  0  0  0  0  0  0
    1.4466    2.0437    6.6771 H   0  0  0  0  0  0  0  0  0  0  0  0
    2.1031    0.5763    6.3243 H   0  0  0  0  0  0  0  0  0  0  0  0
    2.9000    2.8611    5.1441 H   0  0  0  0  0  0  0  0  0  0  0  0
    3.1236    1.3269    4.4320 H   0  0  0  0  0  0  0  0  0  0  0  0
    1.2344    3.5513    3.5366 H   0  0  0  0  0  0  0  0  0  0  0  0
   -0.2310    1.6820    3.9615 H   0  0  0  0  0  0  0  0  0  0  0  0
  1  2  1  0
  1 21  1  0
  1 22  1  0
  1 23  1  0
  2 20  1  0
  2  3  2  0
  3  4  1  0
  4  5  2  0
  5  6  1  0
  5 20  1  0
  6 14  1  0
  6  7  1  0
  6 24  1  6
  7 19  1  0
  7  8  1  0
  7 25  1  1
  8  9  1  0
  8 26  1  0
  8 27  1  0
  9 18  1  0
  9 10  1  0
  9 28  1  6
 10 17  1  0
 10 11  1  0
 10 29  1  6
 11 12  1  0
 11 30  1  0
 11 31  1  0
 12 18  1  0
 12 13  1  0
 12 32  1  6
 13 14  1  0
 14 15  1  0
 14 19  1  1
 15 16  1  0
 15 33  1  0
 15 34  1  0
 16 17  1  0
 16 35  1  0
 16 36  1  0
 17 18  1  0
 17 37  1  6
 18 38  1  1
M  CHG  1  18   1
M  END
>  <i_m_ct_stereo_status>  (207) 
1

>  <s_m_source_file>  (207) 
/var/tmp/pbs.5076255.sched01/tmpbzpkhbzu/844yn2io63.sdf

>  <i_m_source_file_index>  (207) 
6

>  <i_lp_mmshare_version>  (207) 
48012

>  <i_f3d_flags>  (207) 
0

>  <s_epik_input>  (207) 
W0NIM11jMW5uYyhvMSlbQ0BASF0oQzIzNClbQ0BIXShPNClbQ0gyXVtDQEhdNVtDQEhdNltDQEhdKFtDSDJdW0NIMl0zKU41W0NASF0oTzIpW0NIMl02

>  <s_epik_cmdline>  (207) 
J2VwaWtfcHl0aG9uJywgJy1waHQnLCAnMi4wJywgJy1waCcsICc3LjAnLCAnLXRuJywgJzgnLCAnLW1hJywgJzIwMCcsICctaW1hZScsICc8aW5maWxlLm1hZT4nLCAnLW9tYWUnLCAnPG91dGZpbGUubWFlPic=

>  <r_lp_tautomer_probability>  (207) 
1

>  <r_epik_Ionization_Penalty>  (207) 
0.930496

>  <r_epik_Ionization_Penalty_Charging>  (207) 
0.930496

>  <r_epik_Ionization_Penalty_Neutral>  (207) 
7.06767e-09

>  <r_epik_State_Penalty>  (207) 
0.972982

>  <r_epik_Charging_Adjusted_Penalty>  (207) 
1.90348

>  <i_epik_Tot_Q>  (207) 
1

>  <i_epik_Tot_abs_Q>  (207) 
1

>  <s_epik_Chemistry_Notes>  (207) 
This compound contains an acetal/aminal-like group ( X-CH(R)-Y where X, Y are N, S, or O) that may be acid/base labile, releasing an aldehyde.

>  <s_lp_Force_Field>  (207) 
OPLS3e

>  <r_lp_Energy>  (207) 
295.335

>  <b_lp_Chiralities_Consistent>  (207) 
1

>  <s_lp_Variant>  (207) 
62:0-4

>  <s_i_glide_gridfile>  (207) 
pfpi4k_grid

>  <i_i_glide_lignum>  (207) 
6

>  <i_i_glide_rotatable_bonds>  (207) 
1

>  <r_i_docking_score>  (207) 
-3.05189

>  <r_i_glide_ligand_efficiency>  (207) 
-0.152594

>  <r_i_glide_ligand_efficiency_sa>  (207) 
-0.414205

>  <r_i_glide_ligand_efficiency_ln>  (207) 
-0.763786

>  <r_i_glide_gscore>  (207) 
-3.05189

>  <r_i_glide_lipo>  (207) 
-0.117864

>  <r_i_glide_hbond>  (207) 
0

>  <r_i_glide_metal>  (207) 
-0

>  <r_i_glide_rewards>  (207) 
-1.52515

>  <r_i_glide_evdw>  (207) 
-16.215

>  <r_i_glide_ecoul>  (207) 
-4.59259

>  <r_i_glide_erotb>  (207) 
0.235625

>  <r_i_glide_esite>  (207) 
-0.144858

>  <r_i_glide_emodel>  (207) 
-25.9227

>  <r_i_glide_energy>  (207) 
-20.8076

>  <r_i_glide_einternal>  (207) 
0.238866

>  <r_i_glide_intrahb_reward>  (207) 
-0

>  <i_i_glide_confnum>  (207) 
4

>  <i_i_glide_posenum>  (207) 
14

>  <r_i_glide_eff_state_penalty>  (207) 
0

>  <ligand_id>  (207) 
62

>  <original_smiles>  (207) 
Cc1nnc(C2C3CC4C5CC6OC2(CCC5N64)O3)o1

>  <smiles>  (207) 
[H]C([H])([H])c1nnc(C2([H])C3([H])OC24OC2([H])C([H])([H])C5([H])C([H])(C([H])([H])C4([H])[H])[N+]2([H])C5([H])C3([H])[H])o1

$$$$
63:0:0
     RDKit          3D

 57 62  0  0  1  0  0  0  0  0999 V2000
    3.0358   -2.3548    1.5657 C   0  0  0  0  0  0  0  0  0  0  0  0
    4.2943   -2.9638    0.8965 C   0  0  1  0  0  0  0  0  0  0  0  0
    5.3560   -3.3125    1.9798 C   0  0  0  0  0  0  0  0  0  0  0  0
    5.0492   -4.5661    2.8136 C   0  0  0  0  0  0  0  0  0  0  0  0
    4.9121   -5.8090    1.9019 C   0  0  2  0  0  0  0  0  0  0  0  0
    3.8052   -5.5638    0.8507 C   0  0  1  0  0  0  0  0  0  0  0  0
    2.3906   -5.7719    1.4517 C   0  0  0  0  0  0  0  0  0  0  0  0
    2.2144   -7.2396    1.8736 C   0  0  2  0  0  0  0  0  0  0  0  0
    0.8769   -7.6334    2.3907 C   0  0  0  0  0  0  0  0  0  0  0  0
   -0.2634   -7.1003    1.8731 O   0  0  0  0  0  0  0  0  0  0  0  0
   -1.2772   -7.7841    2.4855 C   0  0  0  0  0  0  0  0  0  0  0  0
   -0.7966   -8.7527    3.3191 C   0  0  0  0  0  0  0  0  0  0  0  0
    0.6166   -8.6626    3.2422 C   0  0  0  0  0  0  0  0  0  0  0  0
    1.6991   -9.4891    3.8774 C   0  0  0  0  0  0  0  0  0  0  0  0
    3.0794   -9.2067    3.2214 C   0  0  0  0  0  0  0  0  0  0  0  0
    3.3046   -7.7111    2.8490 C   0  0  2  0  0  0  0  0  0  0  0  0
    3.2589   -6.9942    4.1056 O   0  0  0  0  0  0  0  0  0  0  0  0
    4.7686   -6.9224    4.0757 O   0  0  0  0  0  0  0  0  0  0  0  0
    4.7192   -7.1623    2.6534 C   0  0  2  0  0  0  0  0  0  0  0  0
    5.8047   -8.1643    2.2557 C   0  0  0  0  0  0  0  0  0  0  0  0
    3.9722   -4.2311    0.0631 C   0  0  2  0  0  0  0  0  0  0  0  0
    5.0513   -4.2930   -1.0384 C   0  0  0  0  0  0  0  0  0  0  0  0
    5.7111   -2.9139   -1.1153 C   0  0  0  0  0  0  0  0  0  0  0  0
    4.8856   -2.0051   -0.1870 C   0  0  1  0  0  0  0  0  0  0  0  0
    3.8392   -1.5093   -1.0117 O   0  0  0  0  0  0  0  0  0  0  0  0
    5.6492   -0.7614    0.3244 C   0  0  0  0  0  0  0  0  0  0  0  0
    6.9447   -1.0590    0.8346 O   0  0  0  0  0  0  0  0  0  0  0  0
    3.2281   -1.3489    1.9387 H   0  0  0  0  0  0  0  0  0  0  0  0
    2.6977   -2.9460    2.4134 H   0  0  0  0  0  0  0  0  0  0  0  0
    2.1977   -2.2863    0.8720 H   0  0  0  0  0  0  0  0  0  0  0  0
    6.3240   -3.4827    1.5044 H   0  0  0  0  0  0  0  0  0  0  0  0
    5.4893   -2.4579    2.6456 H   0  0  0  0  0  0  0  0  0  0  0  0
    5.8693   -4.7047    3.5200 H   0  0  0  0  0  0  0  0  0  0  0  0
    4.1573   -4.4044    3.4184 H   0  0  0  0  0  0  0  0  0  0  0  0
    5.8584   -5.8634    1.3638 H   0  0  0  0  0  0  0  0  0  0  0  0
    3.9228   -6.3528    0.1030 H   0  0  0  0  0  0  0  0  0  0  0  0
    2.2067   -5.1167    2.3066 H   0  0  0  0  0  0  0  0  0  0  0  0
    1.6398   -5.5355    0.6947 H   0  0  0  0  0  0  0  0  0  0  0  0
    2.3422   -7.8269    0.9669 H   0  0  0  0  0  0  0  0  0  0  0  0
   -2.2713   -7.4753    2.2168 H   0  0  0  0  0  0  0  0  0  0  0  0
   -1.3900   -9.4495    3.8946 H   0  0  0  0  0  0  0  0  0  0  0  0
    1.7226   -9.2278    4.9370 H   0  0  0  0  0  0  0  0  0  0  0  0
    1.4525  -10.5512    3.8057 H   0  0  0  0  0  0  0  0  0  0  0  0
    3.8624   -9.5969    3.8751 H   0  0  0  0  0  0  0  0  0  0  0  0
    3.1313   -9.7911    2.3002 H   0  0  0  0  0  0  0  0  0  0  0  0
    5.6321   -8.5074    1.2328 H   0  0  0  0  0  0  0  0  0  0  0  0
    5.7927   -9.0470    2.9005 H   0  0  0  0  0  0  0  0  0  0  0  0
    6.8107   -7.7363    2.3193 H   0  0  0  0  0  0  0  0  0  0  0  0
    3.0400   -4.0489   -0.4713 H   0  0  0  0  0  0  0  0  0  0  0  0
    5.8086   -5.0388   -0.8089 H   0  0  0  0  0  0  0  0  0  0  0  0
    4.6093   -4.5587   -1.9981 H   0  0  0  0  0  0  0  0  0  0  0  0
    6.7334   -3.0203   -0.7548 H   0  0  0  0  0  0  0  0  0  0  0  0
    5.7871   -2.5288   -2.1342 H   0  0  0  0  0  0  0  0  0  0  0  0
    3.1506   -1.1456   -0.4718 H   0  0  0  0  0  0  0  0  0  0  0  0
    5.8143   -0.0822   -0.4989 H   0  0  0  0  0  0  0  0  0  0  0  0
    5.0736   -0.2116    1.0676 H   0  0  0  0  0  0  0  0  0  0  0  0
    7.2921   -0.2919    1.2764 H   0  0  0  0  0  0  0  0  0  0  0  0
  2  1  1  1
  1 28  1  0
  1 29  1  0
  1 30  1  0
  2 21  1  0
  2 24  1  0
  2  3  1  0
  3  4  1  0
  3 31  1  0
  3 32  1  0
  4  5  1  0
  4 33  1  0
  4 34  1  0
  5 19  1  0
  5  6  1  0
  5 35  1  6
  6  7  1  0
  6 21  1  0
  6 36  1  6
  7  8  1  0
  7 37  1  0
  7 38  1  0
  8 16  1  0
  8  9  1  0
  8 39  1  6
  9 13  2  0
  9 10  1  0
 10 11  1  0
 11 12  2  0
 11 40  1  0
 12 13  1  0
 12 41  1  0
 13 14  1  0
 14 15  1  0
 14 42  1  0
 14 43  1  0
 15 16  1  0
 15 44  1  0
 15 45  1  0
 16 19  1  0
 16 17  1  1
 17 18  1  0
 18 19  1  0
 19 20  1  6
 20 46  1  0
 20 47  1  0
 20 48  1  0
 21 22  1  0
 21 49  1  6
 22 23  1  0
 22 50  1  0
 22 51  1  0
 23 24  1  0
 23 52  1  0
 23 53  1  0
 24 25  1  6
 24 26  1  0
 25 54  1  0
 26 27  1  0
 26 55  1  0
 26 56  1  0
 27 57  1  0
M  END
>  <i_m_ct_stereo_status>  (208) 
1

>  <s_m_source_file>  (208) 
/var/tmp/pbs.5076255.sched01/tmpbzpkhbzu/844yn2io63.sdf

>  <i_m_source_file_index>  (208) 
7

>  <i_lp_mmshare_version>  (208) 
48012

>  <i_f3d_flags>  (208) 
0

>  <s_epik_input>  (208) 
W09IXVtDSDJdW0NAQF0xKFtPSF0pW0NIMl1bQ0gyXVtDQEBIXTJbQ0BAXTEoW0NIM10pW0NIMl1bQ0gyXVtDQEBIXShbQ0BdMyhPTzQpW0NIM10pW0NASF0yW0NIMl1bQ0BASF0oW0NAQF0zNDUpYzZjKFtjSF1bY0hdbzYpW0NIMl1bQ0gyXTU=

>  <s_epik_cmdline>  (208) 
J2VwaWtfcHl0aG9uJywgJy1waHQnLCAnMi4wJywgJy1waCcsICc3LjAnLCAnLXRuJywgJzgnLCAnLW1hJywgJzIwMCcsICctaW1hZScsICc8aW5maWxlLm1hZT4nLCAnLW9tYWUnLCAnPG91dGZpbGUubWFlPic=

>  <r_lp_tautomer_probability>  (208) 
1

>  <r_epik_Ionization_Penalty>  (208) 
8.41352e-07

>  <r_epik_Ionization_Penalty_Charging>  (208) 
0

>  <r_epik_Ionization_Penalty_Neutral>  (208) 
8.41352e-07

>  <r_epik_State_Penalty>  (208) 
-0

>  <r_epik_Charging_Adjusted_Penalty>  (208) 
0

>  <i_epik_Tot_Q>  (208) 
0

>  <i_epik_Tot_abs_Q>  (208) 
0

>  <s_lp_Force_Field>  (208) 
OPLS3e

>  <r_lp_Energy>  (208) 
53.9927

>  <b_lp_Chiralities_Consistent>  (208) 
1

>  <s_lp_Variant>  (208) 
63:0-1

>  <s_i_glide_gridfile>  (208) 
pfpi4k_grid

>  <i_i_glide_lignum>  (208) 
7

>  <i_i_glide_rotatable_bonds>  (208) 
3

>  <r_i_docking_score>  (208) 
-3.32227

>  <r_i_glide_ligand_efficiency>  (208) 
-0.123047

>  <r_i_glide_ligand_efficiency_sa>  (208) 
-0.369141

>  <r_i_glide_ligand_efficiency_ln>  (208) 
-0.773369

>  <r_i_glide_gscore>  (208) 
-3.32227

>  <r_i_glide_lipo>  (208) 
-0.282757

>  <r_i_glide_hbond>  (208) 
-0.365354

>  <r_i_glide_metal>  (208) 
-0

>  <r_i_glide_rewards>  (208) 
-0.855882

>  <r_i_glide_evdw>  (208) 
-22.4024

>  <r_i_glide_ecoul>  (208) 
-5.57364

>  <r_i_glide_erotb>  (208) 
0.137892

>  <r_i_glide_esite>  (208) 
0

>  <r_i_glide_emodel>  (208) 
-33.553

>  <r_i_glide_energy>  (208) 
-27.9761

>  <r_i_glide_einternal>  (208) 
0.614567

>  <r_i_glide_intrahb_reward>  (208) 
-0

>  <i_i_glide_confnum>  (208) 
1

>  <i_i_glide_posenum>  (208) 
9

>  <r_i_glide_eff_state_penalty>  (208) 
0

>  <ligand_id>  (208) 
63

>  <original_smiles>  (208) 
CC12CCC3C(CC4c5occc5CCC45OOC35C)C1CCC2(O)CO

>  <smiles>  (208) 
[H]OC([H])([H])C1(O[H])C([H])([H])C([H])([H])C2([H])C3([H])C([H])([H])C4([H])c5oc([H])c([H])c5C([H])([H])C([H])([H])C45OOC5(C([H])([H])[H])C3([H])C([H])([H])C([H])([H])C21C([H])([H])[H]

$$$$
63:0:1
     RDKit          3D

 57 62  0  0  1  0  0  0  0  0999 V2000
    3.0683   -2.5915    2.7670 C   0  0  0  0  0  0  0  0  0  0  0  0
    4.1132   -2.9451    1.6745 C   0  0  1  0  0  0  0  0  0  0  0  0
    5.3412   -3.6617    2.3095 C   0  0  0  0  0  0  0  0  0  0  0  0
    5.0789   -5.1205    2.7502 C   0  0  0  0  0  0  0  0  0  0  0  0
    4.6235   -5.9952    1.5578 C   0  0  2  0  0  0  0  0  0  0  0  0
    3.3583   -5.3766    0.9246 C   0  0  1  0  0  0  0  0  0  0  0  0
    2.0866   -5.7190    1.7489 C   0  0  0  0  0  0  0  0  0  0  0  0
    1.8240   -7.2275    1.7192 C   0  0  2  0  0  0  0  0  0  0  0  0
    0.5900   -7.7181    2.3763 C   0  0  0  0  0  0  0  0  0  0  0  0
   -0.5726   -7.0063    2.2968 O   0  0  0  0  0  0  0  0  0  0  0  0
   -1.5071   -7.8135    2.8787 C   0  0  0  0  0  0  0  0  0  0  0  0
   -0.9696   -9.0179    3.2303 C   0  0  0  0  0  0  0  0  0  0  0  0
    0.3985   -8.9527    2.8781 C   0  0  0  0  0  0  0  0  0  0  0  0
    1.4815   -9.9930    2.9565 C   0  0  0  0  0  0  0  0  0  0  0  0
    2.7212   -9.5643    2.1238 C   0  0  0  0  0  0  0  0  0  0  0  0
    3.0340   -8.0423    2.1984 C   0  0  2  0  0  0  0  0  0  0  0  0
    3.3200   -7.7838    3.5835 O   0  0  0  0  0  0  0  0  0  0  0  0
    4.7907   -7.7504    3.2395 O   0  0  0  0  0  0  0  0  0  0  0  0
    4.4306   -7.5072    1.8716 C   0  0  2  0  0  0  0  0  0  0  0  0
    5.2871   -8.3633    0.9473 C   0  0  0  0  0  0  0  0  0  0  0  0
    3.5056   -3.8632    0.5813 C   0  0  2  0  0  0  0  0  0  0  0  0
    4.3166   -3.5949   -0.7017 C   0  0  0  0  0  0  0  0  0  0  0  0
    5.0832   -2.2840   -0.4689 C   0  0  0  0  0  0  0  0  0  0  0  0
    4.5548   -1.6905    0.8503 C   0  0  1  0  0  0  0  0  0  0  0  0
    3.4400   -0.8856    0.4984 O   0  0  0  0  0  0  0  0  0  0  0  0
    5.5908   -0.7225    1.4782 C   0  0  0  0  0  0  0  0  0  0  0  0
    5.1709   -0.2168    2.7225 O   0  0  0  0  0  0  0  0  0  0  0  0
    3.4061   -1.7980    3.4303 H   0  0  0  0  0  0  0  0  0  0  0  0
    2.8460   -3.4325    3.4213 H   0  0  0  0  0  0  0  0  0  0  0  0
    2.1273   -2.2541    2.3287 H   0  0  0  0  0  0  0  0  0  0  0  0
    6.1738   -3.6854    1.6040 H   0  0  0  0  0  0  0  0  0  0  0  0
    5.6960   -3.0813    3.1626 H   0  0  0  0  0  0  0  0  0  0  0  0
    6.0017   -5.5211    3.1771 H   0  0  0  0  0  0  0  0  0  0  0  0
    4.3495   -5.1353    3.5606 H   0  0  0  0  0  0  0  0  0  0  0  0
    5.4242   -5.9036    0.8239 H   0  0  0  0  0  0  0  0  0  0  0  0
    3.2260   -5.8790   -0.0374 H   0  0  0  0  0  0  0  0  0  0  0  0
    2.1475   -5.3744    2.7849 H   0  0  0  0  0  0  0  0  0  0  0  0
    1.2294   -5.2268    1.2970 H   0  0  0  0  0  0  0  0  0  0  0  0
    1.6568   -7.4649    0.6747 H   0  0  0  0  0  0  0  0  0  0  0  0
   -2.4989   -7.4010    2.9604 H   0  0  0  0  0  0  0  0  0  0  0  0
   -1.5060   -9.8463    3.6607 H   0  0  0  0  0  0  0  0  0  0  0  0
    1.7464  -10.0996    4.0094 H   0  0  0  0  0  0  0  0  0  0  0  0
    1.1023  -10.9569    2.6101 H   0  0  0  0  0  0  0  0  0  0  0  0
    3.5727  -10.1830    2.4232 H   0  0  0  0  0  0  0  0  0  0  0  0
    2.5213   -9.8176    1.0778 H   0  0  0  0  0  0  0  0  0  0  0  0
    4.8625   -8.3399   -0.0604 H   0  0  0  0  0  0  0  0  0  0  0  0
    5.3059   -9.4107    1.2617 H   0  0  0  0  0  0  0  0  0  0  0  0
    6.3272   -8.0233    0.9069 H   0  0  0  0  0  0  0  0  0  0  0  0
    2.5072   -3.4873    0.3604 H   0  0  0  0  0  0  0  0  0  0  0  0
    5.0185   -4.4020   -0.9266 H   0  0  0  0  0  0  0  0  0  0  0  0
    3.6499   -3.5102   -1.5622 H   0  0  0  0  0  0  0  0  0  0  0  0
    6.1455   -2.5277   -0.3747 H   0  0  0  0  0  0  0  0  0  0  0  0
    5.0078   -1.5943   -1.3135 H   0  0  0  0  0  0  0  0  0  0  0  0
    2.7914   -1.3977    0.0350 H   0  0  0  0  0  0  0  0  0  0  0  0
    6.5608   -1.1943    1.6331 H   0  0  0  0  0  0  0  0  0  0  0  0
    5.7563    0.1275    0.8126 H   0  0  0  0  0  0  0  0  0  0  0  0
    4.3084    0.1539    2.6029 H   0  0  0  0  0  0  0  0  0  0  0  0
  2  1  1  1
  1 28  1  0
  1 29  1  0
  1 30  1  0
  2 21  1  0
  2 24  1  0
  2  3  1  0
  3  4  1  0
  3 31  1  0
  3 32  1  0
  4  5  1  0
  4 33  1  0
  4 34  1  0
  5 19  1  0
  5  6  1  0
  5 35  1  6
  6  7  1  0
  6 21  1  0
  6 36  1  6
  7  8  1  0
  7 37  1  0
  7 38  1  0
  8 16  1  0
  8  9  1  0
  8 39  1  6
  9 13  2  0
  9 10  1  0
 10 11  1  0
 11 12  2  0
 11 40  1  0
 12 13  1  0
 12 41  1  0
 13 14  1  0
 14 15  1  0
 14 42  1  0
 14 43  1  0
 15 16  1  0
 15 44  1  0
 15 45  1  0
 16 19  1  0
 16 17  1  1
 17 18  1  0
 18 19  1  0
 19 20  1  6
 20 46  1  0
 20 47  1  0
 20 48  1  0
 21 22  1  0
 21 49  1  6
 22 23  1  0
 22 50  1  0
 22 51  1  0
 23 24  1  0
 23 52  1  0
 23 53  1  0
 24 25  1  6
 24 26  1  0
 25 54  1  0
 26 27  1  0
 26 55  1  0
 26 56  1  0
 27 57  1  0
M  END
>  <i_m_ct_stereo_status>  (209) 
1

>  <s_m_source_file>  (209) 
/var/tmp/pbs.5076255.sched01/tmpbzpkhbzu/844yn2io63.sdf

>  <i_m_source_file_index>  (209) 
7

>  <i_lp_mmshare_version>  (209) 
48012

>  <i_f3d_flags>  (209) 
0

>  <s_epik_input>  (209) 
W09IXVtDSDJdW0NAQF0xKFtPSF0pW0NIMl1bQ0gyXVtDQEBIXTJbQ0BAXTEoW0NIM10pW0NIMl1bQ0gyXVtDQEBIXShbQ0BdMyhPTzQpW0NIM10pW0NASF0yW0NIMl1bQ0BASF0oW0NAQF0zNDUpYzZjKFtjSF1bY0hdbzYpW0NIMl1bQ0gyXTU=

>  <s_epik_cmdline>  (209) 
J2VwaWtfcHl0aG9uJywgJy1waHQnLCAnMi4wJywgJy1waCcsICc3LjAnLCAnLXRuJywgJzgnLCAnLW1hJywgJzIwMCcsICctaW1hZScsICc8aW5maWxlLm1hZT4nLCAnLW9tYWUnLCAnPG91dGZpbGUubWFlPic=

>  <r_lp_tautomer_probability>  (209) 
1

>  <r_epik_Ionization_Penalty>  (209) 
8.41352e-07

>  <r_epik_Ionization_Penalty_Charging>  (209) 
0

>  <r_epik_Ionization_Penalty_Neutral>  (209) 
8.41352e-07

>  <r_epik_State_Penalty>  (209) 
-0

>  <r_epik_Charging_Adjusted_Penalty>  (209) 
0

>  <i_epik_Tot_Q>  (209) 
0

>  <i_epik_Tot_abs_Q>  (209) 
0

>  <s_lp_Force_Field>  (209) 
OPLS3e

>  <r_lp_Energy>  (209) 
53.9927

>  <b_lp_Chiralities_Consistent>  (209) 
1

>  <s_lp_Variant>  (209) 
63:0-1

>  <s_i_glide_gridfile>  (209) 
pfpi4k_grid

>  <i_i_glide_lignum>  (209) 
7

>  <i_i_glide_rotatable_bonds>  (209) 
3

>  <r_i_docking_score>  (209) 
-2.87136

>  <r_i_glide_ligand_efficiency>  (209) 
-0.106347

>  <r_i_glide_ligand_efficiency_sa>  (209) 
-0.31904

>  <r_i_glide_ligand_efficiency_ln>  (209) 
-0.668406

>  <r_i_glide_gscore>  (209) 
-2.87136

>  <r_i_glide_lipo>  (209) 
-0.368215

>  <r_i_glide_hbond>  (209) 
-0.16

>  <r_i_glide_metal>  (209) 
-0

>  <r_i_glide_rewards>  (209) 
-0.855882

>  <r_i_glide_evdw>  (209) 
-23.7911

>  <r_i_glide_ecoul>  (209) 
-2.904

>  <r_i_glide_erotb>  (209) 
0.137892

>  <r_i_glide_esite>  (209) 
0

>  <r_i_glide_emodel>  (209) 
-30.0792

>  <r_i_glide_energy>  (209) 
-26.6951

>  <r_i_glide_einternal>  (209) 
3.12215

>  <r_i_glide_intrahb_reward>  (209) 
-0

>  <i_i_glide_confnum>  (209) 
4

>  <i_i_glide_posenum>  (209) 
17

>  <r_i_glide_eff_state_penalty>  (209) 
0

>  <ligand_id>  (209) 
63

>  <original_smiles>  (209) 
CC12CCC3C(CC4c5occc5CCC45OOC35C)C1CCC2(O)CO

>  <smiles>  (209) 
[H]OC([H])([H])C1(O[H])C([H])([H])C([H])([H])C2([H])C3([H])C([H])([H])C4([H])c5oc([H])c([H])c5C([H])([H])C([H])([H])C45OOC5(C([H])([H])[H])C3([H])C([H])([H])C([H])([H])C21C([H])([H])[H]

$$$$
63:0:2
     RDKit          3D

 57 62  0  0  1  0  0  0  0  0999 V2000
    3.6199   -2.4372    2.1614 C   0  0  0  0  0  0  0  0  0  0  0  0
    4.5338   -3.0321    1.0602 C   0  0  1  0  0  0  0  0  0  0  0  0
    5.7675   -3.7121    1.7163 C   0  0  0  0  0  0  0  0  0  0  0  0
    5.4932   -5.0694    2.3901 C   0  0  0  0  0  0  0  0  0  0  0  0
    4.9155   -6.0829    1.3763 C   0  0  2  0  0  0  0  0  0  0  0  0
    3.6269   -5.5030    0.7511 C   0  0  1  0  0  0  0  0  0  0  0  0
    2.4046   -5.6679    1.6966 C   0  0  0  0  0  0  0  0  0  0  0  0
    2.1069   -7.1593    1.9136 C   0  0  2  0  0  0  0  0  0  0  0  0
    0.9105   -7.4962    2.7234 C   0  0  0  0  0  0  0  0  0  0  0  0
   -0.2253   -6.7418    2.6408 O   0  0  0  0  0  0  0  0  0  0  0  0
   -1.1364   -7.4155    3.4149 C   0  0  0  0  0  0  0  0  0  0  0  0
   -0.6136   -8.5741    3.9048 C   0  0  0  0  0  0  0  0  0  0  0  0
    0.7206   -8.6327    3.4212 C   0  0  0  0  0  0  0  0  0  0  0  0
    1.7750   -9.6895    3.5794 C   0  0  0  0  0  0  0  0  0  0  0  0
    2.9568   -9.4383    2.6055 C   0  0  0  0  0  0  0  0  0  0  0  0
    3.3226   -7.9397    2.4253 C   0  0  2  0  0  0  0  0  0  0  0  0
    3.7276   -7.4948    3.7285 O   0  0  0  0  0  0  0  0  0  0  0  0
    5.1647   -7.5816    3.2742 O   0  0  0  0  0  0  0  0  0  0  0  0
    4.7055   -7.5214    1.9183 C   0  0  2  0  0  0  0  0  0  0  0  0
    5.4520   -8.5393    1.0669 C   0  0  0  0  0  0  0  0  0  0  0  0
    3.7940   -4.0654    0.1743 C   0  0  2  0  0  0  0  0  0  0  0  0
    4.5059   -4.0223   -1.1966 C   0  0  0  0  0  0  0  0  0  0  0  0
    5.3448   -2.7396   -1.2420 C   0  0  0  0  0  0  0  0  0  0  0  0
    4.9678   -1.9482    0.0236 C   0  0  1  0  0  0  0  0  0  0  0  0
    3.8506   -1.1554   -0.3334 O   0  0  0  0  0  0  0  0  0  0  0  0
    6.0326   -0.9170    0.4809 C   0  0  0  0  0  0  0  0  0  0  0  0
    7.3492   -1.4274    0.4810 O   0  0  0  0  0  0  0  0  0  0  0  0
    4.0690   -1.5556    2.6198 H   0  0  0  0  0  0  0  0  0  0  0  0
    3.4285   -3.1429    2.9684 H   0  0  0  0  0  0  0  0  0  0  0  0
    2.6487   -2.1316    1.7693 H   0  0  0  0  0  0  0  0  0  0  0  0
    6.5356   -3.8920    0.9619 H   0  0  0  0  0  0  0  0  0  0  0  0
    6.1975   -3.0291    2.4491 H   0  0  0  0  0  0  0  0  0  0  0  0
    6.4395   -5.4397    2.7916 H   0  0  0  0  0  0  0  0  0  0  0  0
    4.8358   -4.9298    3.2483 H   0  0  0  0  0  0  0  0  0  0  0  0
    5.6559   -6.1313    0.5773 H   0  0  0  0  0  0  0  0  0  0  0  0
    3.4033   -6.1305   -0.1138 H   0  0  0  0  0  0  0  0  0  0  0  0
    2.5674   -5.1819    2.6628 H   0  0  0  0  0  0  0  0  0  0  0  0
    1.5281   -5.1915    1.2527 H   0  0  0  0  0  0  0  0  0  0  0  0
    1.8795   -7.5544    0.9240 H   0  0  0  0  0  0  0  0  0  0  0  0
   -2.0995   -6.9416    3.5161 H   0  0  0  0  0  0  0  0  0  0  0  0
   -1.1359   -9.2936    4.5141 H   0  0  0  0  0  0  0  0  0  0  0  0
    2.1231   -9.6562    4.6129 H   0  0  0  0  0  0  0  0  0  0  0  0
    1.3437  -10.6805    3.4135 H   0  0  0  0  0  0  0  0  0  0  0  0
    3.8087  -10.0453    2.9226 H   0  0  0  0  0  0  0  0  0  0  0  0
    2.6643   -9.8285    1.6278 H   0  0  0  0  0  0  0  0  0  0  0  0
    4.9579   -8.6451    0.0976 H   0  0  0  0  0  0  0  0  0  0  0  0
    5.4631   -9.5322    1.5238 H   0  0  0  0  0  0  0  0  0  0  0  0
    6.4959   -8.2608    0.8985 H   0  0  0  0  0  0  0  0  0  0  0  0
    2.7944   -3.6754   -0.0207 H   0  0  0  0  0  0  0  0  0  0  0  0
    5.1503   -4.8916   -1.3502 H   0  0  0  0  0  0  0  0  0  0  0  0
    3.7762   -4.0174   -2.0057 H   0  0  0  0  0  0  0  0  0  0  0  0
    6.3931   -3.0460   -1.2271 H   0  0  0  0  0  0  0  0  0  0  0  0
    5.2104   -2.1714   -2.1651 H   0  0  0  0  0  0  0  0  0  0  0  0
    3.1228   -1.6994   -0.6004 H   0  0  0  0  0  0  0  0  0  0  0  0
    6.0441   -0.0608   -0.1891 H   0  0  0  0  0  0  0  0  0  0  0  0
    5.7953   -0.5216    1.4683 H   0  0  0  0  0  0  0  0  0  0  0  0
    7.3780   -2.1635    1.0704 H   0  0  0  0  0  0  0  0  0  0  0  0
  2  1  1  1
  1 28  1  0
  1 29  1  0
  1 30  1  0
  2 21  1  0
  2 24  1  0
  2  3  1  0
  3  4  1  0
  3 31  1  0
  3 32  1  0
  4  5  1  0
  4 33  1  0
  4 34  1  0
  5 19  1  0
  5  6  1  0
  5 35  1  6
  6  7  1  0
  6 21  1  0
  6 36  1  6
  7  8  1  0
  7 37  1  0
  7 38  1  0
  8 16  1  0
  8  9  1  0
  8 39  1  6
  9 13  2  0
  9 10  1  0
 10 11  1  0
 11 12  2  0
 11 40  1  0
 12 13  1  0
 12 41  1  0
 13 14  1  0
 14 15  1  0
 14 42  1  0
 14 43  1  0
 15 16  1  0
 15 44  1  0
 15 45  1  0
 16 19  1  0
 16 17  1  1
 17 18  1  0
 18 19  1  0
 19 20  1  6
 20 46  1  0
 20 47  1  0
 20 48  1  0
 21 22  1  0
 21 49  1  6
 22 23  1  0
 22 50  1  0
 22 51  1  0
 23 24  1  0
 23 52  1  0
 23 53  1  0
 24 25  1  6
 24 26  1  0
 25 54  1  0
 26 27  1  0
 26 55  1  0
 26 56  1  0
 27 57  1  0
M  END
>  <i_m_ct_stereo_status>  (210) 
1

>  <s_m_source_file>  (210) 
/var/tmp/pbs.5076255.sched01/tmpbzpkhbzu/844yn2io63.sdf

>  <i_m_source_file_index>  (210) 
7

>  <i_lp_mmshare_version>  (210) 
48012

>  <i_f3d_flags>  (210) 
0

>  <s_epik_input>  (210) 
W09IXVtDSDJdW0NAQF0xKFtPSF0pW0NIMl1bQ0gyXVtDQEBIXTJbQ0BAXTEoW0NIM10pW0NIMl1bQ0gyXVtDQEBIXShbQ0BdMyhPTzQpW0NIM10pW0NASF0yW0NIMl1bQ0BASF0oW0NAQF0zNDUpYzZjKFtjSF1bY0hdbzYpW0NIMl1bQ0gyXTU=

>  <s_epik_cmdline>  (210) 
J2VwaWtfcHl0aG9uJywgJy1waHQnLCAnMi4wJywgJy1waCcsICc3LjAnLCAnLXRuJywgJzgnLCAnLW1hJywgJzIwMCcsICctaW1hZScsICc8aW5maWxlLm1hZT4nLCAnLW9tYWUnLCAnPG91dGZpbGUubWFlPic=

>  <r_lp_tautomer_probability>  (210) 
1

>  <r_epik_Ionization_Penalty>  (210) 
8.41352e-07

>  <r_epik_Ionization_Penalty_Charging>  (210) 
0

>  <r_epik_Ionization_Penalty_Neutral>  (210) 
8.41352e-07

>  <r_epik_State_Penalty>  (210) 
-0

>  <r_epik_Charging_Adjusted_Penalty>  (210) 
0

>  <i_epik_Tot_Q>  (210) 
0

>  <i_epik_Tot_abs_Q>  (210) 
0

>  <s_lp_Force_Field>  (210) 
OPLS3e

>  <r_lp_Energy>  (210) 
53.9927

>  <b_lp_Chiralities_Consistent>  (210) 
1

>  <s_lp_Variant>  (210) 
63:0-1

>  <s_i_glide_gridfile>  (210) 
pfpi4k_grid

>  <i_i_glide_lignum>  (210) 
7

>  <i_i_glide_rotatable_bonds>  (210) 
3

>  <r_i_docking_score>  (210) 
-2.79556

>  <r_i_glide_ligand_efficiency>  (210) 
-0.103539

>  <r_i_glide_ligand_efficiency_sa>  (210) 
-0.310617

>  <r_i_glide_ligand_efficiency_ln>  (210) 
-0.650759

>  <r_i_glide_gscore>  (210) 
-2.79556

>  <r_i_glide_lipo>  (210) 
-0.336975

>  <r_i_glide_hbond>  (210) 
-0.180906

>  <r_i_glide_metal>  (210) 
-0

>  <r_i_glide_rewards>  (210) 
-0.855882

>  <r_i_glide_evdw>  (210) 
-23.5113

>  <r_i_glide_ecoul>  (210) 
-2.56079

>  <r_i_glide_erotb>  (210) 
0.137892

>  <r_i_glide_esite>  (210) 
0

>  <r_i_glide_emodel>  (210) 
-30.7711

>  <r_i_glide_energy>  (210) 
-26.0721

>  <r_i_glide_einternal>  (210) 
0.303615

>  <r_i_glide_intrahb_reward>  (210) 
-0

>  <i_i_glide_confnum>  (210) 
3

>  <i_i_glide_posenum>  (210) 
5

>  <r_i_glide_eff_state_penalty>  (210) 
0

>  <ligand_id>  (210) 
63

>  <original_smiles>  (210) 
CC12CCC3C(CC4c5occc5CCC45OOC35C)C1CCC2(O)CO

>  <smiles>  (210) 
[H]OC([H])([H])C1(O[H])C([H])([H])C([H])([H])C2([H])C3([H])C([H])([H])C4([H])c5oc([H])c([H])c5C([H])([H])C([H])([H])C45OOC5(C([H])([H])[H])C3([H])C([H])([H])C([H])([H])C21C([H])([H])[H]

$$$$
64:0:0
     RDKit          3D

 46 49  0  0  1  0  0  0  0  0999 V2000
    1.8298   -1.0066    1.9086 C   0  0  0  0  0  0  0  0  0  0  0  0
    2.5352   -2.0953    1.5612 C   0  0  0  0  0  0  0  0  0  0  0  0
    2.2521   -3.3991    2.2594 C   0  0  0  0  0  0  0  0  0  0  0  0
    1.5269   -3.4570    3.2477 O   0  0  0  0  0  0  0  0  0  0  0  0
    2.7986   -4.4993    1.6708 O   0  0  0  0  0  0  0  0  0  0  0  0
    3.7284   -4.5132    0.5869 C   0  0  2  0  0  0  0  0  0  0  0  0
    5.2270   -4.4201    1.0528 C   0  0  0  0  0  0  0  0  0  0  0  0
    5.4092   -4.4974    2.5869 C   0  0  0  0  0  0  0  0  0  0  0  0
    5.9833   -5.6496    0.5096 C   0  0  0  0  0  0  0  0  0  0  0  0
    5.8445   -3.0960    0.4967 C   0  0  2  0  0  0  0  0  0  0  0  0
    4.9686   -1.8933    0.9272 C   0  0  0  0  0  0  0  0  0  0  0  0
    3.5214   -2.0891    0.3897 C   0  0  1  0  0  0  0  0  0  0  0  0
    3.4218   -3.3917   -0.4295 C   0  0  2  0  0  0  0  0  0  0  0  0
    2.1288   -3.5444   -1.2339 C   0  0  0  0  0  0  0  0  0  0  0  0
    2.3533   -2.7766   -2.5361 C   0  0  0  0  0  0  0  0  0  0  0  0
    3.8572   -2.7871   -2.8164 C   0  0  0  0  0  0  0  0  0  0  0  0
    4.1368   -3.6242   -4.0684 C   0  0  0  0  0  0  0  0  0  0  0  0
    4.3378   -1.3585   -3.0827 C   0  0  0  0  0  0  0  0  0  0  0  0
    4.4706   -3.4601   -1.5612 C   0  0  1  0  0  0  0  0  0  0  0  0
    5.8667   -3.0472   -1.0470 C   0  0  0  0  0  0  0  0  0  0  0  0
    1.9501   -0.0786    1.3694 H   0  0  0  0  0  0  0  0  0  0  0  0
    1.0805   -1.0414    2.6850 H   0  0  0  0  0  0  0  0  0  0  0  0
    3.5809   -5.4752    0.0936 H   0  0  0  0  0  0  0  0  0  0  0  0
    6.4642   -4.4499    2.8473 H   0  0  0  0  0  0  0  0  0  0  0  0
    5.0194   -5.4303    2.9928 H   0  0  0  0  0  0  0  0  0  0  0  0
    4.9101   -3.6845    3.1162 H   0  0  0  0  0  0  0  0  0  0  0  0
    7.0556   -5.5719    0.6703 H   0  0  0  0  0  0  0  0  0  0  0  0
    5.8171   -5.7809   -0.5545 H   0  0  0  0  0  0  0  0  0  0  0  0
    5.6457   -6.5696    0.9827 H   0  0  0  0  0  0  0  0  0  0  0  0
    6.8638   -2.9522    0.8719 H   0  0  0  0  0  0  0  0  0  0  0  0
    4.9745   -1.7777    2.0102 H   0  0  0  0  0  0  0  0  0  0  0  0
    5.3844   -0.9625    0.5386 H   0  0  0  0  0  0  0  0  0  0  0  0
    3.2638   -1.2335   -0.2314 H   0  0  0  0  0  0  0  0  0  0  0  0
    1.9214   -4.5896   -1.4594 H   0  0  0  0  0  0  0  0  0  0  0  0
    1.2808   -3.1452   -0.7131 H   0  0  0  0  0  0  0  0  0  0  0  0
    1.7432   -3.1482   -3.3642 H   0  0  0  0  0  0  0  0  0  0  0  0
    2.0618   -1.7425   -2.3764 H   0  0  0  0  0  0  0  0  0  0  0  0
    5.2023   -3.7393   -4.2744 H   0  0  0  0  0  0  0  0  0  0  0  0
    3.6418   -3.1699   -4.9260 H   0  0  0  0  0  0  0  0  0  0  0  0
    3.7141   -4.6171   -3.9739 H   0  0  0  0  0  0  0  0  0  0  0  0
    5.3866   -1.4060   -3.3374 H   0  0  0  0  0  0  0  0  0  0  0  0
    4.2268   -0.7005   -2.2187 H   0  0  0  0  0  0  0  0  0  0  0  0
    3.8030   -0.8986   -3.9184 H   0  0  0  0  0  0  0  0  0  0  0  0
    4.5584   -4.5052   -1.8209 H   0  0  0  0  0  0  0  0  0  0  0  0
    6.1682   -2.0671   -1.3978 H   0  0  0  0  0  0  0  0  0  0  0  0
    6.6160   -3.7366   -1.4509 H   0  0  0  0  0  0  0  0  0  0  0  0
  1  2  2  0
  1 21  1  0
  1 22  1  0
  2 12  1  0
  2  3  1  0
  3  4  2  0
  3  5  1  0
  5  6  1  0
  6 13  1  0
  6  7  1  0
  6 23  1  6
  7  8  1  0
  7  9  1  0
  7 10  1  0
  8 24  1  0
  8 25  1  0
  8 26  1  0
  9 27  1  0
  9 28  1  0
  9 29  1  0
 10 20  1  0
 10 11  1  0
 10 30  1  1
 11 12  1  0
 11 31  1  0
 11 32  1  0
 12 13  1  0
 12 33  1  6
 13 19  1  0
 13 14  1  6
 14 15  1  0
 14 34  1  0
 14 35  1  0
 15 16  1  0
 15 36  1  0
 15 37  1  0
 16 17  1  0
 16 18  1  0
 16 19  1  0
 17 38  1  0
 17 39  1  0
 17 40  1  0
 18 41  1  0
 18 42  1  0
 18 43  1  0
 19 20  1  0
 19 44  1  6
 20 45  1  0
 20 46  1  0
M  END
>  <i_m_ct_stereo_status>  (211) 
1

>  <s_m_source_file>  (211) 
/var/tmp/pbs.5076255.sched01/tmpbzpkhbzu/844yn2io63.sdf

>  <i_m_source_file_index>  (211) 
8

>  <i_lp_mmshare_version>  (211) 
48012

>  <i_f3d_flags>  (211) 
0

>  <s_epik_input>  (211) 
W0NAQF0xMjNbQ0BASF00T0MoPU8pQyg9W0NIMl0pW0NASF0xW0NIMl1bQ0BASF0oQzQoW0NIM10pW0NIM10pW0NIMl1bQ0BASF0zQyhbQ0gzXSkoW0NIM10pW0NIMl1bQ0gyXTI=

>  <s_epik_cmdline>  (211) 
J2VwaWtfcHl0aG9uJywgJy1waHQnLCAnMi4wJywgJy1waCcsICc3LjAnLCAnLXRuJywgJzgnLCAnLW1hJywgJzIwMCcsICctaW1hZScsICc8aW5maWxlLm1hZT4nLCAnLW9tYWUnLCAnPG91dGZpbGUubWFlPic=

>  <r_lp_tautomer_probability>  (211) 
1

>  <r_epik_Ionization_Penalty>  (211) 
1.6733e-09

>  <r_epik_Ionization_Penalty_Charging>  (211) 
0

>  <r_epik_Ionization_Penalty_Neutral>  (211) 
1.6733e-09

>  <r_epik_State_Penalty>  (211) 
-0

>  <r_epik_Charging_Adjusted_Penalty>  (211) 
0

>  <i_epik_Tot_Q>  (211) 
0

>  <i_epik_Tot_abs_Q>  (211) 
0

>  <s_epik_Chemistry_Notes>  (211) 
This compound has an ester and may undergo hydrolysis at high or low pH.

>  <s_lp_Force_Field>  (211) 
OPLS3e

>  <r_lp_Energy>  (211) 
55.9062

>  <b_lp_Chiralities_Consistent>  (211) 
1

>  <s_lp_Variant>  (211) 
64:0-1

>  <s_i_glide_gridfile>  (211) 
pfpi4k_grid

>  <i_i_glide_lignum>  (211) 
8

>  <i_i_glide_rotatable_bonds>  (211) 
0

>  <r_i_docking_score>  (211) 
-2.73547

>  <r_i_glide_ligand_efficiency>  (211) 
-0.136774

>  <r_i_glide_ligand_efficiency_sa>  (211) 
-0.371261

>  <r_i_glide_ligand_efficiency_ln>  (211) 
-0.684598

>  <r_i_glide_gscore>  (211) 
-2.73547

>  <r_i_glide_lipo>  (211) 
-0.397929

>  <r_i_glide_hbond>  (211) 
0

>  <r_i_glide_metal>  (211) 
-0

>  <r_i_glide_rewards>  (211) 
-1.5382

>  <r_i_glide_evdw>  (211) 
-16.9701

>  <r_i_glide_ecoul>  (211) 
0.365973

>  <r_i_glide_erotb>  (211) 
0

>  <r_i_glide_esite>  (211) 
-0.00573989

>  <r_i_glide_emodel>  (211) 
-18.7302

>  <r_i_glide_energy>  (211) 
-16.6041

>  <r_i_glide_einternal>  (211) 
0

>  <r_i_glide_intrahb_reward>  (211) 
-0

>  <i_i_glide_confnum>  (211) 
1

>  <i_i_glide_posenum>  (211) 
1

>  <r_i_glide_eff_state_penalty>  (211) 
0

>  <ligand_id>  (211) 
64

>  <original_smiles>  (211) 
C=C1C(=O)OC2C(C)(C)C3CC1C21CCC(C)(C)C1C3

>  <smiles>  (211) 
[H]C([H])=C1C(=O)OC2([H])C(C([H])([H])[H])(C([H])([H])[H])C3([H])C([H])([H])C1([H])C21C([H])([H])C([H])([H])C(C([H])([H])[H])(C([H])([H])[H])C1([H])C3([H])[H]

$$$$
64:0:1
     RDKit          3D

 46 49  0  0  1  0  0  0  0  0999 V2000
    4.1766    0.0592    1.8685 C   0  0  0  0  0  0  0  0  0  0  0  0
    4.4166   -1.2093    1.5222 C   0  0  0  0  0  0  0  0  0  0  0  0
    4.0682   -2.2819    2.4722 C   0  0  0  0  0  0  0  0  0  0  0  0
    3.7710   -2.0580    3.6563 O   0  0  0  0  0  0  0  0  0  0  0  0
    4.0637   -3.5665    1.9818 O   0  0  0  0  0  0  0  0  0  0  0  0
    4.5017   -3.9373    0.6568 C   0  0  2  0  0  0  0  0  0  0  0  0
    6.0237   -4.2888    0.5869 C   0  0  0  0  0  0  0  0  0  0  0  0
    6.6762   -4.3209    1.9623 C   0  0  0  0  0  0  0  0  0  0  0  0
    6.1425   -5.7272    0.1253 C   0  0  0  0  0  0  0  0  0  0  0  0
    6.7504   -3.2490   -0.3660 C   0  0  2  0  0  0  0  0  0  0  0  0
    6.4492   -1.8256    0.1517 C   0  0  0  0  0  0  0  0  0  0  0  0
    4.9165   -1.5854    0.1351 C   0  0  1  0  0  0  0  0  0  0  0  0
    4.1988   -2.8604   -0.3897 C   0  0  2  0  0  0  0  0  0  0  0  0
    2.7354   -2.6889   -0.6603 C   0  0  0  0  0  0  0  0  0  0  0  0
    2.6186   -2.1094   -2.0763 C   0  0  0  0  0  0  0  0  0  0  0  0
    3.8612   -2.5509   -2.8407 C   0  0  0  0  0  0  0  0  0  0  0  0
    3.3884   -3.4667   -3.9643 C   0  0  0  0  0  0  0  0  0  0  0  0
    4.5378   -1.3441   -3.4712 C   0  0  0  0  0  0  0  0  0  0  0  0
    4.6865   -3.3022   -1.7763 C   0  0  1  0  0  0  0  0  0  0  0  0
    6.2121   -3.2739   -1.8210 C   0  0  0  0  0  0  0  0  0  0  0  0
    4.3378    0.8682    1.1757 H   0  0  0  0  0  0  0  0  0  0  0  0
    3.7972    0.3203    2.8481 H   0  0  0  0  0  0  0  0  0  0  0  0
    3.9409   -4.8353    0.4148 H   0  0  0  0  0  0  0  0  0  0  0  0
    7.7428   -4.5070    1.8478 H   0  0  0  0  0  0  0  0  0  0  0  0
    6.2649   -5.0871    2.6146 H   0  0  0  0  0  0  0  0  0  0  0  0
    6.5400   -3.3705    2.4454 H   0  0  0  0  0  0  0  0  0  0  0  0
    7.1896   -5.9751    0.0001 H   0  0  0  0  0  0  0  0  0  0  0  0
    5.5657   -5.8544   -0.7642 H   0  0  0  0  0  0  0  0  0  0  0  0
    5.7508   -6.4301    0.8566 H   0  0  0  0  0  0  0  0  0  0  0  0
    7.8277   -3.4240   -0.3713 H   0  0  0  0  0  0  0  0  0  0  0  0
    6.8693   -1.6422    1.1347 H   0  0  0  0  0  0  0  0  0  0  0  0
    6.9216   -1.0932   -0.4929 H   0  0  0  0  0  0  0  0  0  0  0  0
    4.6923   -0.7389   -0.5188 H   0  0  0  0  0  0  0  0  0  0  0  0
    2.2245   -3.6534   -0.6336 H   0  0  0  0  0  0  0  0  0  0  0  0
    2.3567   -2.0577    0.1272 H   0  0  0  0  0  0  0  0  0  0  0  0
    1.7002   -2.3646   -2.5911 H   0  0  0  0  0  0  0  0  0  0  0  0
    2.6638   -1.0273   -1.9861 H   0  0  0  0  0  0  0  0  0  0  0  0
    4.2268   -3.9592   -4.4527 H   0  0  0  0  0  0  0  0  0  0  0  0
    2.8164   -2.9179   -4.7143 H   0  0  0  0  0  0  0  0  0  0  0  0
    2.7292   -4.2408   -3.5662 H   0  0  0  0  0  0  0  0  0  0  0  0
    5.3232   -1.7508   -4.0780 H   0  0  0  0  0  0  0  0  0  0  0  0
    4.9752   -0.6462   -2.7599 H   0  0  0  0  0  0  0  0  0  0  0  0
    3.8773   -0.7905   -4.1412 H   0  0  0  0  0  0  0  0  0  0  0  0
    4.3848   -4.3463   -1.8623 H   0  0  0  0  0  0  0  0  0  0  0  0
    6.6265   -2.4513   -2.4003 H   0  0  0  0  0  0  0  0  0  0  0  0
    6.4890   -4.1535   -2.3761 H   0  0  0  0  0  0  0  0  0  0  0  0
  1  2  2  0
  1 21  1  0
  1 22  1  0
  2 12  1  0
  2  3  1  0
  3  4  2  0
  3  5  1  0
  5  6  1  0
  6 13  1  0
  6  7  1  0
  6 23  1  6
  7  8  1  0
  7  9  1  0
  7 10  1  0
  8 24  1  0
  8 25  1  0
  8 26  1  0
  9 27  1  0
  9 28  1  0
  9 29  1  0
 10 20  1  0
 10 11  1  0
 10 30  1  6
 11 12  1  0
 11 31  1  0
 11 32  1  0
 12 13  1  0
 12 33  1  6
 13 19  1  0
 13 14  1  6
 14 15  1  0
 14 34  1  0
 14 35  1  0
 15 16  1  0
 15 36  1  0
 15 37  1  0
 16 17  1  0
 16 18  1  0
 16 19  1  0
 17 38  1  0
 17 39  1  0
 17 40  1  0
 18 41  1  0
 18 42  1  0
 18 43  1  0
 19 20  1  0
 19 44  1  6
 20 45  1  0
 20 46  1  0
M  END
>  <i_m_ct_stereo_status>  (212) 
1

>  <s_m_source_file>  (212) 
/var/tmp/pbs.5076255.sched01/tmpbzpkhbzu/844yn2io63.sdf

>  <i_m_source_file_index>  (212) 
8

>  <i_lp_mmshare_version>  (212) 
48012

>  <i_f3d_flags>  (212) 
0

>  <s_epik_input>  (212) 
W0NAQF0xMjNbQ0BASF00T0MoPU8pQyg9W0NIMl0pW0NASF0xW0NIMl1bQ0BASF0oQzQoW0NIM10pW0NIM10pW0NIMl1bQ0BASF0zQyhbQ0gzXSkoW0NIM10pW0NIMl1bQ0gyXTI=

>  <s_epik_cmdline>  (212) 
J2VwaWtfcHl0aG9uJywgJy1waHQnLCAnMi4wJywgJy1waCcsICc3LjAnLCAnLXRuJywgJzgnLCAnLW1hJywgJzIwMCcsICctaW1hZScsICc8aW5maWxlLm1hZT4nLCAnLW9tYWUnLCAnPG91dGZpbGUubWFlPic=

>  <r_lp_tautomer_probability>  (212) 
1

>  <r_epik_Ionization_Penalty>  (212) 
1.6733e-09

>  <r_epik_Ionization_Penalty_Charging>  (212) 
0

>  <r_epik_Ionization_Penalty_Neutral>  (212) 
1.6733e-09

>  <r_epik_State_Penalty>  (212) 
-0

>  <r_epik_Charging_Adjusted_Penalty>  (212) 
0

>  <i_epik_Tot_Q>  (212) 
0

>  <i_epik_Tot_abs_Q>  (212) 
0

>  <s_epik_Chemistry_Notes>  (212) 
This compound has an ester and may undergo hydrolysis at high or low pH.

>  <s_lp_Force_Field>  (212) 
OPLS3e

>  <r_lp_Energy>  (212) 
55.9062

>  <b_lp_Chiralities_Consistent>  (212) 
1

>  <s_lp_Variant>  (212) 
64:0-1

>  <s_i_glide_gridfile>  (212) 
pfpi4k_grid

>  <i_i_glide_lignum>  (212) 
8

>  <i_i_glide_rotatable_bonds>  (212) 
0

>  <r_i_docking_score>  (212) 
-2.53302

>  <r_i_glide_ligand_efficiency>  (212) 
-0.126651

>  <r_i_glide_ligand_efficiency_sa>  (212) 
-0.343783

>  <r_i_glide_ligand_efficiency_ln>  (212) 
-0.63393

>  <r_i_glide_gscore>  (212) 
-2.53302

>  <r_i_glide_lipo>  (212) 
-0.812975

>  <r_i_glide_hbond>  (212) 
0

>  <r_i_glide_metal>  (212) 
-0

>  <r_i_glide_rewards>  (212) 
-1.53838

>  <r_i_glide_evdw>  (212) 
-2.04874

>  <r_i_glide_ecoul>  (212) 
-0.528189

>  <r_i_glide_erotb>  (212) 
0

>  <r_i_glide_esite>  (212) 
0

>  <r_i_glide_emodel>  (212) 
-3.63202

>  <r_i_glide_energy>  (212) 
-2.57693

>  <r_i_glide_einternal>  (212) 
0

>  <r_i_glide_intrahb_reward>  (212) 
-0

>  <i_i_glide_confnum>  (212) 
2

>  <i_i_glide_posenum>  (212) 
20

>  <r_i_glide_eff_state_penalty>  (212) 
0

>  <ligand_id>  (212) 
64

>  <original_smiles>  (212) 
C=C1C(=O)OC2C(C)(C)C3CC1C21CCC(C)(C)C1C3

>  <smiles>  (212) 
[H]C([H])=C1C(=O)OC2([H])C(C([H])([H])[H])(C([H])([H])[H])C3([H])C([H])([H])C1([H])C21C([H])([H])C([H])([H])C(C([H])([H])[H])(C([H])([H])[H])C1([H])C3([H])[H]

$$$$
65:0:0
     RDKit          3D

 47 51  0  0  1  0  0  0  0  0999 V2000
    2.0671   -0.9259    3.3281 C   0  0  0  0  0  0  0  0  0  0  0  0
    3.5146   -1.3419    2.9608 C   0  0  1  0  0  0  0  0  0  0  0  0
    4.2731   -0.1518    3.0926 O   0  0  0  0  0  0  0  0  0  0  0  0
    4.0088   -2.4766    3.8875 C   0  0  1  0  0  0  0  0  0  0  0  0
    3.6647   -2.2969    5.2472 O   0  0  0  0  0  0  0  0  0  0  0  0
    3.4959   -3.6560    3.3597 O   0  0  0  0  0  0  0  0  0  0  0  0
    3.1612   -3.4729    1.9898 C   0  0  2  0  0  0  0  0  0  0  0  0
    3.6439   -4.6671    1.1561 C   0  0  0  0  0  0  0  0  0  0  0  0
    4.9762   -4.4406    0.4392 C   0  0  0  0  0  0  0  0  0  0  0  0
    5.0422   -3.0981   -0.3289 C   0  0  1  0  0  0  0  0  0  0  0  0
    6.4017   -3.0778   -1.0850 C   0  0  0  0  0  0  0  0  0  0  0  0
    3.8699   -2.8408   -1.3208 C   0  0  2  0  0  0  0  0  0  0  0  0
    3.9114   -3.4355   -2.7451 C   0  0  0  0  0  0  0  0  0  0  0  0
    4.3615   -2.3078   -3.6884 C   0  0  0  0  0  0  0  0  0  0  0  0
    4.2837   -1.0311   -2.9129 C   0  0  1  0  0  0  0  0  0  0  0  0
    3.0232   -0.6755   -2.3576 O   0  0  0  0  0  0  0  0  0  0  0  0
    3.9529   -1.3664   -1.5016 C   0  0  1  0  0  0  0  0  0  0  0  0
    4.6177   -0.7115   -0.3162 C   0  0  0  0  0  0  0  0  0  0  0  0
    4.8978   -1.8776    0.6601 C   0  0  2  0  0  0  0  0  0  0  0  0
    6.2263   -1.6309    1.4246 C   0  0  0  0  0  0  0  0  0  0  0  0
    3.5955   -2.0402    1.5756 C   0  0  2  0  0  0  0  0  0  0  0  0
    1.3840   -1.7710    3.3139 H   0  0  0  0  0  0  0  0  0  0  0  0
    1.6834   -0.1787    2.6180 H   0  0  0  0  0  0  0  0  0  0  0  0
    2.0295   -0.4793    4.3266 H   0  0  0  0  0  0  0  0  0  0  0  0
    3.8619    0.5426    2.5984 H   0  0  0  0  0  0  0  0  0  0  0  0
    5.0927   -2.5920    3.8415 H   0  0  0  0  0  0  0  0  0  0  0  0
    2.7651   -2.0047    5.2995 H   0  0  0  0  0  0  0  0  0  0  0  0
    2.0681   -3.5027    1.9745 H   0  0  0  0  0  0  0  0  0  0  0  0
    3.7317   -5.5286    1.8200 H   0  0  0  0  0  0  0  0  0  0  0  0
    2.8787   -4.9166    0.4123 H   0  0  0  0  0  0  0  0  0  0  0  0
    5.7799   -4.4705    1.1811 H   0  0  0  0  0  0  0  0  0  0  0  0
    5.1580   -5.2703   -0.2428 H   0  0  0  0  0  0  0  0  0  0  0  0
    6.6028   -2.1245   -1.5731 H   0  0  0  0  0  0  0  0  0  0  0  0
    6.4171   -3.8365   -1.8649 H   0  0  0  0  0  0  0  0  0  0  0  0
    7.2416   -3.3099   -0.4298 H   0  0  0  0  0  0  0  0  0  0  0  0
    2.9043   -3.0618   -0.8610 H   0  0  0  0  0  0  0  0  0  0  0  0
    4.5446   -4.3285   -2.8270 H   0  0  0  0  0  0  0  0  0  0  0  0
    2.8903   -3.7095   -3.0204 H   0  0  0  0  0  0  0  0  0  0  0  0
    5.3977   -2.4717   -3.9031 H   0  0  0  0  0  0  0  0  0  0  0  0
    3.7782   -2.2601   -4.6038 H   0  0  0  0  0  0  0  0  0  0  0  0
    4.9628   -0.2220   -3.1268 H   0  0  0  0  0  0  0  0  0  0  0  0
    5.5435   -0.2514   -0.6570 H   0  0  0  0  0  0  0  0  0  0  0  0
    3.9788    0.0584    0.1083 H   0  0  0  0  0  0  0  0  0  0  0  0
    6.2619   -0.7128    1.9822 H   0  0  0  0  0  0  0  0  0  0  0  0
    7.0620   -1.4864    0.7546 H   0  0  0  0  0  0  0  0  0  0  0  0
    6.4849   -2.4463    2.0827 H   0  0  0  0  0  0  0  0  0  0  0  0
    2.7650   -1.6442    0.9861 H   0  0  0  0  0  0  0  0  0  0  0  0
  1  2  1  0
  1 22  1  0
  1 23  1  0
  1 24  1  0
  2 21  1  0
  2  3  1  6
  2  4  1  0
  3 25  1  0
  4  5  1  0
  4  6  1  0
  4 26  1  1
  5 27  1  0
  6  7  1  0
  7 21  1  0
  7  8  1  0
  7 28  1  1
  8  9  1  0
  8 29  1  0
  8 30  1  0
  9 10  1  0
  9 31  1  0
  9 32  1  0
 10 19  1  0
 10 11  1  6
 10 12  1  0
 11 33  1  0
 11 34  1  0
 11 35  1  0
 12 17  1  0
 12 13  1  0
 12 36  1  1
 13 14  1  0
 13 37  1  0
 13 38  1  0
 14 15  1  0
 14 39  1  0
 14 40  1  0
 15 17  1  0
 15 16  1  0
 15 41  1  1
 17 16  1  1
 17 18  1  0
 18 19  1  0
 18 42  1  0
 18 43  1  0
 19 20  1  1
 19 21  1  0
 20 44  1  0
 20 45  1  0
 20 46  1  0
 21 47  1  6
M  END
>  <i_m_ct_stereo_status>  (213) 
1

>  <s_m_source_file>  (213) 
/var/tmp/pbs.5076255.sched01/tmpbzpkhbzu/844yn2io63.sdf

>  <i_m_source_file_index>  (213) 
9

>  <i_lp_mmshare_version>  (213) 
48012

>  <i_f3d_flags>  (213) 
0

>  <s_epik_input>  (213) 
W0NIM11bQ0BAXTEoW09IXSlbQ0BASF0oW09IXSlPW0NASF0oW0NIMl1bQ0gyXTIpW0NAQEhdMVtDQEBdKFtDSDJdMykoW0NIM10pW0NAXTIoW0NIM10pW0NAQEhdKFtDQEBdMzQ1KVtDSDJdW0NIMl1bQ0BIXTRPNQ==

>  <s_epik_cmdline>  (213) 
J2VwaWtfcHl0aG9uJywgJy1waHQnLCAnMi4wJywgJy1waCcsICc3LjAnLCAnLXRuJywgJzgnLCAnLW1hJywgJzIwMCcsICctaW1hZScsICc8aW5maWxlLm1hZT4nLCAnLW9tYWUnLCAnPG91dGZpbGUubWFlPic=

>  <r_lp_tautomer_probability>  (213) 
1

>  <r_epik_Ionization_Penalty>  (213) 
1.18972e-07

>  <r_epik_Ionization_Penalty_Charging>  (213) 
0

>  <r_epik_Ionization_Penalty_Neutral>  (213) 
1.18972e-07

>  <r_epik_State_Penalty>  (213) 
-0

>  <r_epik_Charging_Adjusted_Penalty>  (213) 
0

>  <i_epik_Tot_Q>  (213) 
0

>  <i_epik_Tot_abs_Q>  (213) 
0

>  <s_epik_Chemistry_Notes>  (213) 
This compound contains an acetal/aminal-like group ( X-CH(R)-Y where X, Y are N, S, or O) that may be acid/base labile, releasing an aldehyde.

>  <s_lp_Force_Field>  (213) 
OPLS3e

>  <r_lp_Energy>  (213) 
49.664

>  <b_lp_Chiralities_Consistent>  (213) 
1

>  <s_lp_Variant>  (213) 
65:0-1

>  <s_i_glide_gridfile>  (213) 
pfpi4k_grid

>  <i_i_glide_lignum>  (213) 
9

>  <i_i_glide_rotatable_bonds>  (213) 
2

>  <r_i_docking_score>  (213) 
-2.97384

>  <r_i_glide_ligand_efficiency>  (213) 
-0.141611

>  <r_i_glide_ligand_efficiency_sa>  (213) 
-0.390695

>  <r_i_glide_ligand_efficiency_ln>  (213) 
-0.735276

>  <r_i_glide_gscore>  (213) 
-2.97384

>  <r_i_glide_lipo>  (213) 
-0.477798

>  <r_i_glide_hbond>  (213) 
0

>  <r_i_glide_metal>  (213) 
-0

>  <r_i_glide_rewards>  (213) 
-1.40191

>  <r_i_glide_evdw>  (213) 
-21.7418

>  <r_i_glide_ecoul>  (213) 
-0.0469081

>  <r_i_glide_erotb>  (213) 
0

>  <r_i_glide_esite>  (213) 
0

>  <r_i_glide_emodel>  (213) 
-22.3326

>  <r_i_glide_energy>  (213) 
-21.7887

>  <r_i_glide_einternal>  (213) 
0.0205867

>  <r_i_glide_intrahb_reward>  (213) 
-0

>  <i_i_glide_confnum>  (213) 
2

>  <i_i_glide_posenum>  (213) 
28

>  <r_i_glide_eff_state_penalty>  (213) 
0

>  <ligand_id>  (213) 
65

>  <original_smiles>  (213) 
CC1(O)C(O)OC2CCC3(C)C4CCC5OC54CC3(C)C21

>  <smiles>  (213) 
[H]OC1([H])OC2([H])C([H])([H])C([H])([H])C3(C([H])([H])[H])C4([H])C([H])([H])C([H])([H])C5([H])OC54C([H])([H])C3(C([H])([H])[H])C2([H])C1(O[H])C([H])([H])[H]

$$$$
65:0:1
     RDKit          3D

 47 51  0  0  1  0  0  0  0  0999 V2000
    2.1406   -0.6931    3.3390 C   0  0  0  0  0  0  0  0  0  0  0  0
    3.5525   -1.2116    2.9672 C   0  0  1  0  0  0  0  0  0  0  0  0
    4.3895   -0.0707    3.0477 O   0  0  0  0  0  0  0  0  0  0  0  0
    3.9850   -2.3513    3.9107 C   0  0  1  0  0  0  0  0  0  0  0  0
    3.6490   -2.1186    5.2650 O   0  0  0  0  0  0  0  0  0  0  0  0
    3.3768   -3.4986    3.4190 O   0  0  0  0  0  0  0  0  0  0  0  0
    3.0485   -3.3270    2.0499 C   0  0  2  0  0  0  0  0  0  0  0  0
    3.4415   -4.5691    1.2442 C   0  0  0  0  0  0  0  0  0  0  0  0
    4.7716   -4.4493    0.4991 C   0  0  0  0  0  0  0  0  0  0  0  0
    4.9168   -3.1345   -0.2961 C   0  0  1  0  0  0  0  0  0  0  0  0
    6.2580   -3.2454   -1.0737 C   0  0  0  0  0  0  0  0  0  0  0  0
    3.7598   -2.8196   -1.2853 C   0  0  2  0  0  0  0  0  0  0  0  0
    3.7617   -3.4425   -2.7022 C   0  0  0  0  0  0  0  0  0  0  0  0
    4.2881   -2.3667   -3.6757 C   0  0  0  0  0  0  0  0  0  0  0  0
    4.2640   -1.0767   -2.9216 C   0  0  1  0  0  0  0  0  0  0  0  0
    3.0240   -0.6557   -2.3803 O   0  0  0  0  0  0  0  0  0  0  0  0
    3.9298   -1.3606   -1.5119 C   0  0  1  0  0  0  0  0  0  0  0  0
    4.6385   -0.7334   -0.3342 C   0  0  0  0  0  0  0  0  0  0  0  0
    4.8689   -1.8908    0.6636 C   0  0  2  0  0  0  0  0  0  0  0  0
    6.2187   -1.6992    1.3971 C   0  0  0  0  0  0  0  0  0  0  0  0
    3.5740   -1.9431    1.5983 C   0  0  2  0  0  0  0  0  0  0  0  0
    1.4048   -1.4927    3.3453 H   0  0  0  0  0  0  0  0  0  0  0  0
    1.8108    0.0621    2.6138 H   0  0  0  0  0  0  0  0  0  0  0  0
    2.1320   -0.2271    4.3249 H   0  0  0  0  0  0  0  0  0  0  0  0
    4.2804    0.3446    3.8830 H   0  0  0  0  0  0  0  0  0  0  0  0
    5.0588   -2.5373    3.8522 H   0  0  0  0  0  0  0  0  0  0  0  0
    3.7858   -1.2004    5.4485 H   0  0  0  0  0  0  0  0  0  0  0  0
    1.9576   -3.2832    2.0378 H   0  0  0  0  0  0  0  0  0  0  0  0
    3.4832   -5.4244    1.9200 H   0  0  0  0  0  0  0  0  0  0  0  0
    2.6588   -4.7898    0.5141 H   0  0  0  0  0  0  0  0  0  0  0  0
    5.5859   -4.5173    1.2321 H   0  0  0  0  0  0  0  0  0  0  0  0
    4.8943   -5.3045   -0.1615 H   0  0  0  0  0  0  0  0  0  0  0  0
    6.5103   -2.3367   -1.6168 H   0  0  0  0  0  0  0  0  0  0  0  0
    6.2156   -4.0483   -1.7993 H   0  0  0  0  0  0  0  0  0  0  0  0
    7.0960   -3.5022   -0.4257 H   0  0  0  0  0  0  0  0  0  0  0  0
    2.7832   -2.9719   -0.8130 H   0  0  0  0  0  0  0  0  0  0  0  0
    4.3319   -4.3631   -2.7822 H   0  0  0  0  0  0  0  0  0  0  0  0
    2.7226   -3.6465   -2.9660 H   0  0  0  0  0  0  0  0  0  0  0  0
    5.3143   -2.5950   -3.9083 H   0  0  0  0  0  0  0  0  0  0  0  0
    3.6999   -2.3136   -4.5899 H   0  0  0  0  0  0  0  0  0  0  0  0
    4.9821   -0.2963   -3.1527 H   0  0  0  0  0  0  0  0  0  0  0  0
    5.5843   -0.3413   -0.7042 H   0  0  0  0  0  0  0  0  0  0  0  0
    4.0509    0.0915    0.0720 H   0  0  0  0  0  0  0  0  0  0  0  0
    6.3127   -0.7731    1.9367 H   0  0  0  0  0  0  0  0  0  0  0  0
    7.0506   -1.6277    0.7139 H   0  0  0  0  0  0  0  0  0  0  0  0
    6.4376   -2.5126    2.0747 H   0  0  0  0  0  0  0  0  0  0  0  0
    2.7647   -1.4989    1.0153 H   0  0  0  0  0  0  0  0  0  0  0  0
  1  2  1  0
  1 22  1  0
  1 23  1  0
  1 24  1  0
  2 21  1  0
  2  3  1  6
  2  4  1  0
  3 25  1  0
  4  5  1  0
  4  6  1  0
  4 26  1  1
  5 27  1  0
  6  7  1  0
  7 21  1  0
  7  8  1  0
  7 28  1  1
  8  9  1  0
  8 29  1  0
  8 30  1  0
  9 10  1  0
  9 31  1  0
  9 32  1  0
 10 19  1  0
 10 11  1  6
 10 12  1  0
 11 33  1  0
 11 34  1  0
 11 35  1  0
 12 17  1  0
 12 13  1  0
 12 36  1  1
 13 14  1  0
 13 37  1  0
 13 38  1  0
 14 15  1  0
 14 39  1  0
 14 40  1  0
 15 17  1  0
 15 16  1  0
 15 41  1  1
 17 16  1  6
 17 18  1  0
 18 19  1  0
 18 42  1  0
 18 43  1  0
 19 20  1  1
 19 21  1  0
 20 44  1  0
 20 45  1  0
 20 46  1  0
 21 47  1  6
M  END
>  <i_m_ct_stereo_status>  (214) 
1

>  <s_m_source_file>  (214) 
/var/tmp/pbs.5076255.sched01/tmpbzpkhbzu/844yn2io63.sdf

>  <i_m_source_file_index>  (214) 
9

>  <i_lp_mmshare_version>  (214) 
48012

>  <i_f3d_flags>  (214) 
0

>  <s_epik_input>  (214) 
W0NIM11bQ0BAXTEoW09IXSlbQ0BASF0oW09IXSlPW0NASF0oW0NIMl1bQ0gyXTIpW0NAQEhdMVtDQEBdKFtDSDJdMykoW0NIM10pW0NAXTIoW0NIM10pW0NAQEhdKFtDQEBdMzQ1KVtDSDJdW0NIMl1bQ0BIXTRPNQ==

>  <s_epik_cmdline>  (214) 
J2VwaWtfcHl0aG9uJywgJy1waHQnLCAnMi4wJywgJy1waCcsICc3LjAnLCAnLXRuJywgJzgnLCAnLW1hJywgJzIwMCcsICctaW1hZScsICc8aW5maWxlLm1hZT4nLCAnLW9tYWUnLCAnPG91dGZpbGUubWFlPic=

>  <r_lp_tautomer_probability>  (214) 
1

>  <r_epik_Ionization_Penalty>  (214) 
1.18972e-07

>  <r_epik_Ionization_Penalty_Charging>  (214) 
0

>  <r_epik_Ionization_Penalty_Neutral>  (214) 
1.18972e-07

>  <r_epik_State_Penalty>  (214) 
-0

>  <r_epik_Charging_Adjusted_Penalty>  (214) 
0

>  <i_epik_Tot_Q>  (214) 
0

>  <i_epik_Tot_abs_Q>  (214) 
0

>  <s_epik_Chemistry_Notes>  (214) 
This compound contains an acetal/aminal-like group ( X-CH(R)-Y where X, Y are N, S, or O) that may be acid/base labile, releasing an aldehyde.

>  <s_lp_Force_Field>  (214) 
OPLS3e

>  <r_lp_Energy>  (214) 
49.664

>  <b_lp_Chiralities_Consistent>  (214) 
1

>  <s_lp_Variant>  (214) 
65:0-1

>  <s_i_glide_gridfile>  (214) 
pfpi4k_grid

>  <i_i_glide_lignum>  (214) 
9

>  <i_i_glide_rotatable_bonds>  (214) 
2

>  <r_i_docking_score>  (214) 
-2.88383

>  <r_i_glide_ligand_efficiency>  (214) 
-0.137325

>  <r_i_glide_ligand_efficiency_sa>  (214) 
-0.37887

>  <r_i_glide_ligand_efficiency_ln>  (214) 
-0.713022

>  <r_i_glide_gscore>  (214) 
-2.88383

>  <r_i_glide_lipo>  (214) 
-0.528184

>  <r_i_glide_hbond>  (214) 
0

>  <r_i_glide_metal>  (214) 
-0

>  <r_i_glide_rewards>  (214) 
-1.40192

>  <r_i_glide_evdw>  (214) 
-20.9993

>  <r_i_glide_ecoul>  (214) 
0.641543

>  <r_i_glide_erotb>  (214) 
0

>  <r_i_glide_esite>  (214) 
0

>  <r_i_glide_emodel>  (214) 
-18.966

>  <r_i_glide_energy>  (214) 
-20.3578

>  <r_i_glide_einternal>  (214) 
2.09854

>  <r_i_glide_intrahb_reward>  (214) 
-0

>  <i_i_glide_confnum>  (214) 
1

>  <i_i_glide_posenum>  (214) 
26

>  <r_i_glide_eff_state_penalty>  (214) 
0

>  <ligand_id>  (214) 
65

>  <original_smiles>  (214) 
CC1(O)C(O)OC2CCC3(C)C4CCC5OC54CC3(C)C21

>  <smiles>  (214) 
[H]OC1([H])OC2([H])C([H])([H])C([H])([H])C3(C([H])([H])[H])C4([H])C([H])([H])C([H])([H])C5([H])OC54C([H])([H])C3(C([H])([H])[H])C2([H])C1(O[H])C([H])([H])[H]

$$$$
65:0:2
     RDKit          3D

 47 51  0  0  1  0  0  0  0  0999 V2000
    2.0959   -0.3178    2.9628 C   0  0  0  0  0  0  0  0  0  0  0  0
    3.4201   -1.0366    2.6016 C   0  0  1  0  0  0  0  0  0  0  0  0
    4.4227   -0.0427    2.7060 O   0  0  0  0  0  0  0  0  0  0  0  0
    3.6679   -2.2407    3.5452 C   0  0  1  0  0  0  0  0  0  0  0  0
    3.3585   -1.9906    4.8934 O   0  0  0  0  0  0  0  0  0  0  0  0
    2.9329   -3.2968    3.0368 O   0  0  0  0  0  0  0  0  0  0  0  0
    2.6287   -3.0578    1.6744 C   0  0  2  0  0  0  0  0  0  0  0  0
    2.8263   -4.3382    0.8507 C   0  0  0  0  0  0  0  0  0  0  0  0
    4.1618   -4.4287    0.1203 C   0  0  0  0  0  0  0  0  0  0  0  0
    4.5116   -3.1509   -0.6672 C   0  0  1  0  0  0  0  0  0  0  0  0
    5.8248   -3.4549   -1.4377 C   0  0  0  0  0  0  0  0  0  0  0  0
    3.4146   -2.6568   -1.6564 C   0  0  2  0  0  0  0  0  0  0  0  0
    3.3147   -3.2481   -3.0815 C   0  0  0  0  0  0  0  0  0  0  0  0
    4.0179   -2.2654   -4.0303 C   0  0  0  0  0  0  0  0  0  0  0  0
    4.1830   -0.9930   -3.2663 C   0  0  1  0  0  0  0  0  0  0  0  0
    3.0311   -0.3936   -2.7347 O   0  0  0  0  0  0  0  0  0  0  0  0
    3.7981   -1.2300   -1.8538 C   0  0  1  0  0  0  0  0  0  0  0  0
    4.6240   -0.7396   -0.6854 C   0  0  0  0  0  0  0  0  0  0  0  0
    4.6541   -1.9170    0.3100 C   0  0  2  0  0  0  0  0  0  0  0  0
    6.0169   -1.9401    1.0605 C   0  0  0  0  0  0  0  0  0  0  0  0
    3.3544   -1.7657    1.2337 C   0  0  2  0  0  0  0  0  0  0  0  0
    1.2455   -0.9983    2.9668 H   0  0  0  0  0  0  0  0  0  0  0  0
    1.8726    0.4866    2.2519 H   0  0  0  0  0  0  0  0  0  0  0  0
    2.1589    0.1266    3.9599 H   0  0  0  0  0  0  0  0  0  0  0  0
    4.1186    0.7537    2.2948 H   0  0  0  0  0  0  0  0  0  0  0  0
    4.7036   -2.5686    3.5003 H   0  0  0  0  0  0  0  0  0  0  0  0
    3.6869   -2.7312    5.3936 H   0  0  0  0  0  0  0  0  0  0  0  0
    1.5622   -2.8178    1.6885 H   0  0  0  0  0  0  0  0  0  0  0  0
    2.7264   -5.1954    1.5178 H   0  0  0  0  0  0  0  0  0  0  0  0
    2.0260   -4.4186    0.1131 H   0  0  0  0  0  0  0  0  0  0  0  0
    4.9494   -4.6132    0.8533 H   0  0  0  0  0  0  0  0  0  0  0  0
    4.1587   -5.2853   -0.5548 H   0  0  0  0  0  0  0  0  0  0  0  0
    6.2150   -2.5861   -1.9690 H   0  0  0  0  0  0  0  0  0  0  0  0
    5.6640   -4.2419   -2.1657 H   0  0  0  0  0  0  0  0  0  0  0  0
    6.6095   -3.8180   -0.7769 H   0  0  0  0  0  0  0  0  0  0  0  0
    2.4286   -2.6465   -1.1844 H   0  0  0  0  0  0  0  0  0  0  0  0
    3.7443   -4.2507   -3.1721 H   0  0  0  0  0  0  0  0  0  0  0  0
    2.2548   -3.2932   -3.3454 H   0  0  0  0  0  0  0  0  0  0  0  0
    5.0088   -2.6530   -4.2790 H   0  0  0  0  0  0  0  0  0  0  0  0
    3.4180   -2.0849   -4.9219 H   0  0  0  0  0  0  0  0  0  0  0  0
    5.0131   -0.3351   -3.4974 H   0  0  0  0  0  0  0  0  0  0  0  0
    5.6183   -0.4813   -1.0482 H   0  0  0  0  0  0  0  0  0  0  0  0
    4.1975    0.1436   -0.2448 H   0  0  0  0  0  0  0  0  0  0  0  0
    6.2409   -1.0354    1.5982 H   0  0  0  0  0  0  0  0  0  0  0  0
    6.8559   -1.9918    0.3811 H   0  0  0  0  0  0  0  0  0  0  0  0
    6.0967   -2.7721    1.7447 H   0  0  0  0  0  0  0  0  0  0  0  0
    2.6254   -1.2150    0.6330 H   0  0  0  0  0  0  0  0  0  0  0  0
  1  2  1  0
  1 22  1  0
  1 23  1  0
  1 24  1  0
  2 21  1  0
  2  3  1  6
  2  4  1  0
  3 25  1  0
  4  5  1  0
  4  6  1  0
  4 26  1  1
  5 27  1  0
  6  7  1  0
  7 21  1  0
  7  8  1  0
  7 28  1  1
  8  9  1  0
  8 29  1  0
  8 30  1  0
  9 10  1  0
  9 31  1  0
  9 32  1  0
 10 19  1  0
 10 11  1  6
 10 12  1  0
 11 33  1  0
 11 34  1  0
 11 35  1  0
 12 17  1  0
 12 13  1  0
 12 36  1  1
 13 14  1  0
 13 37  1  0
 13 38  1  0
 14 15  1  0
 14 39  1  0
 14 40  1  0
 15 17  1  0
 15 16  1  0
 15 41  1  1
 17 16  1  1
 17 18  1  0
 18 19  1  0
 18 42  1  0
 18 43  1  0
 19 20  1  1
 19 21  1  0
 20 44  1  0
 20 45  1  0
 20 46  1  0
 21 47  1  6
M  END
>  <i_m_ct_stereo_status>  (215) 
1

>  <s_m_source_file>  (215) 
/var/tmp/pbs.5076255.sched01/tmpbzpkhbzu/844yn2io63.sdf

>  <i_m_source_file_index>  (215) 
9

>  <i_lp_mmshare_version>  (215) 
48012

>  <i_f3d_flags>  (215) 
0

>  <s_epik_input>  (215) 
W0NIM11bQ0BAXTEoW09IXSlbQ0BASF0oW09IXSlPW0NASF0oW0NIMl1bQ0gyXTIpW0NAQEhdMVtDQEBdKFtDSDJdMykoW0NIM10pW0NAXTIoW0NIM10pW0NAQEhdKFtDQEBdMzQ1KVtDSDJdW0NIMl1bQ0BIXTRPNQ==

>  <s_epik_cmdline>  (215) 
J2VwaWtfcHl0aG9uJywgJy1waHQnLCAnMi4wJywgJy1waCcsICc3LjAnLCAnLXRuJywgJzgnLCAnLW1hJywgJzIwMCcsICctaW1hZScsICc8aW5maWxlLm1hZT4nLCAnLW9tYWUnLCAnPG91dGZpbGUubWFlPic=

>  <r_lp_tautomer_probability>  (215) 
1

>  <r_epik_Ionization_Penalty>  (215) 
1.18972e-07

>  <r_epik_Ionization_Penalty_Charging>  (215) 
0

>  <r_epik_Ionization_Penalty_Neutral>  (215) 
1.18972e-07

>  <r_epik_State_Penalty>  (215) 
-0

>  <r_epik_Charging_Adjusted_Penalty>  (215) 
0

>  <i_epik_Tot_Q>  (215) 
0

>  <i_epik_Tot_abs_Q>  (215) 
0

>  <s_epik_Chemistry_Notes>  (215) 
This compound contains an acetal/aminal-like group ( X-CH(R)-Y where X, Y are N, S, or O) that may be acid/base labile, releasing an aldehyde.

>  <s_lp_Force_Field>  (215) 
OPLS3e

>  <r_lp_Energy>  (215) 
49.664

>  <b_lp_Chiralities_Consistent>  (215) 
1

>  <s_lp_Variant>  (215) 
65:0-1

>  <s_i_glide_gridfile>  (215) 
pfpi4k_grid

>  <i_i_glide_lignum>  (215) 
9

>  <i_i_glide_rotatable_bonds>  (215) 
2

>  <r_i_docking_score>  (215) 
-2.8713

>  <r_i_glide_ligand_efficiency>  (215) 
-0.136729

>  <r_i_glide_ligand_efficiency_sa>  (215) 
-0.377224

>  <r_i_glide_ligand_efficiency_ln>  (215) 
-0.709924

>  <r_i_glide_gscore>  (215) 
-2.8713

>  <r_i_glide_lipo>  (215) 
-0.452463

>  <r_i_glide_hbond>  (215) 
0

>  <r_i_glide_metal>  (215) 
-0

>  <r_i_glide_rewards>  (215) 
-1.40197

>  <r_i_glide_evdw>  (215) 
-19.3258

>  <r_i_glide_ecoul>  (215) 
-0.337169

>  <r_i_glide_erotb>  (215) 
0

>  <r_i_glide_esite>  (215) 
0

>  <r_i_glide_emodel>  (215) 
-19.4953

>  <r_i_glide_energy>  (215) 
-19.663

>  <r_i_glide_einternal>  (215) 
0.365913

>  <r_i_glide_intrahb_reward>  (215) 
-0

>  <i_i_glide_confnum>  (215) 
2

>  <i_i_glide_posenum>  (215) 
3

>  <r_i_glide_eff_state_penalty>  (215) 
0

>  <ligand_id>  (215) 
65

>  <original_smiles>  (215) 
CC1(O)C(O)OC2CCC3(C)C4CCC5OC54CC3(C)C21

>  <smiles>  (215) 
[H]OC1([H])OC2([H])C([H])([H])C([H])([H])C3(C([H])([H])[H])C4([H])C([H])([H])C([H])([H])C5([H])OC54C([H])([H])C3(C([H])([H])[H])C2([H])C1(O[H])C([H])([H])[H]

$$$$
67:0:0
     RDKit          3D

 77 83  0  0  1  0  0  0  0  0999 V2000
    1.1452  -11.8071    5.1501 C   0  0  0  0  0  0  0  0  0  0  0  0
    1.2011  -11.1654    3.7925 C   0  0  2  0  0  0  0  0  0  0  0  0
    2.6231  -11.3993    3.1668 C   0  0  0  0  0  0  0  0  0  0  0  0
    2.8137  -10.1169    2.4278 C   0  0  1  0  0  0  0  0  0  0  0  0
    2.3030   -9.1216    3.4728 C   0  0  1  0  0  0  0  0  0  0  0  0
    2.9135   -8.0686    2.5521 C   0  0  1  0  0  0  0  0  0  0  0  0
    3.4336   -6.6791    2.8519 C   0  0  1  0  0  0  0  0  0  0  0  0
    4.1345   -6.4460    4.1899 C   0  0  0  0  0  0  0  0  0  0  0  0
    4.7613   -5.0710    3.9807 C   0  0  2  0  0  0  0  0  0  0  0  0
    5.7102   -4.6573    5.1203 C   0  0  0  0  0  0  0  0  0  0  0  0
    3.6534   -4.1690    4.1123 O   0  0  0  0  0  0  0  0  0  0  0  0
    3.5346   -3.0749    3.2997 C   0  0  0  0  0  0  0  0  0  0  0  0
    2.4524   -2.1531    3.5799 C   0  0  0  0  0  0  0  0  0  0  0  0
    2.2719   -1.0824    2.8034 C   0  0  0  0  0  0  0  0  0  0  0  0
    1.2096   -0.0866    3.0585 C   0  0  0  0  0  0  0  0  0  0  0  0
    0.8456    0.7627    2.0059 C   0  0  0  0  0  0  0  0  0  0  0  0
   -0.1803    1.7005    2.2270 C   0  0  0  0  0  0  0  0  0  0  0  0
   -0.7927    1.7597    3.4902 C   0  0  0  0  0  0  0  0  0  0  0  0
   -0.4599    0.9420    4.5090 N   0  0  0  0  0  0  0  0  0  0  0  0
    0.5219    0.0385    4.2955 C   0  0  0  0  0  0  0  0  0  0  0  0
    3.1398   -0.8077    1.7625 O   0  0  0  0  0  0  0  0  0  0  0  0
    4.2019   -1.6133    1.4395 C   0  0  0  0  0  0  0  0  0  0  0  0
    4.9691   -1.3590    0.5070 O   0  0  0  0  0  0  0  0  0  0  0  0
    4.3830   -2.8133    2.3048 C   0  0  0  0  0  0  0  0  0  0  0  0
    5.5486   -3.7392    1.9693 C   0  0  0  0  0  0  0  0  0  0  0  0
    5.3808   -5.1635    2.5490 C   0  0  1  0  0  0  0  0  0  0  0  0
    6.8350   -5.7191    2.6333 C   0  0  0  0  0  0  0  0  0  0  0  0
    4.3989   -6.1520    1.7410 C   0  0  2  0  0  0  0  0  0  0  0  0
    3.5087   -5.4201    0.6990 C   0  0  0  0  0  0  0  0  0  0  0  0
    5.1424   -7.3123    0.9435 C   0  0  0  0  0  0  0  0  0  0  0  0
    4.5139   -8.7352    0.8534 C   0  0  0  0  0  0  0  0  0  0  0  0
    3.9856   -9.1431    2.2084 C   0  0  2  0  0  0  0  0  0  0  0  0
    5.1990   -9.4587    3.0969 C   0  0  0  0  0  0  0  0  0  0  0  0
    0.9120   -9.6102    3.7929 C   0  0  0  0  0  0  0  0  0  0  0  0
   -0.1272   -9.2711    2.7302 C   0  0  0  0  0  0  0  0  0  0  0  0
    0.3900   -9.0142    5.1141 C   0  0  0  0  0  0  0  0  0  0  0  0
    1.9035  -11.3443    5.7848 H   0  0  0  0  0  0  0  0  0  0  0  0
    1.3793  -12.8643    5.0604 H   0  0  0  0  0  0  0  0  0  0  0  0
    0.1667  -11.7249    5.6322 H   0  0  0  0  0  0  0  0  0  0  0  0
    0.4699  -11.6797    3.1696 H   0  0  0  0  0  0  0  0  0  0  0  0
    3.3883  -11.5293    3.9337 H   0  0  0  0  0  0  0  0  0  0  0  0
    2.6662  -12.2820    2.5304 H   0  0  0  0  0  0  0  0  0  0  0  0
    2.2317  -10.1201    1.5104 H   0  0  0  0  0  0  0  0  0  0  0  0
    2.9050   -9.1365    4.3834 H   0  0  0  0  0  0  0  0  0  0  0  0
    2.2273   -7.9811    1.7070 H   0  0  0  0  0  0  0  0  0  0  0  0
    2.5609   -6.0272    2.8870 H   0  0  0  0  0  0  0  0  0  0  0  0
    3.4262   -6.4560    5.0167 H   0  0  0  0  0  0  0  0  0  0  0  0
    4.9009   -7.1894    4.3930 H   0  0  0  0  0  0  0  0  0  0  0  0
    6.5244   -5.3616    5.2928 H   0  0  0  0  0  0  0  0  0  0  0  0
    5.1485   -4.5840    6.0519 H   0  0  0  0  0  0  0  0  0  0  0  0
    6.1394   -3.6714    4.9362 H   0  0  0  0  0  0  0  0  0  0  0  0
    1.8183   -2.3827    4.4183 H   0  0  0  0  0  0  0  0  0  0  0  0
    1.3249    0.7020    1.0330 H   0  0  0  0  0  0  0  0  0  0  0  0
   -0.4850    2.3626    1.4316 H   0  0  0  0  0  0  0  0  0  0  0  0
   -1.5716    2.4868    3.6713 H   0  0  0  0  0  0  0  0  0  0  0  0
    0.7644   -0.5751    5.1392 H   0  0  0  0  0  0  0  0  0  0  0  0
    5.7662   -3.7544    0.8974 H   0  0  0  0  0  0  0  0  0  0  0  0
    6.4093   -3.2424    2.4178 H   0  0  0  0  0  0  0  0  0  0  0  0
    7.3078   -5.8172    1.6527 H   0  0  0  0  0  0  0  0  0  0  0  0
    6.8837   -6.6795    3.1410 H   0  0  0  0  0  0  0  0  0  0  0  0
    7.4994   -5.0679    3.1863 H   0  0  0  0  0  0  0  0  0  0  0  0
    4.0902   -4.9150   -0.0706 H   0  0  0  0  0  0  0  0  0  0  0  0
    2.8576   -4.6740    1.1473 H   0  0  0  0  0  0  0  0  0  0  0  0
    2.8525   -6.1167    0.1764 H   0  0  0  0  0  0  0  0  0  0  0  0
    5.2869   -6.9312   -0.0627 H   0  0  0  0  0  0  0  0  0  0  0  0
    6.1440   -7.5330    1.2724 H   0  0  0  0  0  0  0  0  0  0  0  0
    3.7322   -8.7594    0.1186 H   0  0  0  0  0  0  0  0  0  0  0  0
    5.2386   -9.4647    0.5024 H   0  0  0  0  0  0  0  0  0  0  0  0
    5.9443   -8.6608    3.1175 H   0  0  0  0  0  0  0  0  0  0  0  0
    5.7164  -10.3615    2.7524 H   0  0  0  0  0  0  0  0  0  0  0  0
    4.9269   -9.6446    4.1423 H   0  0  0  0  0  0  0  0  0  0  0  0
   -0.1784   -8.2027    2.5263 H   0  0  0  0  0  0  0  0  0  0  0  0
   -1.1253   -9.6369    2.9766 H   0  0  0  0  0  0  0  0  0  0  0  0
    0.1608   -9.7800    1.8249 H   0  0  0  0  0  0  0  0  0  0  0  0
    0.2569   -7.9387    5.0072 H   0  0  0  0  0  0  0  0  0  0  0  0
    1.0704   -9.1859    5.9436 H   0  0  0  0  0  0  0  0  0  0  0  0
   -0.5823   -9.4411    5.3727 H   0  0  0  0  0  0  0  0  0  0  0  0
  1  2  1  0
  1 37  1  0
  1 38  1  0
  1 39  1  0
  2 34  1  0
  2  3  1  0
  2 40  1  6
  3  4  1  0
  3 41  1  0
  3 42  1  0
  4 32  1  0
  4  5  1  0
  4 43  1  6
  5  6  1  0
  5 34  1  0
  5 44  1  1
  6 32  1  0
  6  7  1  0
  6 45  1  6
  7 28  1  0
  7  8  1  0
  7 46  1  1
  8  9  1  0
  8 47  1  0
  8 48  1  0
  9 26  1  0
  9 10  1  1
  9 11  1  0
 10 49  1  0
 10 50  1  0
 10 51  1  0
 11 12  1  0
 12 24  2  0
 12 13  1  0
 13 14  2  0
 13 52  1  0
 14 15  1  0
 14 21  1  0
 15 20  1  0
 15 16  2  0
 16 17  1  0
 16 53  1  0
 17 18  2  0
 17 54  1  0
 18 19  1  0
 18 55  1  0
 19 20  2  0
 20 56  1  0
 21 22  1  0
 22 23  2  0
 22 24  1  0
 24 25  1  0
 25 26  1  0
 25 57  1  0
 25 58  1  0
 26 27  1  1
 26 28  1  0
 27 59  1  0
 27 60  1  0
 27 61  1  0
 28 29  1  6
 28 30  1  0
 29 62  1  0
 29 63  1  0
 29 64  1  0
 30 31  1  0
 30 65  1  0
 30 66  1  0
 31 32  1  0
 31 67  1  0
 31 68  1  0
 32 33  1  1
 33 69  1  0
 33 70  1  0
 33 71  1  0
 34 35  1  0
 34 36  1  0
 35 72  1  0
 35 73  1  0
 35 74  1  0
 36 75  1  0
 36 76  1  0
 36 77  1  0
M  END
>  <i_m_ct_stereo_status>  (216) 
1

>  <s_m_source_file>  (216) 
/var/tmp/pbs.5076255.sched01/tmpbzpkhbzu/844yn2io63.sdf

>  <i_m_source_file_index>  (216) 
11

>  <i_lp_mmshare_version>  (216) 
48012

>  <i_f3d_flags>  (216) 
0

>  <s_epik_input>  (216) 
W0NIM11DMShbQ0gzXSlbQ0BIXShbQ0gzXSlbQ0gyXVtDQEhdKFtDQEBdMihbQ0gzXSlbQ0gyXVtDSDJdMylbQ0BIXTFbQ0BIXTJbQ0BASF0oW0NIMl00KVtDQEBdMyhbQ0gzXSlbQ0BdKFtDSDNdKShbQ0BdNDVbQ0gzXSlbQ0gyXWM2YyhPNSlbY0hdYyhvYzY9TyktYzdbY0hdW2NIXVtjSF1uW2NIXTc=

>  <s_epik_cmdline>  (216) 
J2VwaWtfcHl0aG9uJywgJy1waHQnLCAnMi4wJywgJy1waCcsICc3LjAnLCAnLXRuJywgJzgnLCAnLW1hJywgJzIwMCcsICctaW1hZScsICc8aW5maWxlLm1hZT4nLCAnLW9tYWUnLCAnPG91dGZpbGUubWFlPic=

>  <r_lp_tautomer_probability>  (216) 
1

>  <r_epik_Ionization_Penalty>  (216) 
0.00422793

>  <r_epik_Ionization_Penalty_Charging>  (216) 
0

>  <r_epik_Ionization_Penalty_Neutral>  (216) 
0.00422793

>  <r_epik_State_Penalty>  (216) 
0.00303862

>  <r_epik_Charging_Adjusted_Penalty>  (216) 
0.00303862

>  <i_epik_Tot_Q>  (216) 
0

>  <i_epik_Tot_abs_Q>  (216) 
0

>  <s_lp_Force_Field>  (216) 
OPLS3e

>  <r_lp_Energy>  (216) 
132.443

>  <b_lp_Chiralities_Consistent>  (216) 
1

>  <s_lp_Variant>  (216) 
67:0-1

>  <s_i_glide_gridfile>  (216) 
pfpi4k_grid

>  <i_i_glide_lignum>  (216) 
11

>  <i_i_glide_rotatable_bonds>  (216) 
1

>  <r_i_docking_score>  (216) 
-1.75256

>  <r_i_glide_ligand_efficiency>  (216) 
-0.0486821

>  <r_i_glide_ligand_efficiency_sa>  (216) 
-0.160745

>  <r_i_glide_ligand_efficiency_ln>  (216) 
-0.382361

>  <r_i_glide_gscore>  (216) 
-1.75256

>  <r_i_glide_lipo>  (216) 
-0.368975

>  <r_i_glide_hbond>  (216) 
0

>  <r_i_glide_metal>  (216) 
-0

>  <r_i_glide_rewards>  (216) 
-0.0840488

>  <r_i_glide_evdw>  (216) 
-24.4525

>  <r_i_glide_ecoul>  (216) 
-1.08262

>  <r_i_glide_erotb>  (216) 
0.0854874

>  <r_i_glide_esite>  (216) 
0

>  <r_i_glide_emodel>  (216) 
-28.008

>  <r_i_glide_energy>  (216) 
-25.5352

>  <r_i_glide_einternal>  (216) 
0.299745

>  <r_i_glide_intrahb_reward>  (216) 
-0

>  <i_i_glide_confnum>  (216) 
2

>  <i_i_glide_posenum>  (216) 
2

>  <r_i_glide_eff_state_penalty>  (216) 
0

>  <ligand_id>  (216) 
67

>  <original_smiles>  (216) 
CC1CC2C(C3C4CC5(C)Oc6cc(-c7cccnc7)oc(=O)c6CC5(C)C4(C)CCC23C)C1(C)C

>  <smiles>  (216) 
[H]c1nc([H])c(-c2oc(=O)c3c(c2[H])OC2(C([H])([H])[H])C([H])([H])C4([H])C5([H])C6([H])C([H])(C([H])([H])C([H])(C([H])([H])[H])C6(C([H])([H])[H])C([H])([H])[H])C5(C([H])([H])[H])C([H])([H])C([H])([H])C4(C([H])([H])[H])C2(C([H])([H])[H])C3([H])[H])c([H])c1[H]

$$$$
67:0:1
     RDKit          3D

 77 83  0  0  1  0  0  0  0  0999 V2000
    0.8447  -10.6541    4.3503 C   0  0  0  0  0  0  0  0  0  0  0  0
    0.8330   -9.7991    3.0725 C   0  0  2  0  0  0  0  0  0  0  0  0
    2.2796   -9.7286    2.4606 C   0  0  0  0  0  0  0  0  0  0  0  0
    2.2974   -8.3325    1.8954 C   0  0  1  0  0  0  0  0  0  0  0  0
    1.6342   -7.5761    3.0489 C   0  0  1  0  0  0  0  0  0  0  0  0
    2.1050   -6.3370    2.3046 C   0  0  1  0  0  0  0  0  0  0  0  0
    2.4250   -4.9364    2.8254 C   0  0  1  0  0  0  0  0  0  0  0  0
    3.0478   -4.8080    4.2097 C   0  0  0  0  0  0  0  0  0  0  0  0
    3.4818   -3.3454    4.2244 C   0  0  2  0  0  0  0  0  0  0  0  0
    4.3386   -2.9723    5.4497 C   0  0  0  0  0  0  0  0  0  0  0  0
    2.2531   -2.6363    4.4418 O   0  0  0  0  0  0  0  0  0  0  0  0
    1.9901   -1.4520    3.7979 C   0  0  0  0  0  0  0  0  0  0  0  0
    0.7962   -0.7490    4.1414 C   0  0  0  0  0  0  0  0  0  0  0  0
    0.4663    0.3932    3.4941 C   0  0  0  0  0  0  0  0  0  0  0  0
   -0.6898    1.2121    3.8303 C   0  0  0  0  0  0  0  0  0  0  0  0
   -1.3729    1.8320    2.7744 C   0  0  0  0  0  0  0  0  0  0  0  0
   -2.4626    2.6635    3.0761 C   0  0  0  0  0  0  0  0  0  0  0  0
   -2.8026    2.8469    4.4300 C   0  0  0  0  0  0  0  0  0  0  0  0
   -2.1656    2.2446    5.4610 N   0  0  0  0  0  0  0  0  0  0  0  0
   -1.1310    1.4340    5.1593 C   0  0  0  0  0  0  0  0  0  0  0  0
    1.3158    0.9183    2.5368 O   0  0  0  0  0  0  0  0  0  0  0  0
    2.4948    0.3119    2.1679 C   0  0  0  0  0  0  0  0  0  0  0  0
    3.2304    0.7782    1.3020 O   0  0  0  0  0  0  0  0  0  0  0  0
    2.8367   -0.9457    2.8694 C   0  0  0  0  0  0  0  0  0  0  0  0
    4.1158   -1.6385    2.4623 C   0  0  0  0  0  0  0  0  0  0  0  0
    4.1271   -3.1469    2.8127 C   0  0  1  0  0  0  0  0  0  0  0  0
    5.6329   -3.4962    2.8864 C   0  0  0  0  0  0  0  0  0  0  0  0
    3.3381   -4.1317    1.8378 C   0  0  2  0  0  0  0  0  0  0  0  0
    2.3929   -3.3768    0.8715 C   0  0  0  0  0  0  0  0  0  0  0  0
    4.2596   -5.0500    0.9053 C   0  0  0  0  0  0  0  0  0  0  0  0
    3.8102   -6.5038    0.5925 C   0  0  0  0  0  0  0  0  0  0  0  0
    3.3311   -7.1890    1.8653 C   0  0  2  0  0  0  0  0  0  0  0  0
    4.5524   -7.4591    2.7581 C   0  0  0  0  0  0  0  0  0  0  0  0
    0.3096   -8.3048    3.2277 C   0  0  0  0  0  0  0  0  0  0  0  0
   -0.7267   -7.9413    2.1410 C   0  0  0  0  0  0  0  0  0  0  0  0
   -0.3266   -7.9688    4.5901 C   0  0  0  0  0  0  0  0  0  0  0  0
    1.4769  -10.2238    5.1237 H   0  0  0  0  0  0  0  0  0  0  0  0
    1.2122  -11.6583    4.1481 H   0  0  0  0  0  0  0  0  0  0  0  0
   -0.1595  -10.7550    4.7620 H   0  0  0  0  0  0  0  0  0  0  0  0
    0.1893  -10.3044    2.3481 H   0  0  0  0  0  0  0  0  0  0  0  0
    3.0372   -9.8491    3.2314 H   0  0  0  0  0  0  0  0  0  0  0  0
    2.4714  -10.4922    1.7079 H   0  0  0  0  0  0  0  0  0  0  0  0
    1.7310   -8.2925    0.9754 H   0  0  0  0  0  0  0  0  0  0  0  0
    2.1950   -7.6412    3.9679 H   0  0  0  0  0  0  0  0  0  0  0  0
    1.4298   -6.2177    1.4631 H   0  0  0  0  0  0  0  0  0  0  0  0
    1.4679   -4.4206    2.9101 H   0  0  0  0  0  0  0  0  0  0  0  0
    2.3275   -5.0300    4.9994 H   0  0  0  0  0  0  0  0  0  0  0  0
    3.9071   -5.4618    4.3455 H   0  0  0  0  0  0  0  0  0  0  0  0
    5.2359   -3.5809    5.5559 H   0  0  0  0  0  0  0  0  0  0  0  0
    3.7510   -3.1065    6.3552 H   0  0  0  0  0  0  0  0  0  0  0  0
    4.6340   -1.9242    5.4175 H   0  0  0  0  0  0  0  0  0  0  0  0
    0.1762   -1.1462    4.9265 H   0  0  0  0  0  0  0  0  0  0  0  0
   -1.0739    1.6591    1.7430 H   0  0  0  0  0  0  0  0  0  0  0  0
   -3.0792    3.0760    2.2873 H   0  0  0  0  0  0  0  0  0  0  0  0
   -3.7264    3.3439    4.6933 H   0  0  0  0  0  0  0  0  0  0  0  0
   -0.6312    0.9767    5.9963 H   0  0  0  0  0  0  0  0  0  0  0  0
    4.3666   -1.4701    1.4096 H   0  0  0  0  0  0  0  0  0  0  0  0
    4.8989   -1.1063    3.0105 H   0  0  0  0  0  0  0  0  0  0  0  0
    6.1584   -3.3891    1.9281 H   0  0  0  0  0  0  0  0  0  0  0  0
    5.8172   -4.5048    3.2689 H   0  0  0  0  0  0  0  0  0  0  0  0
    6.1719   -2.8123    3.5607 H   0  0  0  0  0  0  0  0  0  0  0  0
    2.9093   -2.6895    0.2062 H   0  0  0  0  0  0  0  0  0  0  0  0
    1.6634   -2.7776    1.4127 H   0  0  0  0  0  0  0  0  0  0  0  0
    1.8458   -4.0717    0.2267 H   0  0  0  0  0  0  0  0  0  0  0  0
    4.3999   -4.5501   -0.0498 H   0  0  0  0  0  0  0  0  0  0  0  0
    5.2702   -5.1932    1.2666 H   0  0  0  0  0  0  0  0  0  0  0  0
    3.0110   -6.4238   -0.1314 H   0  0  0  0  0  0  0  0  0  0  0  0
    4.6024   -7.0678    0.1004 H   0  0  0  0  0  0  0  0  0  0  0  0
    5.1704   -6.5798    2.9229 H   0  0  0  0  0  0  0  0  0  0  0  0
    5.1978   -8.2241    2.3193 H   0  0  0  0  0  0  0  0  0  0  0  0
    4.2747   -7.8215    3.7471 H   0  0  0  0  0  0  0  0  0  0  0  0
   -0.9430   -6.8734    2.1410 H   0  0  0  0  0  0  0  0  0  0  0  0
   -1.6662   -8.4782    2.2896 H   0  0  0  0  0  0  0  0  0  0  0  0
   -0.3890   -8.1899    1.1395 H   0  0  0  0  0  0  0  0  0  0  0  0
   -0.6050   -6.9163    4.6354 H   0  0  0  0  0  0  0  0  0  0  0  0
    0.3526   -8.1615    5.4177 H   0  0  0  0  0  0  0  0  0  0  0  0
   -1.2309   -8.5563    4.7582 H   0  0  0  0  0  0  0  0  0  0  0  0
  1  2  1  0
  1 37  1  0
  1 38  1  0
  1 39  1  0
  2 34  1  0
  2  3  1  0
  2 40  1  6
  3  4  1  0
  3 41  1  0
  3 42  1  0
  4 32  1  0
  4  5  1  0
  4 43  1  6
  5  6  1  0
  5 34  1  0
  5 44  1  1
  6 32  1  0
  6  7  1  0
  6 45  1  6
  7 28  1  0
  7  8  1  0
  7 46  1  1
  8  9  1  0
  8 47  1  0
  8 48  1  0
  9 26  1  0
  9 10  1  1
  9 11  1  0
 10 49  1  0
 10 50  1  0
 10 51  1  0
 11 12  1  0
 12 24  2  0
 12 13  1  0
 13 14  2  0
 13 52  1  0
 14 15  1  0
 14 21  1  0
 15 20  1  0
 15 16  2  0
 16 17  1  0
 16 53  1  0
 17 18  2  0
 17 54  1  0
 18 19  1  0
 18 55  1  0
 19 20  2  0
 20 56  1  0
 21 22  1  0
 22 23  2  0
 22 24  1  0
 24 25  1  0
 25 26  1  0
 25 57  1  0
 25 58  1  0
 26 27  1  1
 26 28  1  0
 27 59  1  0
 27 60  1  0
 27 61  1  0
 28 29  1  6
 28 30  1  0
 29 62  1  0
 29 63  1  0
 29 64  1  0
 30 31  1  0
 30 65  1  0
 30 66  1  0
 31 32  1  0
 31 67  1  0
 31 68  1  0
 32 33  1  1
 33 69  1  0
 33 70  1  0
 33 71  1  0
 34 35  1  0
 34 36  1  0
 35 72  1  0
 35 73  1  0
 35 74  1  0
 36 75  1  0
 36 76  1  0
 36 77  1  0
M  END
>  <i_m_ct_stereo_status>  (217) 
1

>  <s_m_source_file>  (217) 
/var/tmp/pbs.5076255.sched01/tmpbzpkhbzu/844yn2io63.sdf

>  <i_m_source_file_index>  (217) 
11

>  <i_lp_mmshare_version>  (217) 
48012

>  <i_f3d_flags>  (217) 
0

>  <s_epik_input>  (217) 
W0NIM11DMShbQ0gzXSlbQ0BIXShbQ0gzXSlbQ0gyXVtDQEhdKFtDQEBdMihbQ0gzXSlbQ0gyXVtDSDJdMylbQ0BIXTFbQ0BIXTJbQ0BASF0oW0NIMl00KVtDQEBdMyhbQ0gzXSlbQ0BdKFtDSDNdKShbQ0BdNDVbQ0gzXSlbQ0gyXWM2YyhPNSlbY0hdYyhvYzY9TyktYzdbY0hdW2NIXVtjSF1uW2NIXTc=

>  <s_epik_cmdline>  (217) 
J2VwaWtfcHl0aG9uJywgJy1waHQnLCAnMi4wJywgJy1waCcsICc3LjAnLCAnLXRuJywgJzgnLCAnLW1hJywgJzIwMCcsICctaW1hZScsICc8aW5maWxlLm1hZT4nLCAnLW9tYWUnLCAnPG91dGZpbGUubWFlPic=

>  <r_lp_tautomer_probability>  (217) 
1

>  <r_epik_Ionization_Penalty>  (217) 
0.00422793

>  <r_epik_Ionization_Penalty_Charging>  (217) 
0

>  <r_epik_Ionization_Penalty_Neutral>  (217) 
0.00422793

>  <r_epik_State_Penalty>  (217) 
0.00303862

>  <r_epik_Charging_Adjusted_Penalty>  (217) 
0.00303862

>  <i_epik_Tot_Q>  (217) 
0

>  <i_epik_Tot_abs_Q>  (217) 
0

>  <s_lp_Force_Field>  (217) 
OPLS3e

>  <r_lp_Energy>  (217) 
132.443

>  <b_lp_Chiralities_Consistent>  (217) 
1

>  <s_lp_Variant>  (217) 
67:0-1

>  <s_i_glide_gridfile>  (217) 
pfpi4k_grid

>  <i_i_glide_lignum>  (217) 
11

>  <i_i_glide_rotatable_bonds>  (217) 
1

>  <r_i_docking_score>  (217) 
-1.59588

>  <r_i_glide_ligand_efficiency>  (217) 
-0.04433

>  <r_i_glide_ligand_efficiency_sa>  (217) 
-0.146374

>  <r_i_glide_ligand_efficiency_ln>  (217) 
-0.348178

>  <r_i_glide_gscore>  (217) 
-1.59588

>  <r_i_glide_lipo>  (217) 
-0.261007

>  <r_i_glide_hbond>  (217) 
0

>  <r_i_glide_metal>  (217) 
-0

>  <r_i_glide_rewards>  (217) 
-0.0840488

>  <r_i_glide_evdw>  (217) 
-24.7167

>  <r_i_glide_ecoul>  (217) 
-0.669848

>  <r_i_glide_erotb>  (217) 
0.0854874

>  <r_i_glide_esite>  (217) 
0

>  <r_i_glide_emodel>  (217) 
-26.7829

>  <r_i_glide_energy>  (217) 
-25.3865

>  <r_i_glide_einternal>  (217) 
1.56254

>  <r_i_glide_intrahb_reward>  (217) 
-0

>  <i_i_glide_confnum>  (217) 
4

>  <i_i_glide_posenum>  (217) 
20

>  <r_i_glide_eff_state_penalty>  (217) 
0

>  <ligand_id>  (217) 
67

>  <original_smiles>  (217) 
CC1CC2C(C3C4CC5(C)Oc6cc(-c7cccnc7)oc(=O)c6CC5(C)C4(C)CCC23C)C1(C)C

>  <smiles>  (217) 
[H]c1nc([H])c(-c2oc(=O)c3c(c2[H])OC2(C([H])([H])[H])C([H])([H])C4([H])C5([H])C6([H])C([H])(C([H])([H])C([H])(C([H])([H])[H])C6(C([H])([H])[H])C([H])([H])[H])C5(C([H])([H])[H])C([H])([H])C([H])([H])C4(C([H])([H])[H])C2(C([H])([H])[H])C3([H])[H])c([H])c1[H]

$$$$
67:0:2
     RDKit          3D

 77 83  0  0  1  0  0  0  0  0999 V2000
    0.3129  -10.8277    2.8612 C   0  0  0  0  0  0  0  0  0  0  0  0
    1.4842   -9.8605    3.0818 C   0  0  2  0  0  0  0  0  0  0  0  0
    2.1537  -10.1184    4.4803 C   0  0  0  0  0  0  0  0  0  0  0  0
    2.5504   -8.7229    4.8820 C   0  0  1  0  0  0  0  0  0  0  0  0
    1.2773   -7.9678    4.4862 C   0  0  1  0  0  0  0  0  0  0  0  0
    1.9023   -6.8213    5.2676 C   0  0  1  0  0  0  0  0  0  0  0  0
    1.2401   -5.6498    5.9744 C   0  0  1  0  0  0  0  0  0  0  0  0
   -0.1209   -5.8658    6.6384 C   0  0  0  0  0  0  0  0  0  0  0  0
   -0.2808   -4.5889    7.4575 C   0  0  2  0  0  0  0  0  0  0  0  0
   -1.4931   -4.6233    8.4069 C   0  0  0  0  0  0  0  0  0  0  0  0
   -0.6466   -3.6003    6.4791 O   0  0  0  0  0  0  0  0  0  0  0  0
   -0.1464   -2.3286    6.5595 C   0  0  0  0  0  0  0  0  0  0  0  0
   -0.6475   -1.3737    5.6074 C   0  0  0  0  0  0  0  0  0  0  0  0
   -0.2273   -0.0994    5.6596 C   0  0  0  0  0  0  0  0  0  0  0  0
   -0.6858    0.9282    4.7182 C   0  0  0  0  0  0  0  0  0  0  0  0
   -0.6182    0.7469    3.3209 C   0  0  0  0  0  0  0  0  0  0  0  0
   -1.0297    1.8072    2.4943 C   0  0  0  0  0  0  0  0  0  0  0  0
   -1.4970    2.9935    3.0975 C   0  0  0  0  0  0  0  0  0  0  0  0
   -1.5755    3.1736    4.4317 N   0  0  0  0  0  0  0  0  0  0  0  0
   -1.1668    2.1552    5.2181 C   0  0  0  0  0  0  0  0  0  0  0  0
    0.7202    0.2967    6.5823 O   0  0  0  0  0  0  0  0  0  0  0  0
    1.2676   -0.5631    7.5141 C   0  0  0  0  0  0  0  0  0  0  0  0
    2.1094   -0.1749    8.3221 O   0  0  0  0  0  0  0  0  0  0  0  0
    0.7594   -1.9597    7.4853 C   0  0  0  0  0  0  0  0  0  0  0  0
    1.3016   -2.9185    8.5247 C   0  0  0  0  0  0  0  0  0  0  0  0
    1.1249   -4.4085    8.1303 C   0  0  1  0  0  0  0  0  0  0  0  0
    1.1674   -5.1737    9.4885 C   0  0  0  0  0  0  0  0  0  0  0  0
    2.1709   -4.9988    7.0565 C   0  0  2  0  0  0  0  0  0  0  0  0
    2.9842   -3.8969    6.3217 C   0  0  0  0  0  0  0  0  0  0  0  0
    3.2647   -6.0053    7.6522 C   0  0  0  0  0  0  0  0  0  0  0  0
    3.7220   -7.2323    6.8057 C   0  0  0  0  0  0  0  0  0  0  0  0
    2.5083   -7.9167    6.1918 C   0  0  2  0  0  0  0  0  0  0  0  0
    1.7115   -8.6273    7.3110 C   0  0  0  0  0  0  0  0  0  0  0  0
    1.1217   -8.3145    3.0176 C   0  0  0  0  0  0  0  0  0  0  0  0
    2.1113   -7.5486    2.1004 C   0  0  0  0  0  0  0  0  0  0  0  0
   -0.3058   -7.9912    2.5236 C   0  0  0  0  0  0  0  0  0  0  0  0
   -0.4665  -10.6611    3.6067 H   0  0  0  0  0  0  0  0  0  0  0  0
    0.6418  -11.8657    2.9455 H   0  0  0  0  0  0  0  0  0  0  0  0
   -0.1354  -10.7150    1.8726 H   0  0  0  0  0  0  0  0  0  0  0  0
    2.2230  -10.0762    2.3084 H   0  0  0  0  0  0  0  0  0  0  0  0
    1.4429  -10.5511    5.1916 H   0  0  0  0  0  0  0  0  0  0  0  0
    2.9975  -10.8046    4.4154 H   0  0  0  0  0  0  0  0  0  0  0  0
    3.4431   -8.4186    4.3315 H   0  0  0  0  0  0  0  0  0  0  0  0
    0.3867   -8.3112    5.0215 H   0  0  0  0  0  0  0  0  0  0  0  0
    2.6856   -6.3953    4.6322 H   0  0  0  0  0  0  0  0  0  0  0  0
    1.0372   -4.9051    5.2019 H   0  0  0  0  0  0  0  0  0  0  0  0
   -0.9158   -5.9835    5.9033 H   0  0  0  0  0  0  0  0  0  0  0  0
   -0.1340   -6.7423    7.2785 H   0  0  0  0  0  0  0  0  0  0  0  0
   -1.4492   -5.4480    9.1020 H   0  0  0  0  0  0  0  0  0  0  0  0
   -2.4171   -4.7205    7.8328 H   0  0  0  0  0  0  0  0  0  0  0  0
   -1.5645   -3.7118    8.9997 H   0  0  0  0  0  0  0  0  0  0  0  0
   -1.3820   -1.6905    4.8819 H   0  0  0  0  0  0  0  0  0  0  0  0
   -0.2276   -0.1623    2.8894 H   0  0  0  0  0  0  0  0  0  0  0  0
   -0.9620    1.7355    1.4186 H   0  0  0  0  0  0  0  0  0  0  0  0
   -1.8163    3.8303    2.4949 H   0  0  0  0  0  0  0  0  0  0  0  0
   -1.2090    2.3275    6.2813 H   0  0  0  0  0  0  0  0  0  0  0  0
    2.3386   -2.6957    8.7904 H   0  0  0  0  0  0  0  0  0  0  0  0
    0.7309   -2.7018    9.4358 H   0  0  0  0  0  0  0  0  0  0  0  0
    2.1393   -5.0889    9.9812 H   0  0  0  0  0  0  0  0  0  0  0  0
    0.9342   -6.2296    9.3748 H   0  0  0  0  0  0  0  0  0  0  0  0
    0.4523   -4.7873   10.2160 H   0  0  0  0  0  0  0  0  0  0  0  0
    3.5912   -3.3014    7.0019 H   0  0  0  0  0  0  0  0  0  0  0  0
    2.3577   -3.2060    5.7632 H   0  0  0  0  0  0  0  0  0  0  0  0
    3.6698   -4.3289    5.5908 H   0  0  0  0  0  0  0  0  0  0  0  0
    4.1517   -5.4432    7.9363 H   0  0  0  0  0  0  0  0  0  0  0  0
    2.9677   -6.4709    8.5839 H   0  0  0  0  0  0  0  0  0  0  0  0
    4.4059   -6.9016    6.0279 H   0  0  0  0  0  0  0  0  0  0  0  0
    4.3016   -7.9254    7.4155 H   0  0  0  0  0  0  0  0  0  0  0  0
    1.4834   -7.9787    8.1552 H   0  0  0  0  0  0  0  0  0  0  0  0
    2.2735   -9.4803    7.7033 H   0  0  0  0  0  0  0  0  0  0  0  0
    0.7589   -9.0264    6.9626 H   0  0  0  0  0  0  0  0  0  0  0  0
    1.9742   -6.4708    2.1963 H   0  0  0  0  0  0  0  0  0  0  0  0
    1.9590   -7.8133    1.0532 H   0  0  0  0  0  0  0  0  0  0  0  0
    3.1552   -7.7629    2.3282 H   0  0  0  0  0  0  0  0  0  0  0  0
   -0.4883   -6.9190    2.5646 H   0  0  0  0  0  0  0  0  0  0  0  0
   -1.0666   -8.4703    3.1365 H   0  0  0  0  0  0  0  0  0  0  0  0
   -0.4562   -8.3055    1.4936 H   0  0  0  0  0  0  0  0  0  0  0  0
  1  2  1  0
  1 37  1  0
  1 38  1  0
  1 39  1  0
  2 34  1  0
  2  3  1  0
  2 40  1  6
  3  4  1  0
  3 41  1  0
  3 42  1  0
  4 32  1  0
  4  5  1  0
  4 43  1  6
  5  6  1  0
  5 34  1  0
  5 44  1  1
  6 32  1  0
  6  7  1  0
  6 45  1  6
  7 28  1  0
  7  8  1  0
  7 46  1  6
  8  9  1  0
  8 47  1  0
  8 48  1  0
  9 26  1  0
  9 10  1  1
  9 11  1  0
 10 49  1  0
 10 50  1  0
 10 51  1  0
 11 12  1  0
 12 24  2  0
 12 13  1  0
 13 14  2  0
 13 52  1  0
 14 15  1  0
 14 21  1  0
 15 20  1  0
 15 16  2  0
 16 17  1  0
 16 53  1  0
 17 18  2  0
 17 54  1  0
 18 19  1  0
 18 55  1  0
 19 20  2  0
 20 56  1  0
 21 22  1  0
 22 23  2  0
 22 24  1  0
 24 25  1  0
 25 26  1  0
 25 57  1  0
 25 58  1  0
 26 27  1  1
 26 28  1  0
 27 59  1  0
 27 60  1  0
 27 61  1  0
 28 29  1  6
 28 30  1  0
 29 62  1  0
 29 63  1  0
 29 64  1  0
 30 31  1  0
 30 65  1  0
 30 66  1  0
 31 32  1  0
 31 67  1  0
 31 68  1  0
 32 33  1  1
 33 69  1  0
 33 70  1  0
 33 71  1  0
 34 35  1  0
 34 36  1  0
 35 72  1  0
 35 73  1  0
 35 74  1  0
 36 75  1  0
 36 76  1  0
 36 77  1  0
M  END
>  <i_m_ct_stereo_status>  (218) 
1

>  <s_m_source_file>  (218) 
/var/tmp/pbs.5076255.sched01/tmpbzpkhbzu/844yn2io63.sdf

>  <i_m_source_file_index>  (218) 
11

>  <i_lp_mmshare_version>  (218) 
48012

>  <i_f3d_flags>  (218) 
0

>  <s_epik_input>  (218) 
W0NIM11DMShbQ0gzXSlbQ0BIXShbQ0gzXSlbQ0gyXVtDQEhdKFtDQEBdMihbQ0gzXSlbQ0gyXVtDSDJdMylbQ0BIXTFbQ0BIXTJbQ0BASF0oW0NIMl00KVtDQEBdMyhbQ0gzXSlbQ0BdKFtDSDNdKShbQ0BdNDVbQ0gzXSlbQ0gyXWM2YyhPNSlbY0hdYyhvYzY9TyktYzdbY0hdW2NIXVtjSF1uW2NIXTc=

>  <s_epik_cmdline>  (218) 
J2VwaWtfcHl0aG9uJywgJy1waHQnLCAnMi4wJywgJy1waCcsICc3LjAnLCAnLXRuJywgJzgnLCAnLW1hJywgJzIwMCcsICctaW1hZScsICc8aW5maWxlLm1hZT4nLCAnLW9tYWUnLCAnPG91dGZpbGUubWFlPic=

>  <r_lp_tautomer_probability>  (218) 
1

>  <r_epik_Ionization_Penalty>  (218) 
0.00422793

>  <r_epik_Ionization_Penalty_Charging>  (218) 
0

>  <r_epik_Ionization_Penalty_Neutral>  (218) 
0.00422793

>  <r_epik_State_Penalty>  (218) 
0.00303862

>  <r_epik_Charging_Adjusted_Penalty>  (218) 
0.00303862

>  <i_epik_Tot_Q>  (218) 
0

>  <i_epik_Tot_abs_Q>  (218) 
0

>  <s_lp_Force_Field>  (218) 
OPLS3e

>  <r_lp_Energy>  (218) 
132.443

>  <b_lp_Chiralities_Consistent>  (218) 
1

>  <s_lp_Variant>  (218) 
67:0-1

>  <s_i_glide_gridfile>  (218) 
pfpi4k_grid

>  <i_i_glide_lignum>  (218) 
11

>  <i_i_glide_rotatable_bonds>  (218) 
1

>  <r_i_docking_score>  (218) 
-1.57605

>  <r_i_glide_ligand_efficiency>  (218) 
-0.0437793

>  <r_i_glide_ligand_efficiency_sa>  (218) 
-0.144556

>  <r_i_glide_ligand_efficiency_ln>  (218) 
-0.343852

>  <r_i_glide_gscore>  (218) 
-1.57605

>  <r_i_glide_lipo>  (218) 
-0.118882

>  <r_i_glide_hbond>  (218) 
0

>  <r_i_glide_metal>  (218) 
-0

>  <r_i_glide_rewards>  (218) 
-0.0840488

>  <r_i_glide_evdw>  (218) 
-25.5939

>  <r_i_glide_ecoul>  (218) 
-1.19276

>  <r_i_glide_erotb>  (218) 
0.0854874

>  <r_i_glide_esite>  (218) 
0

>  <r_i_glide_emodel>  (218) 
-27.6803

>  <r_i_glide_energy>  (218) 
-26.7867

>  <r_i_glide_einternal>  (218) 
2.88068

>  <r_i_glide_intrahb_reward>  (218) 
-0

>  <i_i_glide_confnum>  (218) 
1

>  <i_i_glide_posenum>  (218) 
1

>  <r_i_glide_eff_state_penalty>  (218) 
0

>  <ligand_id>  (218) 
67

>  <original_smiles>  (218) 
CC1CC2C(C3C4CC5(C)Oc6cc(-c7cccnc7)oc(=O)c6CC5(C)C4(C)CCC23C)C1(C)C

>  <smiles>  (218) 
[H]c1nc([H])c(-c2oc(=O)c3c(c2[H])OC2(C([H])([H])[H])C([H])([H])C4([H])C5([H])C6([H])C([H])(C([H])([H])C([H])(C([H])([H])[H])C6(C([H])([H])[H])C([H])([H])[H])C5(C([H])([H])[H])C([H])([H])C([H])([H])C4(C([H])([H])[H])C2(C([H])([H])[H])C3([H])[H])c([H])c1[H]

$$$$
68:0:0
     RDKit          3D

 75 80  0  0  1  0  0  0  0  0999 V2000
   -0.6111   -5.5805    5.6153 C   0  0  0  0  0  0  0  0  0  0  0  0
   -0.5178   -4.2354    6.0827 O   0  0  0  0  0  0  0  0  0  0  0  0
    0.6966   -3.6333    5.8705 C   0  0  0  0  0  0  0  0  0  0  0  0
    1.7558   -4.1437    5.2442 C   0  0  0  0  0  0  0  0  0  0  0  0
    2.8881   -3.1832    5.2830 C   0  0  1  0  0  0  0  0  0  0  0  0
    3.6398   -3.2203    4.0871 O   0  0  0  0  0  0  0  0  0  0  0  0
    2.2139   -1.8058    5.6187 C   0  0  1  0  0  0  0  0  0  0  0  0
    1.8618   -1.1901    4.3546 O   0  0  0  0  0  0  0  0  0  0  0  0
    2.4380    0.1227    4.2289 C   0  0  0  0  0  0  0  0  0  0  0  0
    2.4340    0.6148    5.6808 C   0  0  2  0  0  0  0  0  0  0  0  0
    0.9147    1.0872    6.0490 C   0  0  1  0  0  0  0  0  0  0  0  0
    0.2386    2.2216    5.1907 C   0  0  1  0  0  0  0  0  0  0  0  0
   -0.3591    2.0482    3.7479 C   0  0  1  0  0  0  0  0  0  0  0  0
   -0.9093    0.6776    3.3136 C   0  0  0  0  0  0  0  0  0  0  0  0
   -1.3934    3.2022    3.6039 C   0  0  1  0  0  0  0  0  0  0  0  0
   -2.7984    2.8444    3.0827 C   0  0  0  0  0  0  0  0  0  0  0  0
   -1.4699    3.8836    4.9795 C   0  0  0  0  0  0  0  0  0  0  0  0
   -0.8460    2.9218    6.0006 C   0  0  2  0  0  0  0  0  0  0  0  0
   -0.3586    3.6877    7.0808 O   0  0  0  0  0  0  0  0  0  0  0  0
   -1.8445    1.9101    6.5523 C   0  0  0  0  0  0  0  0  0  0  0  0
   -2.9287    2.2857    7.0044 O   0  0  0  0  0  0  0  0  0  0  0  0
   -1.5260    0.5869    6.4299 O   0  0  0  0  0  0  0  0  0  0  0  0
   -0.2108    0.1098    6.6438 C   0  0  2  0  0  0  0  0  0  0  0  0
   -0.0474   -0.0009    8.0411 O   0  0  0  0  0  0  0  0  0  0  0  0
   -0.2952   -1.3254    6.0669 C   0  0  0  0  0  0  0  0  0  0  0  0
    0.9137   -2.2113    6.3604 C   0  0  1  0  0  0  0  0  0  0  0  0
    3.5043    1.6864    6.2324 C   0  0  0  0  0  0  0  0  0  0  0  0
    4.8145    1.7930    5.3869 C   0  0  0  0  0  0  0  0  0  0  0  0
    3.1059    3.1937    6.2875 C   0  0  0  0  0  0  0  0  0  0  0  0
    3.8121    1.1152    7.6755 C   0  0  1  0  0  0  0  0  0  0  0  0
    3.3281    1.9483    8.8835 C   0  0  0  0  0  0  0  0  0  0  0  0
    3.2291   -0.3234    7.7467 C   0  0  0  0  0  0  0  0  0  0  0  0
    3.0598   -0.6862    6.2708 C   0  0  1  0  0  0  0  0  0  0  0  0
    4.3733   -0.9452    5.7274 O   0  0  0  0  0  0  0  0  0  0  0  0
    5.3824   -1.6633    6.4398 C   0  0  0  0  0  0  0  0  0  0  0  0
   -1.6143   -5.9639    5.7828 H   0  0  0  0  0  0  0  0  0  0  0  0
    0.0900   -6.2338    6.1356 H   0  0  0  0  0  0  0  0  0  0  0  0
   -0.4292   -5.6470    4.5423 H   0  0  0  0  0  0  0  0  0  0  0  0
    1.8644   -5.1193    4.7969 H   0  0  0  0  0  0  0  0  0  0  0  0
    3.4701   -3.5766    6.1140 H   0  0  0  0  0  0  0  0  0  0  0  0
    3.1473   -2.7623    3.4207 H   0  0  0  0  0  0  0  0  0  0  0  0
    3.4361    0.0238    3.8069 H   0  0  0  0  0  0  0  0  0  0  0  0
    1.9028    0.7591    3.5354 H   0  0  0  0  0  0  0  0  0  0  0  0
    1.1282    1.6368    6.9553 H   0  0  0  0  0  0  0  0  0  0  0  0
    0.9756    2.9957    5.0287 H   0  0  0  0  0  0  0  0  0  0  0  0
    0.4414    2.2806    3.0450 H   0  0  0  0  0  0  0  0  0  0  0  0
   -1.7509    0.3408    3.9190 H   0  0  0  0  0  0  0  0  0  0  0  0
   -0.1382   -0.0856    3.3229 H   0  0  0  0  0  0  0  0  0  0  0  0
   -1.2502    0.7195    2.2801 H   0  0  0  0  0  0  0  0  0  0  0  0
   -0.9836    3.9288    2.8971 H   0  0  0  0  0  0  0  0  0  0  0  0
   -3.3048    2.1505    3.7442 H   0  0  0  0  0  0  0  0  0  0  0  0
   -2.7557    2.4045    2.0872 H   0  0  0  0  0  0  0  0  0  0  0  0
   -3.4232    3.7354    3.0073 H   0  0  0  0  0  0  0  0  0  0  0  0
   -0.8741    4.7904    4.9463 H   0  0  0  0  0  0  0  0  0  0  0  0
   -2.4887    4.1714    5.2414 H   0  0  0  0  0  0  0  0  0  0  0  0
   -1.1005    4.1092    7.4918 H   0  0  0  0  0  0  0  0  0  0  0  0
    0.1182    0.8652    8.3875 H   0  0  0  0  0  0  0  0  0  0  0  0
   -1.1633   -1.8130    6.5141 H   0  0  0  0  0  0  0  0  0  0  0  0
   -0.5161   -1.3245    5.0052 H   0  0  0  0  0  0  0  0  0  0  0  0
    1.0940   -2.2831    7.4320 H   0  0  0  0  0  0  0  0  0  0  0  0
    5.4247    2.6367    5.7079 H   0  0  0  0  0  0  0  0  0  0  0  0
    4.5875    1.9604    4.3349 H   0  0  0  0  0  0  0  0  0  0  0  0
    5.5038    0.9581    5.4450 H   0  0  0  0  0  0  0  0  0  0  0  0
    3.8925    3.7864    6.7568 H   0  0  0  0  0  0  0  0  0  0  0  0
    2.2161    3.4223    6.8676 H   0  0  0  0  0  0  0  0  0  0  0  0
    2.9869    3.6127    5.2873 H   0  0  0  0  0  0  0  0  0  0  0  0
    4.8944    1.0364    7.7752 H   0  0  0  0  0  0  0  0  0  0  0  0
    2.2486    2.1036    8.8750 H   0  0  0  0  0  0  0  0  0  0  0  0
    3.8050    2.9276    8.9207 H   0  0  0  0  0  0  0  0  0  0  0  0
    3.5699    1.4451    9.8212 H   0  0  0  0  0  0  0  0  0  0  0  0
    3.8536   -1.0000    8.3245 H   0  0  0  0  0  0  0  0  0  0  0  0
    2.2850   -0.3187    8.2658 H   0  0  0  0  0  0  0  0  0  0  0  0
    6.1300   -1.9875    5.7160 H   0  0  0  0  0  0  0  0  0  0  0  0
    5.0232   -2.5498    6.9555 H   0  0  0  0  0  0  0  0  0  0  0  0
    5.8908   -1.0328    7.1683 H   0  0  0  0  0  0  0  0  0  0  0  0
  1  2  1  0
  1 36  1  0
  1 37  1  0
  1 38  1  0
  2  3  1  0
  3 26  1  0
  3  4  2  0
  4  5  1  0
  4 39  1  0
  5  6  1  0
  5  7  1  0
  5 40  1  1
  6 41  1  0
  7 26  1  0
  7 33  1  0
  7  8  1  6
  8  9  1  0
 10  9  1  6
  9 42  1  0
  9 43  1  0
 10 33  1  0
 10 11  1  0
 10 27  1  0
 11 23  1  0
 11 12  1  0
 11 44  1  1
 12 18  1  0
 12 13  1  0
 12 45  1  6
 13 14  1  0
 13 15  1  0
 13 46  1  6
 14 47  1  0
 14 48  1  0
 14 49  1  0
 15 16  1  0
 15 17  1  0
 15 50  1  6
 16 51  1  0
 16 52  1  0
 16 53  1  0
 17 18  1  0
 17 54  1  0
 17 55  1  0
 18 19  1  1
 18 20  1  0
 19 56  1  0
 20 21  2  0
 20 22  1  0
 22 23  1  0
 23 24  1  1
 23 25  1  0
 24 57  1  0
 25 26  1  0
 25 58  1  0
 25 59  1  0
 26 60  1  1
 27 28  1  0
 27 29  1  0
 27 30  1  0
 28 61  1  0
 28 62  1  0
 28 63  1  0
 29 64  1  0
 29 65  1  0
 29 66  1  0
 30 31  1  0
 30 32  1  0
 30 67  1  1
 31 68  1  0
 31 69  1  0
 31 70  1  0
 32 33  1  0
 32 71  1  0
 32 72  1  0
 33 34  1  6
 34 35  1  0
 35 73  1  0
 35 74  1  0
 35 75  1  0
M  END
>  <i_m_ct_stereo_status>  (219) 
1

>  <s_m_source_file>  (219) 
/var/tmp/pbs.5076255.sched01/tmpbzpkhbzu/844yn2io63.sdf

>  <i_m_source_file_index>  (219) 
12

>  <i_lp_mmshare_version>  (219) 
48012

>  <i_f3d_flags>  (219) 
0

>  <s_epik_input>  (219) 
W09IXVtDQEBIXTFbQ0hdPUMoT1tDSDNdKVtDQEBIXShbQ0BAXTEyMylbQ0gyXVtDQEBdNChbT0hdKVtDQEBIXShbQ0BdNShbQ0gyXU8yKVtDQEBdMyhPW0NIM10pW0NIMl1bQ0BIXShbQ0gzXSlDNShbQ0gzXSlbQ0gzXSlbQ0BASF02W0NAXShbT0hdKShDKD1PKU80KVtDSDJdW0NASF0oW0NIM10pW0NAQEhdNltDSDNd

>  <s_epik_cmdline>  (219) 
J2VwaWtfcHl0aG9uJywgJy1waHQnLCAnMi4wJywgJy1waCcsICc3LjAnLCAnLXRuJywgJzgnLCAnLW1hJywgJzIwMCcsICctaW1hZScsICc8aW5maWxlLm1hZT4nLCAnLW9tYWUnLCAnPG91dGZpbGUubWFlPic=

>  <r_lp_tautomer_probability>  (219) 
1

>  <r_epik_Ionization_Penalty>  (219) 
3.39053e-05

>  <r_epik_Ionization_Penalty_Charging>  (219) 
0

>  <r_epik_Ionization_Penalty_Neutral>  (219) 
3.39053e-05

>  <r_epik_State_Penalty>  (219) 
-0

>  <r_epik_Charging_Adjusted_Penalty>  (219) 
0

>  <i_epik_Tot_Q>  (219) 
0

>  <i_epik_Tot_abs_Q>  (219) 
0

>  <s_epik_Chemistry_Notes>  (219) 
This compound has an ester and may undergo hydrolysis at high or low pH.

>  <s_lp_Force_Field>  (219) 
OPLS3e

>  <r_lp_Energy>  (219) 
116.49

>  <b_lp_Chiralities_Consistent>  (219) 
1

>  <s_lp_Variant>  (219) 
68:0-1

>  <s_i_glide_gridfile>  (219) 
pfpi4k_grid

>  <i_i_glide_lignum>  (219) 
12

>  <i_i_glide_rotatable_bonds>  (219) 
5

>  <r_i_docking_score>  (219) 
-1.55155

>  <r_i_glide_ligand_efficiency>  (219) 
-0.04433

>  <r_i_glide_ligand_efficiency_sa>  (219) 
-0.145006

>  <r_i_glide_ligand_efficiency_ln>  (219) 
-0.3406

>  <r_i_glide_gscore>  (219) 
-1.55155

>  <r_i_glide_lipo>  (219) 
-0.0111171

>  <r_i_glide_hbond>  (219) 
-0.123513

>  <r_i_glide_metal>  (219) 
-0

>  <r_i_glide_rewards>  (219) 
-0.050443

>  <r_i_glide_evdw>  (219) 
-20.0841

>  <r_i_glide_ecoul>  (219) 
-2.05394

>  <r_i_glide_erotb>  (219) 
0

>  <r_i_glide_esite>  (219) 
-0.0541809

>  <r_i_glide_emodel>  (219) 
-23.1252

>  <r_i_glide_energy>  (219) 
-22.1381

>  <r_i_glide_einternal>  (219) 
1.86076

>  <r_i_glide_intrahb_reward>  (219) 
-0

>  <i_i_glide_confnum>  (219) 
1

>  <i_i_glide_posenum>  (219) 
35

>  <r_i_glide_eff_state_penalty>  (219) 
0

>  <ligand_id>  (219) 
68

>  <original_smiles>  (219) 
COC1=CC(O)C23OCC4(C5C6C(C)C(C)CC6(O)C(=O)OC5(O)CC12)C(C)(C)C(C)CC34OC

>  <smiles>  (219) 
[H]OC1([H])C([H])=C(OC([H])([H])[H])C2([H])C([H])([H])C3(O[H])OC(=O)C4(O[H])C([H])([H])C([H])(C([H])([H])[H])C([H])(C([H])([H])[H])C4([H])C3([H])C34C([H])([H])OC12C3(OC([H])([H])[H])C([H])([H])C([H])(C([H])([H])[H])C4(C([H])([H])[H])C([H])([H])[H]

$$$$
68:0:1
     RDKit          3D

 75 80  0  0  1  0  0  0  0  0999 V2000
   -0.7049   -5.4662    5.8893 C   0  0  0  0  0  0  0  0  0  0  0  0
   -0.5920   -4.1045    6.2998 O   0  0  0  0  0  0  0  0  0  0  0  0
    0.6275   -3.5212    6.0565 C   0  0  0  0  0  0  0  0  0  0  0  0
    1.6790   -4.0599    5.4408 C   0  0  0  0  0  0  0  0  0  0  0  0
    2.8202   -3.1088    5.4661 C   0  0  1  0  0  0  0  0  0  0  0  0
    3.6120   -3.1835    4.2993 O   0  0  0  0  0  0  0  0  0  0  0  0
    2.1632   -1.7157    5.7529 C   0  0  1  0  0  0  0  0  0  0  0  0
    1.8114   -1.1275    4.4761 O   0  0  0  0  0  0  0  0  0  0  0  0
    2.4154    0.1665    4.3022 C   0  0  0  0  0  0  0  0  0  0  0  0
    2.4180    0.7010    5.7376 C   0  0  2  0  0  0  0  0  0  0  0  0
    0.9024    1.1994    6.0856 C   0  0  1  0  0  0  0  0  0  0  0  0
    0.2390    2.3118    5.1905 C   0  0  1  0  0  0  0  0  0  0  0  0
   -0.3579    2.1012    3.7551 C   0  0  1  0  0  0  0  0  0  0  0  0
   -0.9209    0.7233    3.3614 C   0  0  0  0  0  0  0  0  0  0  0  0
   -1.3823    3.2583    3.5787 C   0  0  1  0  0  0  0  0  0  0  0  0
   -2.7889    2.8986    3.0609 C   0  0  0  0  0  0  0  0  0  0  0  0
   -1.4467    3.9907    4.9256 C   0  0  0  0  0  0  0  0  0  0  0  0
   -0.8355    3.0504    5.9768 C   0  0  2  0  0  0  0  0  0  0  0  0
   -0.3323    3.8338    7.0393 O   0  0  0  0  0  0  0  0  0  0  0  0
   -1.8617    2.0698    6.5532 C   0  0  0  0  0  0  0  0  0  0  0  0
   -2.9510    2.4637    6.9534 O   0  0  0  0  0  0  0  0  0  0  0  0
   -1.5475    0.7419    6.4740 O   0  0  0  0  0  0  0  0  0  0  0  0
   -0.2379    0.2561    6.7061 C   0  0  2  0  0  0  0  0  0  0  0  0
   -0.0786    0.1856    8.1058 O   0  0  0  0  0  0  0  0  0  0  0  0
   -0.3350   -1.1956    6.1752 C   0  0  0  0  0  0  0  0  0  0  0  0
    0.8609   -2.0879    6.5047 C   0  0  1  0  0  0  0  0  0  0  0  0
    3.4968    1.7776    6.2579 C   0  0  0  0  0  0  0  0  0  0  0  0
    4.8089    1.8394    5.4133 C   0  0  0  0  0  0  0  0  0  0  0  0
    3.1159    3.2894    6.2627 C   0  0  0  0  0  0  0  0  0  0  0  0
    3.7946    1.2491    7.7176 C   0  0  1  0  0  0  0  0  0  0  0  0
    3.3149    2.1254    8.8964 C   0  0  0  0  0  0  0  0  0  0  0  0
    3.1961   -0.1798    7.8316 C   0  0  0  0  0  0  0  0  0  0  0  0
    3.0261   -0.5902    6.3662 C   0  0  1  0  0  0  0  0  0  0  0  0
    4.3364   -0.8933    5.8300 O   0  0  0  0  0  0  0  0  0  0  0  0
    5.3374   -1.5899    6.5776 C   0  0  0  0  0  0  0  0  0  0  0  0
   -1.7084   -5.8415    6.0796 H   0  0  0  0  0  0  0  0  0  0  0  0
   -0.0072   -6.0995    6.4354 H   0  0  0  0  0  0  0  0  0  0  0  0
   -0.5204   -5.5832    4.8204 H   0  0  0  0  0  0  0  0  0  0  0  0
    1.7818   -5.0510    5.0267 H   0  0  0  0  0  0  0  0  0  0  0  0
    3.3863   -3.4813    6.3159 H   0  0  0  0  0  0  0  0  0  0  0  0
    4.3107   -2.5485    4.3906 H   0  0  0  0  0  0  0  0  0  0  0  0
    3.4118    0.0358    3.8867 H   0  0  0  0  0  0  0  0  0  0  0  0
    1.8894    0.7868    3.5881 H   0  0  0  0  0  0  0  0  0  0  0  0
    1.1207    1.7746    6.9756 H   0  0  0  0  0  0  0  0  0  0  0  0
    0.9899    3.0690    4.9975 H   0  0  0  0  0  0  0  0  0  0  0  0
    0.4416    2.3026    3.0437 H   0  0  0  0  0  0  0  0  0  0  0  0
   -1.7671    0.4136    3.9747 H   0  0  0  0  0  0  0  0  0  0  0  0
   -0.1601   -0.0482    3.3946 H   0  0  0  0  0  0  0  0  0  0  0  0
   -1.2619    0.7335    2.3269 H   0  0  0  0  0  0  0  0  0  0  0  0
   -0.9686    3.9626    2.8567 H   0  0  0  0  0  0  0  0  0  0  0  0
   -3.3088    2.2291    3.7447 H   0  0  0  0  0  0  0  0  0  0  0  0
   -2.7472    2.4243    2.0795 H   0  0  0  0  0  0  0  0  0  0  0  0
   -3.4035    3.7911    2.9495 H   0  0  0  0  0  0  0  0  0  0  0  0
   -0.8379    4.8909    4.8551 H   0  0  0  0  0  0  0  0  0  0  0  0
   -2.4574    4.3091    5.1703 H   0  0  0  0  0  0  0  0  0  0  0  0
    0.2937    4.4575    6.6963 H   0  0  0  0  0  0  0  0  0  0  0  0
    0.0683    1.0619    8.4301 H   0  0  0  0  0  0  0  0  0  0  0  0
   -1.2079   -1.6611    6.6349 H   0  0  0  0  0  0  0  0  0  0  0  0
   -0.5559   -1.2258    5.1132 H   0  0  0  0  0  0  0  0  0  0  0  0
    1.0373   -2.1245    7.5782 H   0  0  0  0  0  0  0  0  0  0  0  0
    5.4297    2.6867    5.7065 H   0  0  0  0  0  0  0  0  0  0  0  0
    4.5872    1.9772    4.3556 H   0  0  0  0  0  0  0  0  0  0  0  0
    5.4842    0.9960    5.5031 H   0  0  0  0  0  0  0  0  0  0  0  0
    3.9074    3.8886    6.7151 H   0  0  0  0  0  0  0  0  0  0  0  0
    2.2299    3.5443    6.8344 H   0  0  0  0  0  0  0  0  0  0  0  0
    3.0040    3.6782    5.2490 H   0  0  0  0  0  0  0  0  0  0  0  0
    4.8740    1.1611    7.8252 H   0  0  0  0  0  0  0  0  0  0  0  0
    2.2372    2.2953    8.8807 H   0  0  0  0  0  0  0  0  0  0  0  0
    3.8063    3.0994    8.9071 H   0  0  0  0  0  0  0  0  0  0  0  0
    3.5460    1.6499    9.8524 H   0  0  0  0  0  0  0  0  0  0  0  0
    3.8110   -0.8458    8.4328 H   0  0  0  0  0  0  0  0  0  0  0  0
    2.2500   -0.1465    8.3453 H   0  0  0  0  0  0  0  0  0  0  0  0
    6.0890   -1.9446    5.8719 H   0  0  0  0  0  0  0  0  0  0  0  0
    4.9681   -2.4566    7.1214 H   0  0  0  0  0  0  0  0  0  0  0  0
    5.8449   -0.9378    7.2881 H   0  0  0  0  0  0  0  0  0  0  0  0
  1  2  1  0
  1 36  1  0
  1 37  1  0
  1 38  1  0
  2  3  1  0
  3 26  1  0
  3  4  2  0
  4  5  1  0
  4 39  1  0
  5  6  1  0
  5  7  1  0
  5 40  1  1
  6 41  1  0
  7 26  1  0
  7 33  1  0
  7  8  1  6
  8  9  1  0
 10  9  1  6
  9 42  1  0
  9 43  1  0
 10 33  1  0
 10 11  1  0
 10 27  1  0
 11 23  1  0
 11 12  1  0
 11 44  1  1
 12 18  1  0
 12 13  1  0
 12 45  1  6
 13 14  1  0
 13 15  1  0
 13 46  1  6
 14 47  1  0
 14 48  1  0
 14 49  1  0
 15 16  1  0
 15 17  1  0
 15 50  1  6
 16 51  1  0
 16 52  1  0
 16 53  1  0
 17 18  1  0
 17 54  1  0
 17 55  1  0
 18 19  1  1
 18 20  1  0
 19 56  1  0
 20 21  2  0
 20 22  1  0
 22 23  1  0
 23 24  1  1
 23 25  1  0
 24 57  1  0
 25 26  1  0
 25 58  1  0
 25 59  1  0
 26 60  1  1
 27 28  1  0
 27 29  1  0
 27 30  1  0
 28 61  1  0
 28 62  1  0
 28 63  1  0
 29 64  1  0
 29 65  1  0
 29 66  1  0
 30 31  1  0
 30 32  1  0
 30 67  1  6
 31 68  1  0
 31 69  1  0
 31 70  1  0
 32 33  1  0
 32 71  1  0
 32 72  1  0
 33 34  1  6
 34 35  1  0
 35 73  1  0
 35 74  1  0
 35 75  1  0
M  END
>  <i_m_ct_stereo_status>  (220) 
1

>  <s_m_source_file>  (220) 
/var/tmp/pbs.5076255.sched01/tmpbzpkhbzu/844yn2io63.sdf

>  <i_m_source_file_index>  (220) 
12

>  <i_lp_mmshare_version>  (220) 
48012

>  <i_f3d_flags>  (220) 
0

>  <s_epik_input>  (220) 
W09IXVtDQEBIXTFbQ0hdPUMoT1tDSDNdKVtDQEBIXShbQ0BAXTEyMylbQ0gyXVtDQEBdNChbT0hdKVtDQEBIXShbQ0BdNShbQ0gyXU8yKVtDQEBdMyhPW0NIM10pW0NIMl1bQ0BIXShbQ0gzXSlDNShbQ0gzXSlbQ0gzXSlbQ0BASF02W0NAXShbT0hdKShDKD1PKU80KVtDSDJdW0NASF0oW0NIM10pW0NAQEhdNltDSDNd

>  <s_epik_cmdline>  (220) 
J2VwaWtfcHl0aG9uJywgJy1waHQnLCAnMi4wJywgJy1waCcsICc3LjAnLCAnLXRuJywgJzgnLCAnLW1hJywgJzIwMCcsICctaW1hZScsICc8aW5maWxlLm1hZT4nLCAnLW9tYWUnLCAnPG91dGZpbGUubWFlPic=

>  <r_lp_tautomer_probability>  (220) 
1

>  <r_epik_Ionization_Penalty>  (220) 
3.39053e-05

>  <r_epik_Ionization_Penalty_Charging>  (220) 
0

>  <r_epik_Ionization_Penalty_Neutral>  (220) 
3.39053e-05

>  <r_epik_State_Penalty>  (220) 
-0

>  <r_epik_Charging_Adjusted_Penalty>  (220) 
0

>  <i_epik_Tot_Q>  (220) 
0

>  <i_epik_Tot_abs_Q>  (220) 
0

>  <s_epik_Chemistry_Notes>  (220) 
This compound has an ester and may undergo hydrolysis at high or low pH.

>  <s_lp_Force_Field>  (220) 
OPLS3e

>  <r_lp_Energy>  (220) 
116.49

>  <b_lp_Chiralities_Consistent>  (220) 
1

>  <s_lp_Variant>  (220) 
68:0-1

>  <s_i_glide_gridfile>  (220) 
pfpi4k_grid

>  <i_i_glide_lignum>  (220) 
12

>  <i_i_glide_rotatable_bonds>  (220) 
5

>  <r_i_docking_score>  (220) 
-1.50243

>  <r_i_glide_ligand_efficiency>  (220) 
-0.0429267

>  <r_i_glide_ligand_efficiency_sa>  (220) 
-0.140416

>  <r_i_glide_ligand_efficiency_ln>  (220) 
-0.329817

>  <r_i_glide_gscore>  (220) 
-1.50243

>  <r_i_glide_lipo>  (220) 
-0.0431282

>  <r_i_glide_hbond>  (220) 
-0.101935

>  <r_i_glide_metal>  (220) 
-0

>  <r_i_glide_rewards>  (220) 
-0.050443

>  <r_i_glide_evdw>  (220) 
-20.2227

>  <r_i_glide_ecoul>  (220) 
-1.66664

>  <r_i_glide_erotb>  (220) 
0

>  <r_i_glide_esite>  (220) 
-0.0457936

>  <r_i_glide_emodel>  (220) 
-23.5147

>  <r_i_glide_energy>  (220) 
-21.8894

>  <r_i_glide_einternal>  (220) 
0.652608

>  <r_i_glide_intrahb_reward>  (220) 
-0

>  <i_i_glide_confnum>  (220) 
2

>  <i_i_glide_posenum>  (220) 
31

>  <r_i_glide_eff_state_penalty>  (220) 
0

>  <ligand_id>  (220) 
68

>  <original_smiles>  (220) 
COC1=CC(O)C23OCC4(C5C6C(C)C(C)CC6(O)C(=O)OC5(O)CC12)C(C)(C)C(C)CC34OC

>  <smiles>  (220) 
[H]OC1([H])C([H])=C(OC([H])([H])[H])C2([H])C([H])([H])C3(O[H])OC(=O)C4(O[H])C([H])([H])C([H])(C([H])([H])[H])C([H])(C([H])([H])[H])C4([H])C3([H])C34C([H])([H])OC12C3(OC([H])([H])[H])C([H])([H])C([H])(C([H])([H])[H])C4(C([H])([H])[H])C([H])([H])[H]

$$$$
68:0:2
     RDKit          3D

 75 80  0  0  1  0  0  0  0  0999 V2000
   -0.7000   -5.7083    5.5507 C   0  0  0  0  0  0  0  0  0  0  0  0
   -0.5669   -4.3752    6.0449 O   0  0  0  0  0  0  0  0  0  0  0  0
    0.6605   -3.7963    5.8236 C   0  0  0  0  0  0  0  0  0  0  0  0
    1.7043   -4.3242    5.1857 C   0  0  0  0  0  0  0  0  0  0  0  0
    2.8653   -3.4011    5.2652 C   0  0  1  0  0  0  0  0  0  0  0  0
    3.6687   -3.4410    4.1058 O   0  0  0  0  0  0  0  0  0  0  0  0
    2.2346   -2.0078    5.6123 C   0  0  1  0  0  0  0  0  0  0  0  0
    1.9101   -1.3560    4.3604 O   0  0  0  0  0  0  0  0  0  0  0  0
    2.5436   -0.0691    4.2517 C   0  0  0  0  0  0  0  0  0  0  0  0
    2.5417    0.4007    5.7099 C   0  0  2  0  0  0  0  0  0  0  0  0
    1.0326    0.9162    6.0670 C   0  0  1  0  0  0  0  0  0  0  0  0
    0.4027    2.0832    5.2165 C   0  0  1  0  0  0  0  0  0  0  0  0
   -0.1820    1.9495    3.7650 C   0  0  1  0  0  0  0  0  0  0  0  0
   -0.7698    0.6028    3.3042 C   0  0  0  0  0  0  0  0  0  0  0  0
   -1.1781    3.1380    3.6249 C   0  0  1  0  0  0  0  0  0  0  0  0
   -2.5883    2.8286    3.0852 C   0  0  0  0  0  0  0  0  0  0  0  0
   -1.2479    3.8077    5.0068 C   0  0  0  0  0  0  0  0  0  0  0  0
   -0.6707    2.8088    6.0220 C   0  0  2  0  0  0  0  0  0  0  0  0
   -0.1715    3.5442    7.1195 O   0  0  0  0  0  0  0  0  0  0  0  0
   -1.7092    1.8207    6.5445 C   0  0  0  0  0  0  0  0  0  0  0  0
   -2.7866    2.2235    6.9887 O   0  0  0  0  0  0  0  0  0  0  0  0
   -1.4303    0.4929    6.4087 O   0  0  0  0  0  0  0  0  0  0  0  0
   -0.1334   -0.0323    6.6336 C   0  0  2  0  0  0  0  0  0  0  0  0
    0.0111   -0.1652    8.0332 O   0  0  0  0  0  0  0  0  0  0  0  0
   -0.2594   -1.4574    6.0393 C   0  0  0  0  0  0  0  0  0  0  0  0
    0.9160   -2.3877    6.3364 C   0  0  1  0  0  0  0  0  0  0  0  0
    3.6401    1.4283    6.2883 C   0  0  0  0  0  0  0  0  0  0  0  0
    4.9636    1.5024    5.4599 C   0  0  0  0  0  0  0  0  0  0  0  0
    3.2897    2.9465    6.3600 C   0  0  0  0  0  0  0  0  0  0  0  0
    3.9108    0.8261    7.7265 C   0  0  1  0  0  0  0  0  0  0  0  0
    3.4371    1.6576    8.9405 C   0  0  0  0  0  0  0  0  0  0  0  0
    3.2815   -0.5945    7.7682 C   0  0  0  0  0  0  0  0  0  0  0  0
    3.1172   -0.9311    6.2848 C   0  0  1  0  0  0  0  0  0  0  0  0
    4.4260   -1.2392    5.7462 O   0  0  0  0  0  0  0  0  0  0  0  0
    5.4037   -1.9945    6.4672 C   0  0  0  0  0  0  0  0  0  0  0  0
   -1.7159   -6.0672    5.6890 H   0  0  0  0  0  0  0  0  0  0  0  0
   -0.0239   -6.3882    6.0698 H   0  0  0  0  0  0  0  0  0  0  0  0
   -0.5032   -5.7673    4.4789 H   0  0  0  0  0  0  0  0  0  0  0  0
    1.7905   -5.2988    4.7303 H   0  0  0  0  0  0  0  0  0  0  0  0
    3.4136   -3.8259    6.1019 H   0  0  0  0  0  0  0  0  0  0  0  0
    4.3820   -2.8316    4.2345 H   0  0  0  0  0  0  0  0  0  0  0  0
    3.5416   -0.1995    3.8371 H   0  0  0  0  0  0  0  0  0  0  0  0
    2.0374    0.5936    3.5609 H   0  0  0  0  0  0  0  0  0  0  0  0
    1.2526    1.4468    6.9832 H   0  0  0  0  0  0  0  0  0  0  0  0
    1.1671    2.8342    5.0731 H   0  0  0  0  0  0  0  0  0  0  0  0
    0.6335    2.1655    3.0745 H   0  0  0  0  0  0  0  0  0  0  0  0
   -1.6287    0.2852    3.8943 H   0  0  0  0  0  0  0  0  0  0  0  0
   -0.0249   -0.1853    3.3116 H   0  0  0  0  0  0  0  0  0  0  0  0
   -1.0962    0.6683    2.2673 H   0  0  0  0  0  0  0  0  0  0  0  0
   -0.7403    3.8589    2.9308 H   0  0  0  0  0  0  0  0  0  0  0  0
   -3.1246    2.1429    3.7368 H   0  0  0  0  0  0  0  0  0  0  0  0
   -2.5507    2.3975    2.0839 H   0  0  0  0  0  0  0  0  0  0  0  0
   -3.1827    3.7421    3.0126 H   0  0  0  0  0  0  0  0  0  0  0  0
   -0.6166    4.6924    4.9890 H   0  0  0  0  0  0  0  0  0  0  0  0
   -2.2553    4.1415    5.2617 H   0  0  0  0  0  0  0  0  0  0  0  0
   -0.9000    4.0025    7.5154 H   0  0  0  0  0  0  0  0  0  0  0  0
    0.2047    0.6890    8.3908 H   0  0  0  0  0  0  0  0  0  0  0  0
   -1.1493   -1.9178    6.4718 H   0  0  0  0  0  0  0  0  0  0  0  0
   -0.4666   -1.4329    4.9755 H   0  0  0  0  0  0  0  0  0  0  0  0
    1.0835   -2.4784    7.4093 H   0  0  0  0  0  0  0  0  0  0  0  0
    5.6023    2.3184    5.7989 H   0  0  0  0  0  0  0  0  0  0  0  0
    4.7503    1.6952    4.4089 H   0  0  0  0  0  0  0  0  0  0  0  0
    5.6193    0.6401    5.5126 H   0  0  0  0  0  0  0  0  0  0  0  0
    4.0885    3.5081    6.8467 H   0  0  0  0  0  0  0  0  0  0  0  0
    2.4004    3.1946    6.9323 H   0  0  0  0  0  0  0  0  0  0  0  0
    3.1955    3.3836    5.3650 H   0  0  0  0  0  0  0  0  0  0  0  0
    4.9886    0.7112    7.8403 H   0  0  0  0  0  0  0  0  0  0  0  0
    2.3635    1.8481    8.9212 H   0  0  0  0  0  0  0  0  0  0  0  0
    3.9443    2.6206    8.9983 H   0  0  0  0  0  0  0  0  0  0  0  0
    3.6503    1.1344    9.8739 H   0  0  0  0  0  0  0  0  0  0  0  0
    3.8746   -1.3004    8.3444 H   0  0  0  0  0  0  0  0  0  0  0  0
    2.3307   -0.5650    8.2744 H   0  0  0  0  0  0  0  0  0  0  0  0
    6.1557   -2.3311    5.7525 H   0  0  0  0  0  0  0  0  0  0  0  0
    5.0104   -2.8782    6.9634 H   0  0  0  0  0  0  0  0  0  0  0  0
    5.9166   -1.3897    7.2142 H   0  0  0  0  0  0  0  0  0  0  0  0
  1  2  1  0
  1 36  1  0
  1 37  1  0
  1 38  1  0
  2  3  1  0
  3 26  1  0
  3  4  2  0
  4  5  1  0
  4 39  1  0
  5  6  1  0
  5  7  1  0
  5 40  1  1
  6 41  1  0
  7 26  1  0
  7 33  1  0
  7  8  1  6
  8  9  1  0
 10  9  1  6
  9 42  1  0
  9 43  1  0
 10 33  1  0
 10 11  1  0
 10 27  1  0
 11 23  1  0
 11 12  1  0
 11 44  1  1
 12 18  1  0
 12 13  1  0
 12 45  1  6
 13 14  1  0
 13 15  1  0
 13 46  1  6
 14 47  1  0
 14 48  1  0
 14 49  1  0
 15 16  1  0
 15 17  1  0
 15 50  1  6
 16 51  1  0
 16 52  1  0
 16 53  1  0
 17 18  1  0
 17 54  1  0
 17 55  1  0
 18 19  1  1
 18 20  1  0
 19 56  1  0
 20 21  2  0
 20 22  1  0
 22 23  1  0
 23 24  1  1
 23 25  1  0
 24 57  1  0
 25 26  1  0
 25 58  1  0
 25 59  1  0
 26 60  1  1
 27 28  1  0
 27 29  1  0
 27 30  1  0
 28 61  1  0
 28 62  1  0
 28 63  1  0
 29 64  1  0
 29 65  1  0
 29 66  1  0
 30 31  1  0
 30 32  1  0
 30 67  1  1
 31 68  1  0
 31 69  1  0
 31 70  1  0
 32 33  1  0
 32 71  1  0
 32 72  1  0
 33 34  1  6
 34 35  1  0
 35 73  1  0
 35 74  1  0
 35 75  1  0
M  END
>  <i_m_ct_stereo_status>  (221) 
1

>  <s_m_source_file>  (221) 
/var/tmp/pbs.5076255.sched01/tmpbzpkhbzu/844yn2io63.sdf

>  <i_m_source_file_index>  (221) 
12

>  <i_lp_mmshare_version>  (221) 
48012

>  <i_f3d_flags>  (221) 
0

>  <s_epik_input>  (221) 
W09IXVtDQEBIXTFbQ0hdPUMoT1tDSDNdKVtDQEBIXShbQ0BAXTEyMylbQ0gyXVtDQEBdNChbT0hdKVtDQEBIXShbQ0BdNShbQ0gyXU8yKVtDQEBdMyhPW0NIM10pW0NIMl1bQ0BIXShbQ0gzXSlDNShbQ0gzXSlbQ0gzXSlbQ0BASF02W0NAXShbT0hdKShDKD1PKU80KVtDSDJdW0NASF0oW0NIM10pW0NAQEhdNltDSDNd

>  <s_epik_cmdline>  (221) 
J2VwaWtfcHl0aG9uJywgJy1waHQnLCAnMi4wJywgJy1waCcsICc3LjAnLCAnLXRuJywgJzgnLCAnLW1hJywgJzIwMCcsICctaW1hZScsICc8aW5maWxlLm1hZT4nLCAnLW9tYWUnLCAnPG91dGZpbGUubWFlPic=

>  <r_lp_tautomer_probability>  (221) 
1

>  <r_epik_Ionization_Penalty>  (221) 
3.39053e-05

>  <r_epik_Ionization_Penalty_Charging>  (221) 
0

>  <r_epik_Ionization_Penalty_Neutral>  (221) 
3.39053e-05

>  <r_epik_State_Penalty>  (221) 
-0

>  <r_epik_Charging_Adjusted_Penalty>  (221) 
0

>  <i_epik_Tot_Q>  (221) 
0

>  <i_epik_Tot_abs_Q>  (221) 
0

>  <s_epik_Chemistry_Notes>  (221) 
This compound has an ester and may undergo hydrolysis at high or low pH.

>  <s_lp_Force_Field>  (221) 
OPLS3e

>  <r_lp_Energy>  (221) 
116.49

>  <b_lp_Chiralities_Consistent>  (221) 
1

>  <s_lp_Variant>  (221) 
68:0-1

>  <s_i_glide_gridfile>  (221) 
pfpi4k_grid

>  <i_i_glide_lignum>  (221) 
12

>  <i_i_glide_rotatable_bonds>  (221) 
5

>  <r_i_docking_score>  (221) 
-1.44099

>  <r_i_glide_ligand_efficiency>  (221) 
-0.0411711

>  <r_i_glide_ligand_efficiency_sa>  (221) 
-0.134673

>  <r_i_glide_ligand_efficiency_ln>  (221) 
-0.316329

>  <r_i_glide_gscore>  (221) 
-1.44099

>  <r_i_glide_lipo>  (221) 
-0.0174078

>  <r_i_glide_hbond>  (221) 
-0.118545

>  <r_i_glide_metal>  (221) 
-0

>  <r_i_glide_rewards>  (221) 
-0.050443

>  <r_i_glide_evdw>  (221) 
-19.7349

>  <r_i_glide_ecoul>  (221) 
-1.41276

>  <r_i_glide_erotb>  (221) 
0

>  <r_i_glide_esite>  (221) 
-0.0559344

>  <r_i_glide_emodel>  (221) 
-21.776

>  <r_i_glide_energy>  (221) 
-21.1477

>  <r_i_glide_einternal>  (221) 
2.30994

>  <r_i_glide_intrahb_reward>  (221) 
-0

>  <i_i_glide_confnum>  (221) 
1

>  <i_i_glide_posenum>  (221) 
11

>  <r_i_glide_eff_state_penalty>  (221) 
0

>  <ligand_id>  (221) 
68

>  <original_smiles>  (221) 
COC1=CC(O)C23OCC4(C5C6C(C)C(C)CC6(O)C(=O)OC5(O)CC12)C(C)(C)C(C)CC34OC

>  <smiles>  (221) 
[H]OC1([H])C([H])=C(OC([H])([H])[H])C2([H])C([H])([H])C3(O[H])OC(=O)C4(O[H])C([H])([H])C([H])(C([H])([H])[H])C([H])(C([H])([H])[H])C4([H])C3([H])C34C([H])([H])OC12C3(OC([H])([H])[H])C([H])([H])C([H])(C([H])([H])[H])C4(C([H])([H])[H])C([H])([H])[H]

$$$$
70:0:0
     RDKit          3D

 71 78  0  0  1  0  0  0  0  0999 V2000
    4.4250   -7.6673    1.7522 C   0  0  0  0  0  0  0  0  0  0  0  0
    4.0660   -6.6071    2.8472 C   0  0  2  0  0  0  0  0  0  0  0  0
    4.0782   -7.4137    4.1983 C   0  0  1  0  0  0  0  0  0  0  0  0
    3.9499   -6.6098    5.3411 O   0  0  0  0  0  0  0  0  0  0  0  0
    3.2226   -8.7216    4.3509 C   0  0  1  0  0  0  0  0  0  0  0  0
    3.4095   -9.2329    5.6572 O   0  0  0  0  0  0  0  0  0  0  0  0
    1.7173   -8.8380    3.9389 C   0  0  2  0  0  0  0  0  0  0  0  0
    1.3262   -8.2430    2.5809 C   0  0  1  0  0  0  0  0  0  0  0  0
   -0.1149   -8.7597    2.4864 C   0  0  0  0  0  0  0  0  0  0  0  0
   -0.6596   -8.3086    3.8360 C   0  0  2  0  0  0  0  0  0  0  0  0
   -0.8910   -6.9180    3.6006 O   0  0  0  0  0  0  0  0  0  0  0  0
    0.3479   -6.2558    3.8302 C   0  0  2  0  0  0  0  0  0  0  0  0
    1.3088   -6.6835    2.6538 C   0  0  1  0  0  0  0  0  0  0  0  0
    2.6742   -5.9135    2.5003 C   0  0  1  0  0  0  0  0  0  0  0  0
    2.5266   -4.4418    3.0053 C   0  0  0  0  0  0  0  0  0  0  0  0
    3.7439   -3.5155    2.7845 C   0  0  1  0  0  0  0  0  0  0  0  0
    4.9441   -4.1539    3.5150 C   0  0  1  0  0  0  0  0  0  0  0  0
    4.7682   -4.1217    4.9093 O   0  0  0  0  0  0  0  0  0  0  0  0
    5.2556   -5.5211    2.8327 C   0  0  2  0  0  0  0  0  0  0  0  0
    5.8221   -5.1361    1.4185 C   0  0  0  0  0  0  0  0  0  0  0  0
    6.5640   -5.8733    0.7717 O   0  0  0  0  0  0  0  0  0  0  0  0
    5.5093   -3.7196    0.9234 C   0  0  1  0  0  0  0  0  0  0  0  0
    5.5775   -3.3761   -0.5570 C   0  0  0  0  0  0  0  0  0  0  0  0
    4.8130   -2.0932   -0.6296 N   0  0  1  0  0  0  0  0  0  0  0  0
    4.0925   -1.8335   -1.9192 C   0  0  0  0  0  0  0  0  0  0  0  0
    3.1766   -2.7977   -2.4211 C   0  0  0  0  0  0  0  0  0  0  0  0
    2.6214   -2.4058   -3.6136 C   0  0  0  0  0  0  0  0  0  0  0  0
    3.2384   -0.8435   -4.1238 S   0  0  0  0  0  0  0  0  0  0  0  0
    4.2144   -0.7224   -2.7000 C   0  0  0  0  0  0  0  0  0  0  0  0
    3.9740   -1.9704    0.5976 C   0  0  0  0  0  0  0  0  0  0  0  0
    4.0708   -3.3396    1.2648 C   0  0  2  0  0  0  0  0  0  0  0  0
    0.6898   -6.8858    5.1716 C   0  0  1  0  0  0  0  0  0  0  0  0
   -0.1818   -6.3958    6.1671 O   0  0  0  0  0  0  0  0  0  0  0  0
    0.5307   -8.3655    4.8443 C   0  0  2  0  0  0  0  0  0  0  0  0
    0.2680   -9.2815    6.0592 C   0  0  0  0  0  0  0  0  0  0  0  0
    5.4690   -7.9712    1.8385 H   0  0  0  0  0  0  0  0  0  0  0  0
    4.2672   -7.2813    0.7451 H   0  0  0  0  0  0  0  0  0  0  0  0
    3.8749   -8.5973    1.7990 H   0  0  0  0  0  0  0  0  0  0  0  0
    5.1032   -7.7714    4.3128 H   0  0  0  0  0  0  0  0  0  0  0  0
    4.0507   -7.1975    6.0827 H   0  0  0  0  0  0  0  0  0  0  0  0
    3.7224   -9.4677    3.7291 H   0  0  0  0  0  0  0  0  0  0  0  0
    3.0265  -10.0998    5.6953 H   0  0  0  0  0  0  0  0  0  0  0  0
    1.5826   -9.9208    3.8434 H   0  0  0  0  0  0  0  0  0  0  0  0
    1.8627   -8.6372    1.7230 H   0  0  0  0  0  0  0  0  0  0  0  0
   -0.6733   -8.3393    1.6499 H   0  0  0  0  0  0  0  0  0  0  0  0
   -0.1453   -9.8484    2.3990 H   0  0  0  0  0  0  0  0  0  0  0  0
   -1.5649   -8.8334    4.1380 H   0  0  0  0  0  0  0  0  0  0  0  0
    0.1747   -5.1842    3.8979 H   0  0  0  0  0  0  0  0  0  0  0  0
    0.7565   -6.3786    1.7644 H   0  0  0  0  0  0  0  0  0  0  0  0
    2.7347   -5.8238    1.4172 H   0  0  0  0  0  0  0  0  0  0  0  0
    1.6569   -3.9735    2.5415 H   0  0  0  0  0  0  0  0  0  0  0  0
    2.3348   -4.4515    4.0773 H   0  0  0  0  0  0  0  0  0  0  0  0
    3.5439   -2.5322    3.2231 H   0  0  0  0  0  0  0  0  0  0  0  0
    5.8083   -3.5030    3.4125 H   0  0  0  0  0  0  0  0  0  0  0  0
    4.2079   -4.8561    5.1516 H   0  0  0  0  0  0  0  0  0  0  0  0
    6.1007   -5.9715    3.3438 H   0  0  0  0  0  0  0  0  0  0  0  0
    6.2061   -3.0497    1.4335 H   0  0  0  0  0  0  0  0  0  0  0  0
    6.6075   -3.2198   -0.8860 H   0  0  0  0  0  0  0  0  0  0  0  0
    5.1395   -4.1684   -1.1620 H   0  0  0  0  0  0  0  0  0  0  0  0
    2.9428   -3.7254   -1.9302 H   0  0  0  0  0  0  0  0  0  0  0  0
    1.8890   -2.9205   -4.2163 H   0  0  0  0  0  0  0  0  0  0  0  0
    4.8068    0.1630   -2.5405 H   0  0  0  0  0  0  0  0  0  0  0  0
    4.4368   -1.2015    1.2327 H   0  0  0  0  0  0  0  0  0  0  0  0
    2.9431   -1.6744    0.3892 H   0  0  0  0  0  0  0  0  0  0  0  0
    3.4107   -3.9800    0.6822 H   0  0  0  0  0  0  0  0  0  0  0  0
    1.6657   -6.6297    5.5185 H   0  0  0  0  0  0  0  0  0  0  0  0
    0.0632   -6.8185    6.9740 H   0  0  0  0  0  0  0  0  0  0  0  0
   -0.6837   -9.0559    6.5309 H   0  0  0  0  0  0  0  0  0  0  0  0
    1.0406   -9.1902    6.8195 H   0  0  0  0  0  0  0  0  0  0  0  0
    0.2185  -10.3293    5.7639 H   0  0  0  0  0  0  0  0  0  0  0  0
    5.4951   -1.3748   -0.4970 H   0  0  0  0  0  0  0  0  0  0  0  0
  2  1  1  6
  1 36  1  0
  1 37  1  0
  1 38  1  0
  2 14  1  0
  2 19  1  0
  2  3  1  0
  3  4  1  0
  3  5  1  0
  3 39  1  1
  4 40  1  0
  5  6  1  0
  5  7  1  0
  5 41  1  6
  6 42  1  0
  7 34  1  0
  7  8  1  0
  7 43  1  6
  8 13  1  0
  8  9  1  0
  8 44  1  6
  9 10  1  0
  9 45  1  0
  9 46  1  0
 10 34  1  0
 10 11  1  0
 10 47  1  1
 11 12  1  0
 12 13  1  0
 12 32  1  0
 12 48  1  1
 13 14  1  0
 13 49  1  6
 14 15  1  0
 14 50  1  6
 15 16  1  0
 15 51  1  0
 15 52  1  0
 16 31  1  0
 16 17  1  0
 16 53  1  1
 17 18  1  0
 17 19  1  0
 17 54  1  1
 18 55  1  0
 19 20  1  0
 19 56  1  1
 20 21  2  0
 20 22  1  0
 22 31  1  0
 22 23  1  0
 22 57  1  1
 23 24  1  0
 23 58  1  0
 23 59  1  0
 24 25  1  0
 24 30  1  0
 24 71  1  1
 25 29  2  0
 25 26  1  0
 26 27  2  0
 26 60  1  0
 27 28  1  0
 27 61  1  0
 28 29  1  0
 29 62  1  0
 30 31  1  0
 30 63  1  0
 30 64  1  0
 31 65  1  6
 32 33  1  0
 32 34  1  0
 32 66  1  1
 33 67  1  0
 34 35  1  1
 35 68  1  0
 35 69  1  0
 35 70  1  0
M  CHG  1  24   1
M  END
>  <i_m_ct_stereo_status>  (222) 
1

>  <s_m_source_file>  (222) 
/var/tmp/pbs.5076255.sched01/tmpbzpkhbzu/844yn2io63.sdf

>  <i_m_source_file_index>  (222) 
15

>  <i_lp_mmshare_version>  (222) 
48012

>  <i_f3d_flags>  (222) 
0

>  <s_epik_input>  (222) 
W09IXVtDQEBIXTFbQ0BASF0yT1tDQEBIXShbQ0gyXTMpW0NAQF0xKFtDSDNdKVtDQEhdKFtDQEhdKFtPSF0pW0NAQEhdNFtPSF0pW0NAQEhdM1tDQEBIXTJbQ0BIXShbQ0BdNDVbQ0gzXSlbQ0gyXVtDQEBIXTZbQ0BASF03W0NAQEhdKEMoPU8pW0NASF01W0NAQEhdNltPSF0pW0NIMl1OKFtDSDJdNyljOFtjSF1bY0hdc1tjSF04

>  <s_epik_cmdline>  (222) 
J2VwaWtfcHl0aG9uJywgJy1waHQnLCAnMi4wJywgJy1waCcsICc3LjAnLCAnLXRuJywgJzgnLCAnLW1hJywgJzIwMCcsICctaW1hZScsICc8aW5maWxlLm1hZT4nLCAnLW9tYWUnLCAnPG91dGZpbGUubWFlPic=

>  <r_epik_Ionization_Penalty>  (222) 
0.00712413

>  <r_epik_Ionization_Penalty_Charging>  (222) 
0.00712363

>  <r_epik_Ionization_Penalty_Neutral>  (222) 
4.91586e-07

>  <r_epik_State_Penalty>  (222) 
0.00530581

>  <r_epik_Charging_Adjusted_Penalty>  (222) 
0.0124294

>  <i_epik_Tot_Q>  (222) 
1

>  <i_epik_Tot_abs_Q>  (222) 
1

>  <s_lp_Force_Field>  (222) 
OPLS3e

>  <r_lp_Energy>  (222) 
105.341

>  <b_lp_Chiralities_Consistent>  (222) 
1

>  <s_lp_Variant>  (222) 
70:0-1

>  <s_i_glide_gridfile>  (222) 
pfpi4k_grid

>  <i_i_glide_lignum>  (222) 
15

>  <i_i_glide_rotatable_bonds>  (222) 
5

>  <r_i_docking_score>  (222) 
-4.35225

>  <r_i_glide_ligand_efficiency>  (222) 
-0.12435

>  <r_i_glide_ligand_efficiency_sa>  (222) 
-0.406757

>  <r_i_glide_ligand_efficiency_ln>  (222) 
-0.955415

>  <r_i_glide_gscore>  (222) 
-4.35225

>  <r_i_glide_lipo>  (222) 
-0.719847

>  <r_i_glide_hbond>  (222) 
-0.0878893

>  <r_i_glide_metal>  (222) 
-0

>  <r_i_glide_rewards>  (222) 
-0.591526

>  <r_i_glide_evdw>  (222) 
-39.5952

>  <r_i_glide_ecoul>  (222) 
-6.89243

>  <r_i_glide_erotb>  (222) 
0.0808807

>  <r_i_glide_esite>  (222) 
-0.0202378

>  <r_i_glide_emodel>  (222) 
-63.4745

>  <r_i_glide_energy>  (222) 
-46.4877

>  <r_i_glide_einternal>  (222) 
1.30739

>  <r_i_glide_intrahb_reward>  (222) 
-0.5

>  <i_i_glide_confnum>  (222) 
2

>  <i_i_glide_posenum>  (222) 
14

>  <r_i_glide_eff_state_penalty>  (222) 
0

>  <ligand_id>  (222) 
70

>  <original_smiles>  (222) 
CC12C(O)C(O)C3C4CC5OC(C4C1CC1C(O)C2C(=O)C2CN(c4ccsc4)CC21)C(O)C53C

>  <smiles>  (222) 
[H]OC1([H])C2([H])C(=O)C3([H])C([H])(C1([H])C([H])([H])C1([H])C4([H])C5([H])OC6([H])C([H])([H])C4([H])C([H])(C([H])(O[H])C([H])(O[H])C21C([H])([H])[H])C6(C([H])([H])[H])C5([H])O[H])C([H])([H])[N+]([H])(c1c([H])sc([H])c1[H])C3([H])[H]

$$$$
70:0:1
     RDKit          3D

 71 78  0  0  1  0  0  0  0  0999 V2000
    4.2149   -8.5518    2.3640 C   0  0  0  0  0  0  0  0  0  0  0  0
    4.0822   -7.4674    3.4862 C   0  0  2  0  0  0  0  0  0  0  0  0
    3.9712   -8.2876    4.8252 C   0  0  1  0  0  0  0  0  0  0  0  0
    4.0284   -7.4910    5.9793 O   0  0  0  0  0  0  0  0  0  0  0  0
    2.8921   -9.4198    4.9832 C   0  0  1  0  0  0  0  0  0  0  0  0
    3.0171   -9.9870    6.2769 O   0  0  0  0  0  0  0  0  0  0  0  0
    1.3842   -9.2419    4.6018 C   0  0  2  0  0  0  0  0  0  0  0  0
    1.0836   -8.5561    3.2591 C   0  0  1  0  0  0  0  0  0  0  0  0
   -0.4283   -8.7960    3.1863 C   0  0  0  0  0  0  0  0  0  0  0  0
   -0.8510   -8.2752    4.5558 C   0  0  2  0  0  0  0  0  0  0  0  0
   -0.8301   -6.8613    4.3552 O   0  0  0  0  0  0  0  0  0  0  0  0
    0.5140   -6.4433    4.5626 C   0  0  2  0  0  0  0  0  0  0  0  0
    1.3548   -7.0206    3.3567 C   0  0  1  0  0  0  0  0  0  0  0  0
    2.8376   -6.5168    3.1840 C   0  0  1  0  0  0  0  0  0  0  0  0
    2.9773   -5.0536    3.7152 C   0  0  0  0  0  0  0  0  0  0  0  0
    4.3425   -4.3678    3.4815 C   0  0  1  0  0  0  0  0  0  0  0  0
    5.4098   -5.2345    4.1771 C   0  0  1  0  0  0  0  0  0  0  0  0
    5.2763   -5.1821    5.5734 O   0  0  0  0  0  0  0  0  0  0  0  0
    5.4544   -6.6221    3.4637 C   0  0  2  0  0  0  0  0  0  0  0  0
    6.0554   -6.3183    2.0458 C   0  0  0  0  0  0  0  0  0  0  0  0
    6.6086   -7.1726    1.3493 O   0  0  0  0  0  0  0  0  0  0  0  0
    6.0140   -4.8547    1.5890 C   0  0  1  0  0  0  0  0  0  0  0  0
    6.0927   -4.5094    0.1115 C   0  0  0  0  0  0  0  0  0  0  0  0
    5.5812   -3.0984    0.0524 N   0  0  1  0  0  0  0  0  0  0  0  0
    4.8570   -2.6722   -1.2095 C   0  0  0  0  0  0  0  0  0  0  0  0
    4.9466   -3.4536   -2.3975 C   0  0  0  0  0  0  0  0  0  0  0  0
    4.1946   -2.9451   -3.4222 C   0  0  0  0  0  0  0  0  0  0  0  0
    3.4270   -1.4392   -2.9715 S   0  0  0  0  0  0  0  0  0  0  0  0
    4.1063   -1.5356   -1.3737 C   0  0  0  0  0  0  0  0  0  0  0  0
    4.8297   -2.8496    1.3230 C   0  0  0  0  0  0  0  0  0  0  0  0
    4.6775   -4.2249    1.9635 C   0  0  2  0  0  0  0  0  0  0  0  0
    0.7636   -7.1566    5.8892 C   0  0  1  0  0  0  0  0  0  0  0  0
    0.0338   -6.5376    6.9289 O   0  0  0  0  0  0  0  0  0  0  0  0
    0.3260   -8.5749    5.5396 C   0  0  2  0  0  0  0  0  0  0  0  0
   -0.0660   -9.4488    6.7525 C   0  0  0  0  0  0  0  0  0  0  0  0
    5.1860   -9.0454    2.4190 H   0  0  0  0  0  0  0  0  0  0  0  0
    4.1103   -8.1218    1.3673 H   0  0  0  0  0  0  0  0  0  0  0  0
    3.5037   -9.3657    2.4091 H   0  0  0  0  0  0  0  0  0  0  0  0
    4.9146   -8.8296    4.9049 H   0  0  0  0  0  0  0  0  0  0  0  0
    4.0877   -8.0950    6.7134 H   0  0  0  0  0  0  0  0  0  0  0  0
    3.2303  -10.2285    4.3312 H   0  0  0  0  0  0  0  0  0  0  0  0
    2.4630  -10.7604    6.3400 H   0  0  0  0  0  0  0  0  0  0  0  0
    1.0455  -10.2762    4.4934 H   0  0  0  0  0  0  0  0  0  0  0  0
    1.5214   -9.0265    2.3826 H   0  0  0  0  0  0  0  0  0  0  0  0
   -0.9151   -8.2699    2.3618 H   0  0  0  0  0  0  0  0  0  0  0  0
   -0.6657   -9.8582    3.0900 H   0  0  0  0  0  0  0  0  0  0  0  0
   -1.8279   -8.6378    4.8707 H   0  0  0  0  0  0  0  0  0  0  0  0
    0.5320   -5.3572    4.6371 H   0  0  0  0  0  0  0  0  0  0  0  0
    0.8540   -6.5998    2.4824 H   0  0  0  0  0  0  0  0  0  0  0  0
    2.8950   -6.4156    2.1012 H   0  0  0  0  0  0  0  0  0  0  0  0
    2.2013   -4.4238    3.2757 H   0  0  0  0  0  0  0  0  0  0  0  0
    2.8056   -5.0471    4.7917 H   0  0  0  0  0  0  0  0  0  0  0  0
    4.3393   -3.3724    3.9375 H   0  0  0  0  0  0  0  0  0  0  0  0
    6.3783   -4.7573    4.0645 H   0  0  0  0  0  0  0  0  0  0  0  0
    4.5837   -5.7906    5.8237 H   0  0  0  0  0  0  0  0  0  0  0  0
    6.2135   -7.2295    3.9480 H   0  0  0  0  0  0  0  0  0  0  0  0
    6.8335   -4.3358    2.0913 H   0  0  0  0  0  0  0  0  0  0  0  0
    7.1253   -4.5494   -0.2467 H   0  0  0  0  0  0  0  0  0  0  0  0
    5.4777   -5.2132   -0.4475 H   0  0  0  0  0  0  0  0  0  0  0  0
    5.4939   -4.3705   -2.4942 H   0  0  0  0  0  0  0  0  0  0  0  0
    4.0345   -3.3692   -4.3989 H   0  0  0  0  0  0  0  0  0  0  0  0
    3.8696   -0.7549   -0.6607 H   0  0  0  0  0  0  0  0  0  0  0  0
    5.4468   -2.1972    1.9610 H   0  0  0  0  0  0  0  0  0  0  0  0
    3.8546   -2.3811    1.1806 H   0  0  0  0  0  0  0  0  0  0  0  0
    3.8960   -4.7155    1.3834 H   0  0  0  0  0  0  0  0  0  0  0  0
    1.7791   -7.0970    6.2108 H   0  0  0  0  0  0  0  0  0  0  0  0
    0.4244   -5.6936    7.1019 H   0  0  0  0  0  0  0  0  0  0  0  0
   -0.9463   -9.0563    7.2551 H   0  0  0  0  0  0  0  0  0  0  0  0
    0.7286   -9.5041    7.4927 H   0  0  0  0  0  0  0  0  0  0  0  0
   -0.2996  -10.4702    6.4581 H   0  0  0  0  0  0  0  0  0  0  0  0
    6.4021   -2.5307    0.1471 H   0  0  0  0  0  0  0  0  0  0  0  0
  2  1  1  6
  1 36  1  0
  1 37  1  0
  1 38  1  0
  2 14  1  0
  2 19  1  0
  2  3  1  0
  3  4  1  0
  3  5  1  0
  3 39  1  1
  4 40  1  0
  5  6  1  0
  5  7  1  0
  5 41  1  6
  6 42  1  0
  7 34  1  0
  7  8  1  0
  7 43  1  6
  8 13  1  0
  8  9  1  0
  8 44  1  6
  9 10  1  0
  9 45  1  0
  9 46  1  0
 10 34  1  0
 10 11  1  0
 10 47  1  1
 11 12  1  0
 12 13  1  0
 12 32  1  0
 12 48  1  1
 13 14  1  0
 13 49  1  6
 14 15  1  0
 14 50  1  6
 15 16  1  0
 15 51  1  0
 15 52  1  0
 16 31  1  0
 16 17  1  0
 16 53  1  1
 17 18  1  0
 17 19  1  0
 17 54  1  1
 18 55  1  0
 19 20  1  0
 19 56  1  1
 20 21  2  0
 20 22  1  0
 22 31  1  0
 22 23  1  0
 22 57  1  1
 23 24  1  0
 23 58  1  0
 23 59  1  0
 24 25  1  0
 24 30  1  0
 24 71  1  1
 25 29  2  0
 25 26  1  0
 26 27  2  0
 26 60  1  0
 27 28  1  0
 27 61  1  0
 28 29  1  0
 29 62  1  0
 30 31  1  0
 30 63  1  0
 30 64  1  0
 31 65  1  6
 32 33  1  0
 32 34  1  0
 32 66  1  1
 33 67  1  0
 34 35  1  1
 35 68  1  0
 35 69  1  0
 35 70  1  0
M  CHG  1  24   1
M  END
>  <i_m_ct_stereo_status>  (223) 
1

>  <s_m_source_file>  (223) 
/var/tmp/pbs.5076255.sched01/tmpbzpkhbzu/844yn2io63.sdf

>  <i_m_source_file_index>  (223) 
15

>  <i_lp_mmshare_version>  (223) 
48012

>  <i_f3d_flags>  (223) 
0

>  <s_epik_input>  (223) 
W09IXVtDQEBIXTFbQ0BASF0yT1tDQEBIXShbQ0gyXTMpW0NAQF0xKFtDSDNdKVtDQEhdKFtDQEhdKFtPSF0pW0NAQEhdNFtPSF0pW0NAQEhdM1tDQEBIXTJbQ0BIXShbQ0BdNDVbQ0gzXSlbQ0gyXVtDQEBIXTZbQ0BASF03W0NAQEhdKEMoPU8pW0NASF01W0NAQEhdNltPSF0pW0NIMl1OKFtDSDJdNyljOFtjSF1bY0hdc1tjSF04

>  <s_epik_cmdline>  (223) 
J2VwaWtfcHl0aG9uJywgJy1waHQnLCAnMi4wJywgJy1waCcsICc3LjAnLCAnLXRuJywgJzgnLCAnLW1hJywgJzIwMCcsICctaW1hZScsICc8aW5maWxlLm1hZT4nLCAnLW9tYWUnLCAnPG91dGZpbGUubWFlPic=

>  <r_epik_Ionization_Penalty>  (223) 
0.00712413

>  <r_epik_Ionization_Penalty_Charging>  (223) 
0.00712363

>  <r_epik_Ionization_Penalty_Neutral>  (223) 
4.91586e-07

>  <r_epik_State_Penalty>  (223) 
0.00530581

>  <r_epik_Charging_Adjusted_Penalty>  (223) 
0.0124294

>  <i_epik_Tot_Q>  (223) 
1

>  <i_epik_Tot_abs_Q>  (223) 
1

>  <s_lp_Force_Field>  (223) 
OPLS3e

>  <r_lp_Energy>  (223) 
105.341

>  <b_lp_Chiralities_Consistent>  (223) 
1

>  <s_lp_Variant>  (223) 
70:0-1

>  <s_i_glide_gridfile>  (223) 
pfpi4k_grid

>  <i_i_glide_lignum>  (223) 
15

>  <i_i_glide_rotatable_bonds>  (223) 
5

>  <r_i_docking_score>  (223) 
-3.45153

>  <r_i_glide_ligand_efficiency>  (223) 
-0.0986151

>  <r_i_glide_ligand_efficiency_sa>  (223) 
-0.322577

>  <r_i_glide_ligand_efficiency_ln>  (223) 
-0.757687

>  <r_i_glide_gscore>  (223) 
-3.45153

>  <r_i_glide_lipo>  (223) 
-0.465371

>  <r_i_glide_hbond>  (223) 
0

>  <r_i_glide_metal>  (223) 
-0

>  <r_i_glide_rewards>  (223) 
-0.559502

>  <r_i_glide_evdw>  (223) 
-35.9679

>  <r_i_glide_ecoul>  (223) 
-4.72762

>  <r_i_glide_erotb>  (223) 
0.0808807

>  <r_i_glide_esite>  (223) 
0

>  <r_i_glide_emodel>  (223) 
-53.9273

>  <r_i_glide_energy>  (223) 
-40.6955

>  <r_i_glide_einternal>  (223) 
3.35304

>  <r_i_glide_intrahb_reward>  (223) 
-0.5

>  <i_i_glide_confnum>  (223) 
2

>  <i_i_glide_posenum>  (223) 
6

>  <r_i_glide_eff_state_penalty>  (223) 
0

>  <ligand_id>  (223) 
70

>  <original_smiles>  (223) 
CC12C(O)C(O)C3C4CC5OC(C4C1CC1C(O)C2C(=O)C2CN(c4ccsc4)CC21)C(O)C53C

>  <smiles>  (223) 
[H]OC1([H])C2([H])C(=O)C3([H])C([H])(C1([H])C([H])([H])C1([H])C4([H])C5([H])OC6([H])C([H])([H])C4([H])C([H])(C([H])(O[H])C([H])(O[H])C21C([H])([H])[H])C6(C([H])([H])[H])C5([H])O[H])C([H])([H])[N+]([H])(c1c([H])sc([H])c1[H])C3([H])[H]

$$$$
70:0:2
     RDKit          3D

 71 78  0  0  1  0  0  0  0  0999 V2000
    3.2374   -5.9517    0.9682 C   0  0  0  0  0  0  0  0  0  0  0  0
    3.4903   -6.0877    2.5045 C   0  0  2  0  0  0  0  0  0  0  0  0
    3.9529   -7.5789    2.6915 C   0  0  1  0  0  0  0  0  0  0  0  0
    4.3877   -7.8728    3.9890 O   0  0  0  0  0  0  0  0  0  0  0  0
    3.0838   -8.7625    2.1412 C   0  0  1  0  0  0  0  0  0  0  0  0
    3.7626   -9.9693    2.4524 O   0  0  0  0  0  0  0  0  0  0  0  0
    1.5395   -8.8878    2.3811 C   0  0  2  0  0  0  0  0  0  0  0  0
    0.7011   -7.6169    2.1559 C   0  0  1  0  0  0  0  0  0  0  0  0
   -0.7187   -8.1976    2.2530 C   0  0  0  0  0  0  0  0  0  0  0  0
   -0.5904   -8.9755    3.5506 C   0  0  2  0  0  0  0  0  0  0  0  0
   -0.7241   -7.9237    4.5024 O   0  0  0  0  0  0  0  0  0  0  0  0
    0.5740   -7.3764    4.6865 C   0  0  2  0  0  0  0  0  0  0  0  0
    0.9138   -6.6217    3.3434 C   0  0  1  0  0  0  0  0  0  0  0  0
    2.1775   -5.6878    3.3125 C   0  0  1  0  0  0  0  0  0  0  0  0
    2.4301   -5.0792    4.7284 C   0  0  0  0  0  0  0  0  0  0  0  0
    3.5606   -4.0285    4.8301 C   0  0  1  0  0  0  0  0  0  0  0  0
    4.8597   -4.7100    4.3560 C   0  0  1  0  0  0  0  0  0  0  0  0
    5.2617   -5.7059    5.2571 O   0  0  0  0  0  0  0  0  0  0  0  0
    4.6911   -5.0789    2.8526 C   0  0  2  0  0  0  0  0  0  0  0  0
    4.6799   -3.6990    2.1034 C   0  0  0  0  0  0  0  0  0  0  0  0
    4.9781   -3.5719    0.9182 O   0  0  0  0  0  0  0  0  0  0  0  0
    4.3812   -2.4620    2.9601 C   0  0  1  0  0  0  0  0  0  0  0  0
    3.8856   -1.1667    2.3275 C   0  0  0  0  0  0  0  0  0  0  0  0
    3.3239   -0.4142    3.4926 N   0  0  1  0  0  0  0  0  0  0  0  0
    2.1210    0.4042    3.1701 C   0  0  0  0  0  0  0  0  0  0  0  0
    2.2411    1.8165    3.2209 C   0  0  0  0  0  0  0  0  0  0  0  0
    1.0612    2.4468    2.8856 C   0  0  0  0  0  0  0  0  0  0  0  0
   -0.2000    1.2875    2.4971 S   0  0  0  0  0  0  0  0  0  0  0  0
    0.8745   -0.0344    2.8059 C   0  0  0  0  0  0  0  0  0  0  0  0
    3.1089   -1.3876    4.6089 C   0  0  0  0  0  0  0  0  0  0  0  0
    3.2685   -2.7636    3.9595 C   0  0  2  0  0  0  0  0  0  0  0  0
    1.3389   -8.6778    4.8955 C   0  0  1  0  0  0  0  0  0  0  0  0
    0.9794   -9.2492    6.1370 O   0  0  0  0  0  0  0  0  0  0  0  0
    0.8860   -9.4665    3.6750 C   0  0  2  0  0  0  0  0  0  0  0  0
    1.0210  -11.0000    3.8045 C   0  0  0  0  0  0  0  0  0  0  0  0
    4.1805   -5.9941    0.4192 H   0  0  0  0  0  0  0  0  0  0  0  0
    2.7385   -5.0127    0.7256 H   0  0  0  0  0  0  0  0  0  0  0  0
    2.6305   -6.7273    0.5228 H   0  0  0  0  0  0  0  0  0  0  0  0
    4.8838   -7.6780    2.1286 H   0  0  0  0  0  0  0  0  0  0  0  0
    4.6454   -8.7902    3.9659 H   0  0  0  0  0  0  0  0  0  0  0  0
    3.1697   -8.7051    1.0523 H   0  0  0  0  0  0  0  0  0  0  0  0
    3.6165  -10.6025    1.7551 H   0  0  0  0  0  0  0  0  0  0  0  0
    1.2425   -9.5998    1.6123 H   0  0  0  0  0  0  0  0  0  0  0  0
    0.7918   -7.1632    1.1741 H   0  0  0  0  0  0  0  0  0  0  0  0
   -1.5041   -7.4380    2.3005 H   0  0  0  0  0  0  0  0  0  0  0  0
   -0.9726   -8.8760    1.4366 H   0  0  0  0  0  0  0  0  0  0  0  0
   -1.3532   -9.7406    3.6530 H   0  0  0  0  0  0  0  0  0  0  0  0
    0.5549   -6.7508    5.5732 H   0  0  0  0  0  0  0  0  0  0  0  0
    0.0890   -5.9110    3.2690 H   0  0  0  0  0  0  0  0  0  0  0  0
    1.7925   -4.8565    2.7236 H   0  0  0  0  0  0  0  0  0  0  0  0
    1.5114   -4.6371    5.1203 H   0  0  0  0  0  0  0  0  0  0  0  0
    2.6998   -5.8841    5.4092 H   0  0  0  0  0  0  0  0  0  0  0  0
    3.6850   -3.7225    5.8761 H   0  0  0  0  0  0  0  0  0  0  0  0
    5.6843   -4.0054    4.4479 H   0  0  0  0  0  0  0  0  0  0  0  0
    4.7673   -6.4990    5.0551 H   0  0  0  0  0  0  0  0  0  0  0  0
    5.5984   -5.5583    2.5087 H   0  0  0  0  0  0  0  0  0  0  0  0
    5.3028   -2.2218    3.4950 H   0  0  0  0  0  0  0  0  0  0  0  0
    4.7064   -0.6081    1.8619 H   0  0  0  0  0  0  0  0  0  0  0  0
    3.1139   -1.3615    1.5814 H   0  0  0  0  0  0  0  0  0  0  0  0
    3.1497    2.3390    3.4671 H   0  0  0  0  0  0  0  0  0  0  0  0
    0.8565    3.5145    2.8044 H   0  0  0  0  0  0  0  0  0  0  0  0
    0.5225   -1.0415    2.6753 H   0  0  0  0  0  0  0  0  0  0  0  0
    3.8913   -1.2238    5.3673 H   0  0  0  0  0  0  0  0  0  0  0  0
    2.1266   -1.2803    5.0723 H   0  0  0  0  0  0  0  0  0  0  0  0
    2.3511   -2.9291    3.3928 H   0  0  0  0  0  0  0  0  0  0  0  0
    2.3988   -8.5479    4.9339 H   0  0  0  0  0  0  0  0  0  0  0  0
    1.3498  -10.1234    6.1781 H   0  0  0  0  0  0  0  0  0  0  0  0
    0.3842  -11.3854    4.6010 H   0  0  0  0  0  0  0  0  0  0  0  0
    2.0407  -11.3043    4.0310 H   0  0  0  0  0  0  0  0  0  0  0  0
    0.7200  -11.5161    2.8915 H   0  0  0  0  0  0  0  0  0  0  0  0
    4.0591    0.1968    3.8122 H   0  0  0  0  0  0  0  0  0  0  0  0
  2  1  1  6
  1 36  1  0
  1 37  1  0
  1 38  1  0
  2 14  1  0
  2 19  1  0
  2  3  1  0
  3  4  1  0
  3  5  1  0
  3 39  1  6
  4 40  1  0
  5  6  1  0
  5  7  1  0
  5 41  1  6
  6 42  1  0
  7 34  1  0
  7  8  1  0
  7 43  1  6
  8 13  1  0
  8  9  1  0
  8 44  1  6
  9 10  1  0
  9 45  1  0
  9 46  1  0
 10 34  1  0
 10 11  1  0
 10 47  1  1
 11 12  1  0
 12 13  1  0
 12 32  1  0
 12 48  1  1
 13 14  1  0
 13 49  1  6
 14 15  1  0
 14 50  1  6
 15 16  1  0
 15 51  1  0
 15 52  1  0
 16 31  1  0
 16 17  1  0
 16 53  1  1
 17 18  1  0
 17 19  1  0
 17 54  1  6
 18 55  1  0
 19 20  1  0
 19 56  1  6
 20 21  2  0
 20 22  1  0
 22 31  1  0
 22 23  1  0
 22 57  1  1
 23 24  1  0
 23 58  1  0
 23 59  1  0
 24 25  1  0
 24 30  1  0
 24 71  1  1
 25 29  2  0
 25 26  1  0
 26 27  2  0
 26 60  1  0
 27 28  1  0
 27 61  1  0
 28 29  1  0
 29 62  1  0
 30 31  1  0
 30 63  1  0
 30 64  1  0
 31 65  1  6
 32 33  1  0
 32 34  1  0
 32 66  1  1
 33 67  1  0
 34 35  1  1
 35 68  1  0
 35 69  1  0
 35 70  1  0
M  CHG  1  24   1
M  END
>  <i_m_ct_stereo_status>  (224) 
1

>  <s_m_source_file>  (224) 
/var/tmp/pbs.5076255.sched01/tmpbzpkhbzu/844yn2io63.sdf

>  <i_m_source_file_index>  (224) 
15

>  <i_lp_mmshare_version>  (224) 
48012

>  <i_f3d_flags>  (224) 
0

>  <s_epik_input>  (224) 
W09IXVtDQEBIXTFbQ0BASF0yT1tDQEBIXShbQ0gyXTMpW0NAQF0xKFtDSDNdKVtDQEhdKFtDQEhdKFtPSF0pW0NAQEhdNFtPSF0pW0NAQEhdM1tDQEBIXTJbQ0BIXShbQ0BdNDVbQ0gzXSlbQ0gyXVtDQEBIXTZbQ0BASF03W0NAQEhdKEMoPU8pW0NASF01W0NAQEhdNltPSF0pW0NIMl1OKFtDSDJdNyljOFtjSF1bY0hdc1tjSF04

>  <s_epik_cmdline>  (224) 
J2VwaWtfcHl0aG9uJywgJy1waHQnLCAnMi4wJywgJy1waCcsICc3LjAnLCAnLXRuJywgJzgnLCAnLW1hJywgJzIwMCcsICctaW1hZScsICc8aW5maWxlLm1hZT4nLCAnLW9tYWUnLCAnPG91dGZpbGUubWFlPic=

>  <r_epik_Ionization_Penalty>  (224) 
0.00712413

>  <r_epik_Ionization_Penalty_Charging>  (224) 
0.00712363

>  <r_epik_Ionization_Penalty_Neutral>  (224) 
4.91586e-07

>  <r_epik_State_Penalty>  (224) 
0.00530581

>  <r_epik_Charging_Adjusted_Penalty>  (224) 
0.0124294

>  <i_epik_Tot_Q>  (224) 
1

>  <i_epik_Tot_abs_Q>  (224) 
1

>  <s_lp_Force_Field>  (224) 
OPLS3e

>  <r_lp_Energy>  (224) 
105.341

>  <b_lp_Chiralities_Consistent>  (224) 
1

>  <s_lp_Variant>  (224) 
70:0-1

>  <s_i_glide_gridfile>  (224) 
pfpi4k_grid

>  <i_i_glide_lignum>  (224) 
15

>  <i_i_glide_rotatable_bonds>  (224) 
5

>  <r_i_docking_score>  (224) 
-3.33507

>  <r_i_glide_ligand_efficiency>  (224) 
-0.0952878

>  <r_i_glide_ligand_efficiency_sa>  (224) 
-0.311693

>  <r_i_glide_ligand_efficiency_ln>  (224) 
-0.732122

>  <r_i_glide_gscore>  (224) 
-3.33507

>  <r_i_glide_lipo>  (224) 
-0.16723

>  <r_i_glide_hbond>  (224) 
0

>  <r_i_glide_metal>  (224) 
-0

>  <r_i_glide_rewards>  (224) 
-0.533203

>  <r_i_glide_evdw>  (224) 
-34.2244

>  <r_i_glide_ecoul>  (224) 
-6.69535

>  <r_i_glide_erotb>  (224) 
0.0808807

>  <r_i_glide_esite>  (224) 
0

>  <r_i_glide_emodel>  (224) 
-54.4849

>  <r_i_glide_energy>  (224) 
-40.9197

>  <r_i_glide_einternal>  (224) 
1.51915

>  <r_i_glide_intrahb_reward>  (224) 
-0.5

>  <i_i_glide_confnum>  (224) 
4

>  <i_i_glide_posenum>  (224) 
1

>  <r_i_glide_eff_state_penalty>  (224) 
0

>  <ligand_id>  (224) 
70

>  <original_smiles>  (224) 
CC12C(O)C(O)C3C4CC5OC(C4C1CC1C(O)C2C(=O)C2CN(c4ccsc4)CC21)C(O)C53C

>  <smiles>  (224) 
[H]OC1([H])C2([H])C(=O)C3([H])C([H])(C1([H])C([H])([H])C1([H])C4([H])C5([H])OC6([H])C([H])([H])C4([H])C([H])(C([H])(O[H])C([H])(O[H])C21C([H])([H])[H])C6(C([H])([H])[H])C5([H])O[H])C([H])([H])[N+]([H])(c1c([H])sc([H])c1[H])C3([H])[H]

$$$$
71:0:0
     RDKit          3D

 40 42  0  0  1  0  0  0  0  0999 V2000
    3.6891   -0.5260   -3.5180 C   0  0  0  0  0  0  0  0  0  0  0  0
    4.5729   -1.3843   -2.5899 C   0  0  2  0  0  0  0  0  0  0  0  0
    5.0136   -2.7351   -3.1765 C   0  0  0  0  0  0  0  0  0  0  0  0
    4.7490   -3.7339   -2.0574 C   0  0  1  0  0  0  0  0  0  0  0  0
    5.9330   -3.6823   -1.2403 O   0  0  0  0  0  0  0  0  0  0  0  0
    5.8730   -3.0175    0.0284 C   0  0  2  0  0  0  0  0  0  0  0  0
    5.4101   -4.0996    1.0334 C   0  0  1  0  0  0  0  0  0  0  0  0
    5.4172   -3.6528    2.3740 O   0  0  0  0  0  0  0  0  0  0  0  0
    4.1189   -4.8300    0.6176 C   0  0  1  0  0  0  0  0  0  0  0  0
    3.5747   -5.5529    1.7040 O   0  0  0  0  0  0  0  0  0  0  0  0
    3.0373   -3.9876   -0.1075 C   0  0  1  0  0  0  0  0  0  0  0  0
    2.2904   -3.1444    0.7402 O   0  0  0  0  0  0  0  0  0  0  0  0
    3.4734   -3.1893   -1.3734 C   0  0  2  0  0  0  0  0  0  0  0  0
    2.2417   -3.2581   -2.3279 C   0  0  0  0  0  0  0  0  0  0  0  0
    3.9709   -1.7267   -1.1856 C   0  0  1  0  0  0  0  0  0  0  0  0
    5.0614   -1.6718   -0.0557 C   0  0  1  0  0  0  0  0  0  0  0  0
    4.5425   -1.0970    1.2860 C   0  0  0  0  0  0  0  0  0  0  0  0
    6.0137   -0.6577   -0.3024 O   0  0  0  0  0  0  0  0  0  0  0  0
    2.6745   -0.8987   -3.6425 H   0  0  0  0  0  0  0  0  0  0  0  0
    4.1354   -0.4224   -4.5059 H   0  0  0  0  0  0  0  0  0  0  0  0
    3.5965    0.4828   -3.1190 H   0  0  0  0  0  0  0  0  0  0  0  0
    5.4652   -0.7839   -2.5080 H   0  0  0  0  0  0  0  0  0  0  0  0
    4.4328   -2.9871   -4.0634 H   0  0  0  0  0  0  0  0  0  0  0  0
    6.0618   -2.7559   -3.4778 H   0  0  0  0  0  0  0  0  0  0  0  0
    4.6219   -4.7257   -2.4791 H   0  0  0  0  0  0  0  0  0  0  0  0
    6.9012   -2.7851    0.3114 H   0  0  0  0  0  0  0  0  0  0  0  0
    6.1838   -4.8699    1.0330 H   0  0  0  0  0  0  0  0  0  0  0  0
    4.7138   -3.0282    2.4843 H   0  0  0  0  0  0  0  0  0  0  0  0
    4.4290   -5.6042   -0.0929 H   0  0  0  0  0  0  0  0  0  0  0  0
    2.9854   -6.2130    1.3709 H   0  0  0  0  0  0  0  0  0  0  0  0
    2.3175   -4.7385   -0.4243 H   0  0  0  0  0  0  0  0  0  0  0  0
    1.9524   -2.4237    0.2200 H   0  0  0  0  0  0  0  0  0  0  0  0
    1.4221   -2.6614   -1.9405 H   0  0  0  0  0  0  0  0  0  0  0  0
    1.8259   -4.2515   -2.4199 H   0  0  0  0  0  0  0  0  0  0  0  0
    2.4236   -2.9458   -3.3500 H   0  0  0  0  0  0  0  0  0  0  0  0
    3.1489   -1.0496   -0.9490 H   0  0  0  0  0  0  0  0  0  0  0  0
    3.8175   -1.7101    1.8054 H   0  0  0  0  0  0  0  0  0  0  0  0
    4.0729   -0.1218    1.1430 H   0  0  0  0  0  0  0  0  0  0  0  0
    5.3688   -0.9712    1.9878 H   0  0  0  0  0  0  0  0  0  0  0  0
    5.5625    0.1821   -0.3152 H   0  0  0  0  0  0  0  0  0  0  0  0
  1  2  1  0
  1 19  1  0
  1 20  1  0
  1 21  1  0
  2 15  1  0
  2  3  1  0
  2 22  1  1
  3  4  1  0
  3 23  1  0
  3 24  1  0
  4 13  1  0
  4  5  1  0
  4 25  1  6
  5  6  1  0
  6 16  1  0
  6  7  1  0
  6 26  1  1
  7  8  1  0
  7  9  1  0
  7 27  1  1
  8 28  1  0
  9 10  1  0
  9 11  1  0
  9 29  1  6
 10 30  1  0
 11 12  1  0
 11 13  1  0
 11 31  1  6
 12 32  1  0
 13 14  1  6
 13 15  1  0
 14 33  1  0
 14 34  1  0
 14 35  1  0
 15 16  1  0
 15 36  1  1
 16 17  1  0
 16 18  1  6
 17 37  1  0
 17 38  1  0
 17 39  1  0
 18 40  1  0
M  END
>  <i_m_ct_stereo_status>  (225) 
1

>  <s_m_source_file>  (225) 
/var/tmp/pbs.5076255.sched01/tmpbzpkhbzu/844yn2io63.sdf

>  <i_m_source_file_index>  (225) 
16

>  <i_lp_mmshare_version>  (225) 
48012

>  <i_f3d_flags>  (225) 
0

>  <s_epik_input>  (225) 
W0NIM11bQ0BdMTJbQ0BIXTNbQ0gyXVtDQEBIXShbQ0gzXSlbQ0BASF0yW0NAXShbQ0gzXSkoW09IXSlbQ0BIXShPMylbQ0BASF0oW09IXSlbQ0BASF0oW09IXSlbQ0BIXTFbT0hd

>  <s_epik_cmdline>  (225) 
J2VwaWtfcHl0aG9uJywgJy1waHQnLCAnMi4wJywgJy1waCcsICc3LjAnLCAnLXRuJywgJzgnLCAnLW1hJywgJzIwMCcsICctaW1hZScsICc8aW5maWxlLm1hZT4nLCAnLW9tYWUnLCAnPG91dGZpbGUubWFlPic=

>  <r_lp_tautomer_probability>  (225) 
1

>  <r_epik_Ionization_Penalty>  (225) 
2.09055e-07

>  <r_epik_Ionization_Penalty_Charging>  (225) 
0

>  <r_epik_Ionization_Penalty_Neutral>  (225) 
2.09055e-07

>  <r_epik_State_Penalty>  (225) 
-0

>  <r_epik_Charging_Adjusted_Penalty>  (225) 
0

>  <i_epik_Tot_Q>  (225) 
0

>  <i_epik_Tot_abs_Q>  (225) 
0

>  <s_lp_Force_Field>  (225) 
OPLS3e

>  <r_lp_Energy>  (225) 
49.0369

>  <b_lp_Chiralities_Consistent>  (225) 
1

>  <s_lp_Variant>  (225) 
71:0-1

>  <s_i_glide_gridfile>  (225) 
pfpi4k_grid

>  <i_i_glide_lignum>  (225) 
16

>  <i_i_glide_rotatable_bonds>  (225) 
4

>  <r_i_docking_score>  (225) 
-4.30868

>  <r_i_glide_ligand_efficiency>  (225) 
-0.239371

>  <r_i_glide_ligand_efficiency_sa>  (225) 
-0.62733

>  <r_i_glide_ligand_efficiency_ln>  (225) 
-1.10752

>  <r_i_glide_gscore>  (225) 
-4.30868

>  <r_i_glide_lipo>  (225) 
-0.737817

>  <r_i_glide_hbond>  (225) 
0

>  <r_i_glide_metal>  (225) 
-0

>  <r_i_glide_rewards>  (225) 
-1.64788

>  <r_i_glide_evdw>  (225) 
-19.9693

>  <r_i_glide_ecoul>  (225) 
-6.16343

>  <r_i_glide_erotb>  (225) 
0

>  <r_i_glide_esite>  (225) 
0

>  <r_i_glide_emodel>  (225) 
-32.4587

>  <r_i_glide_energy>  (225) 
-26.1328

>  <r_i_glide_einternal>  (225) 
1.73017

>  <r_i_glide_intrahb_reward>  (225) 
-0

>  <i_i_glide_confnum>  (225) 
1

>  <i_i_glide_posenum>  (225) 
11

>  <r_i_glide_eff_state_penalty>  (225) 
0

>  <ligand_id>  (225) 
71

>  <original_smiles>  (225) 
CC1CC2OC3C(O)C(O)C(O)C2(C)C1C3(C)O

>  <smiles>  (225) 
[H]OC1([H])C([H])(O[H])C([H])(O[H])C2(C([H])([H])[H])C3([H])OC1([H])C(O[H])(C([H])([H])[H])C2([H])C([H])(C([H])([H])[H])C3([H])[H]

$$$$
71:0:1
     RDKit          3D

 40 42  0  0  1  0  0  0  0  0999 V2000
    3.6893   -0.5425   -3.5126 C   0  0  0  0  0  0  0  0  0  0  0  0
    4.5765   -1.3956   -2.5820 C   0  0  2  0  0  0  0  0  0  0  0  0
    5.0097   -2.7527   -3.1595 C   0  0  0  0  0  0  0  0  0  0  0  0
    4.7400   -3.7441   -2.0334 C   0  0  1  0  0  0  0  0  0  0  0  0
    5.9253   -3.6886   -1.2144 O   0  0  0  0  0  0  0  0  0  0  0  0
    5.8675   -3.0143    0.0488 C   0  0  2  0  0  0  0  0  0  0  0  0
    5.4012   -4.0919    1.0557 C   0  0  1  0  0  0  0  0  0  0  0  0
    5.3877   -3.6436    2.4013 O   0  0  0  0  0  0  0  0  0  0  0  0
    4.1085   -4.8175    0.6467 C   0  0  1  0  0  0  0  0  0  0  0  0
    3.5348   -5.5074    1.7433 O   0  0  0  0  0  0  0  0  0  0  0  0
    3.0357   -3.9827   -0.0837 C   0  0  1  0  0  0  0  0  0  0  0  0
    2.3050   -3.1303    0.7705 O   0  0  0  0  0  0  0  0  0  0  0  0
    3.4694   -3.1930   -1.3552 C   0  0  2  0  0  0  0  0  0  0  0  0
    2.2379   -3.2615   -2.3018 C   0  0  0  0  0  0  0  0  0  0  0  0
    3.9720   -1.7283   -1.1767 C   0  0  1  0  0  0  0  0  0  0  0  0
    5.0651   -1.6696   -0.0485 C   0  0  1  0  0  0  0  0  0  0  0  0
    4.5475   -1.0881    1.2882 C   0  0  0  0  0  0  0  0  0  0  0  0
    6.0195   -0.6560   -0.2898 O   0  0  0  0  0  0  0  0  0  0  0  0
    2.6734   -0.9138   -3.6365 H   0  0  0  0  0  0  0  0  0  0  0  0
    4.1356   -0.4500   -4.5047 H   0  0  0  0  0  0  0  0  0  0  0  0
    3.5988    0.4698   -3.1201 H   0  0  0  0  0  0  0  0  0  0  0  0
    5.4708   -0.7962   -2.5082 H   0  0  0  0  0  0  0  0  0  0  0  0
    4.4299   -3.0137   -4.0456 H   0  0  0  0  0  0  0  0  0  0  0  0
    6.0583   -2.7765   -3.4594 H   0  0  0  0  0  0  0  0  0  0  0  0
    4.6165   -4.7415   -2.4390 H   0  0  0  0  0  0  0  0  0  0  0  0
    6.8986   -2.7865    0.3272 H   0  0  0  0  0  0  0  0  0  0  0  0
    6.1699   -4.8655    1.0605 H   0  0  0  0  0  0  0  0  0  0  0  0
    6.2511   -3.3179    2.6098 H   0  0  0  0  0  0  0  0  0  0  0  0
    4.4001   -5.6024   -0.0501 H   0  0  0  0  0  0  0  0  0  0  0  0
    3.3725   -4.8556    2.4104 H   0  0  0  0  0  0  0  0  0  0  0  0
    2.3175   -4.7441   -0.3897 H   0  0  0  0  0  0  0  0  0  0  0  0
    1.9458   -2.4178    0.2500 H   0  0  0  0  0  0  0  0  0  0  0  0
    1.4207   -2.6614   -1.9274 H   0  0  0  0  0  0  0  0  0  0  0  0
    1.8124   -4.2574   -2.3912 H   0  0  0  0  0  0  0  0  0  0  0  0
    2.4152   -2.9659   -3.3232 H   0  0  0  0  0  0  0  0  0  0  0  0
    3.1530   -1.0495   -0.9410 H   0  0  0  0  0  0  0  0  0  0  0  0
    3.8294   -1.7062    1.8101 H   0  0  0  0  0  0  0  0  0  0  0  0
    4.0712   -0.1146    1.1471 H   0  0  0  0  0  0  0  0  0  0  0  0
    5.3684   -0.9584    1.9987 H   0  0  0  0  0  0  0  0  0  0  0  0
    5.5715    0.1890   -0.3220 H   0  0  0  0  0  0  0  0  0  0  0  0
  1  2  1  0
  1 19  1  0
  1 20  1  0
  1 21  1  0
  2 15  1  0
  2  3  1  0
  2 22  1  1
  3  4  1  0
  3 23  1  0
  3 24  1  0
  4 13  1  0
  4  5  1  0
  4 25  1  6
  5  6  1  0
  6 16  1  0
  6  7  1  0
  6 26  1  1
  7  8  1  0
  7  9  1  0
  7 27  1  1
  8 28  1  0
  9 10  1  0
  9 11  1  0
  9 29  1  6
 10 30  1  0
 11 12  1  0
 11 13  1  0
 11 31  1  6
 12 32  1  0
 13 14  1  6
 13 15  1  0
 14 33  1  0
 14 34  1  0
 14 35  1  0
 15 16  1  0
 15 36  1  1
 16 17  1  0
 16 18  1  6
 17 37  1  0
 17 38  1  0
 17 39  1  0
 18 40  1  0
M  END
>  <i_m_ct_stereo_status>  (226) 
1

>  <s_m_source_file>  (226) 
/var/tmp/pbs.5076255.sched01/tmpbzpkhbzu/844yn2io63.sdf

>  <i_m_source_file_index>  (226) 
16

>  <i_lp_mmshare_version>  (226) 
48012

>  <i_f3d_flags>  (226) 
0

>  <s_epik_input>  (226) 
W0NIM11bQ0BdMTJbQ0BIXTNbQ0gyXVtDQEBIXShbQ0gzXSlbQ0BASF0yW0NAXShbQ0gzXSkoW09IXSlbQ0BIXShPMylbQ0BASF0oW09IXSlbQ0BASF0oW09IXSlbQ0BIXTFbT0hd

>  <s_epik_cmdline>  (226) 
J2VwaWtfcHl0aG9uJywgJy1waHQnLCAnMi4wJywgJy1waCcsICc3LjAnLCAnLXRuJywgJzgnLCAnLW1hJywgJzIwMCcsICctaW1hZScsICc8aW5maWxlLm1hZT4nLCAnLW9tYWUnLCAnPG91dGZpbGUubWFlPic=

>  <r_lp_tautomer_probability>  (226) 
1

>  <r_epik_Ionization_Penalty>  (226) 
2.09055e-07

>  <r_epik_Ionization_Penalty_Charging>  (226) 
0

>  <r_epik_Ionization_Penalty_Neutral>  (226) 
2.09055e-07

>  <r_epik_State_Penalty>  (226) 
-0

>  <r_epik_Charging_Adjusted_Penalty>  (226) 
0

>  <i_epik_Tot_Q>  (226) 
0

>  <i_epik_Tot_abs_Q>  (226) 
0

>  <s_lp_Force_Field>  (226) 
OPLS3e

>  <r_lp_Energy>  (226) 
49.0369

>  <b_lp_Chiralities_Consistent>  (226) 
1

>  <s_lp_Variant>  (226) 
71:0-1

>  <s_i_glide_gridfile>  (226) 
pfpi4k_grid

>  <i_i_glide_lignum>  (226) 
16

>  <i_i_glide_rotatable_bonds>  (226) 
4

>  <r_i_docking_score>  (226) 
-4.26631

>  <r_i_glide_ligand_efficiency>  (226) 
-0.237017

>  <r_i_glide_ligand_efficiency_sa>  (226) 
-0.62116

>  <r_i_glide_ligand_efficiency_ln>  (226) 
-1.09663

>  <r_i_glide_gscore>  (226) 
-4.26631

>  <r_i_glide_lipo>  (226) 
-0.742984

>  <r_i_glide_hbond>  (226) 
0

>  <r_i_glide_metal>  (226) 
-0

>  <r_i_glide_rewards>  (226) 
-1.64788

>  <r_i_glide_evdw>  (226) 
-20.0684

>  <r_i_glide_ecoul>  (226) 
-5.81347

>  <r_i_glide_erotb>  (226) 
0

>  <r_i_glide_esite>  (226) 
0

>  <r_i_glide_emodel>  (226) 
-32.2036

>  <r_i_glide_energy>  (226) 
-25.8819

>  <r_i_glide_einternal>  (226) 
1.60396

>  <r_i_glide_intrahb_reward>  (226) 
-0

>  <i_i_glide_confnum>  (226) 
1

>  <i_i_glide_posenum>  (226) 
20

>  <r_i_glide_eff_state_penalty>  (226) 
0

>  <ligand_id>  (226) 
71

>  <original_smiles>  (226) 
CC1CC2OC3C(O)C(O)C(O)C2(C)C1C3(C)O

>  <smiles>  (226) 
[H]OC1([H])C([H])(O[H])C([H])(O[H])C2(C([H])([H])[H])C3([H])OC1([H])C(O[H])(C([H])([H])[H])C2([H])C([H])(C([H])([H])[H])C3([H])[H]

$$$$
71:0:2
     RDKit          3D

 40 42  0  0  1  0  0  0  0  0999 V2000
    4.0920   -0.6406   -3.3900 C   0  0  0  0  0  0  0  0  0  0  0  0
    4.8920   -1.4753   -2.3648 C   0  0  2  0  0  0  0  0  0  0  0  0
    5.3165   -2.8762   -2.8507 C   0  0  0  0  0  0  0  0  0  0  0  0
    4.9315   -3.8040   -1.6933 C   0  0  1  0  0  0  0  0  0  0  0  0
    6.0494   -3.7356   -0.7881 O   0  0  0  0  0  0  0  0  0  0  0  0
    5.9221   -2.9950    0.4340 C   0  0  2  0  0  0  0  0  0  0  0  0
    5.3332   -3.9916    1.4615 C   0  0  1  0  0  0  0  0  0  0  0  0
    5.2315   -3.4794    2.7768 O   0  0  0  0  0  0  0  0  0  0  0  0
    4.0537   -4.6994    0.9875 C   0  0  1  0  0  0  0  0  0  0  0  0
    3.3583   -5.3167    2.0503 O   0  0  0  0  0  0  0  0  0  0  0  0
    3.0780   -3.8711    0.1268 C   0  0  1  0  0  0  0  0  0  0  0  0
    2.3300   -2.9387    0.8846 O   0  0  0  0  0  0  0  0  0  0  0  0
    3.6363   -3.1700   -1.1407 C   0  0  2  0  0  0  0  0  0  0  0  0
    2.4797   -3.2700   -2.1839 C   0  0  0  0  0  0  0  0  0  0  0  0
    4.1767   -1.7131   -0.9968 C   0  0  1  0  0  0  0  0  0  0  0  0
    5.1830   -1.6283    0.2067 C   0  0  1  0  0  0  0  0  0  0  0  0
    4.5916   -0.9449    1.4669 C   0  0  0  0  0  0  0  0  0  0  0  0
    6.2057   -0.6762   -0.0112 O   0  0  0  0  0  0  0  0  0  0  0  0
    3.0742   -0.9840   -3.5756 H   0  0  0  0  0  0  0  0  0  0  0  0
    4.6085   -0.6052   -4.3508 H   0  0  0  0  0  0  0  0  0  0  0  0
    4.0062    0.3912   -3.0431 H   0  0  0  0  0  0  0  0  0  0  0  0
    5.8054   -0.9081   -2.2631 H   0  0  0  0  0  0  0  0  0  0  0  0
    4.7991   -3.1556   -3.7718 H   0  0  0  0  0  0  0  0  0  0  0  0
    6.3846   -2.9365   -3.0776 H   0  0  0  0  0  0  0  0  0  0  0  0
    4.7997   -4.8226   -2.0476 H   0  0  0  0  0  0  0  0  0  0  0  0
    6.9343   -2.7843    0.7800 H   0  0  0  0  0  0  0  0  0  0  0  0
    6.0764   -4.7829    1.5666 H   0  0  0  0  0  0  0  0  0  0  0  0
    4.5998   -2.7671    2.7804 H   0  0  0  0  0  0  0  0  0  0  0  0
    4.3743   -5.5278    0.3582 H   0  0  0  0  0  0  0  0  0  0  0  0
    3.0875   -4.6261    2.6483 H   0  0  0  0  0  0  0  0  0  0  0  0
    2.3396   -4.6103   -0.1839 H   0  0  0  0  0  0  0  0  0  0  0  0
    1.8868   -2.3497    0.2895 H   0  0  0  0  0  0  0  0  0  0  0  0
    1.6321   -2.6642   -1.9139 H   0  0  0  0  0  0  0  0  0  0  0  0
    2.0420   -4.2551   -2.2494 H   0  0  0  0  0  0  0  0  0  0  0  0
    2.7371   -3.0335   -3.2099 H   0  0  0  0  0  0  0  0  0  0  0  0
    3.3687   -0.9911   -0.8658 H   0  0  0  0  0  0  0  0  0  0  0  0
    3.8039   -1.4901    1.9666 H   0  0  0  0  0  0  0  0  0  0  0  0
    4.1734    0.0367    1.2338 H   0  0  0  0  0  0  0  0  0  0  0  0
    5.3632   -0.8010    2.2280 H   0  0  0  0  0  0  0  0  0  0  0  0
    5.8067    0.1851   -0.0839 H   0  0  0  0  0  0  0  0  0  0  0  0
  1  2  1  0
  1 19  1  0
  1 20  1  0
  1 21  1  0
  2 15  1  0
  2  3  1  0
  2 22  1  1
  3  4  1  0
  3 23  1  0
  3 24  1  0
  4 13  1  0
  4  5  1  0
  4 25  1  6
  5  6  1  0
  6 16  1  0
  6  7  1  0
  6 26  1  1
  7  8  1  0
  7  9  1  0
  7 27  1  1
  8 28  1  0
  9 10  1  0
  9 11  1  0
  9 29  1  6
 10 30  1  0
 11 12  1  0
 11 13  1  0
 11 31  1  6
 12 32  1  0
 13 14  1  6
 13 15  1  0
 14 33  1  0
 14 34  1  0
 14 35  1  0
 15 16  1  0
 15 36  1  1
 16 17  1  0
 16 18  1  6
 17 37  1  0
 17 38  1  0
 17 39  1  0
 18 40  1  0
M  END
>  <i_m_ct_stereo_status>  (227) 
1

>  <s_m_source_file>  (227) 
/var/tmp/pbs.5076255.sched01/tmpbzpkhbzu/844yn2io63.sdf

>  <i_m_source_file_index>  (227) 
16

>  <i_lp_mmshare_version>  (227) 
48012

>  <i_f3d_flags>  (227) 
0

>  <s_epik_input>  (227) 
W0NIM11bQ0BdMTJbQ0BIXTNbQ0gyXVtDQEBIXShbQ0gzXSlbQ0BASF0yW0NAXShbQ0gzXSkoW09IXSlbQ0BIXShPMylbQ0BASF0oW09IXSlbQ0BASF0oW09IXSlbQ0BIXTFbT0hd

>  <s_epik_cmdline>  (227) 
J2VwaWtfcHl0aG9uJywgJy1waHQnLCAnMi4wJywgJy1waCcsICc3LjAnLCAnLXRuJywgJzgnLCAnLW1hJywgJzIwMCcsICctaW1hZScsICc8aW5maWxlLm1hZT4nLCAnLW9tYWUnLCAnPG91dGZpbGUubWFlPic=

>  <r_lp_tautomer_probability>  (227) 
1

>  <r_epik_Ionization_Penalty>  (227) 
2.09055e-07

>  <r_epik_Ionization_Penalty_Charging>  (227) 
0

>  <r_epik_Ionization_Penalty_Neutral>  (227) 
2.09055e-07

>  <r_epik_State_Penalty>  (227) 
-0

>  <r_epik_Charging_Adjusted_Penalty>  (227) 
0

>  <i_epik_Tot_Q>  (227) 
0

>  <i_epik_Tot_abs_Q>  (227) 
0

>  <s_lp_Force_Field>  (227) 
OPLS3e

>  <r_lp_Energy>  (227) 
49.0369

>  <b_lp_Chiralities_Consistent>  (227) 
1

>  <s_lp_Variant>  (227) 
71:0-1

>  <s_i_glide_gridfile>  (227) 
pfpi4k_grid

>  <i_i_glide_lignum>  (227) 
16

>  <i_i_glide_rotatable_bonds>  (227) 
4

>  <r_i_docking_score>  (227) 
-4.24944

>  <r_i_glide_ligand_efficiency>  (227) 
-0.23608

>  <r_i_glide_ligand_efficiency_sa>  (227) 
-0.618705

>  <r_i_glide_ligand_efficiency_ln>  (227) 
-1.0923

>  <r_i_glide_gscore>  (227) 
-4.24944

>  <r_i_glide_lipo>  (227) 
-0.747353

>  <r_i_glide_hbond>  (227) 
0

>  <r_i_glide_metal>  (227) 
-0

>  <r_i_glide_rewards>  (227) 
-1.64788

>  <r_i_glide_evdw>  (227) 
-20.6293

>  <r_i_glide_ecoul>  (227) 
-5.48496

>  <r_i_glide_erotb>  (227) 
0

>  <r_i_glide_esite>  (227) 
0

>  <r_i_glide_emodel>  (227) 
-32.7918

>  <r_i_glide_energy>  (227) 
-26.1143

>  <r_i_glide_einternal>  (227) 
0.96578

>  <r_i_glide_intrahb_reward>  (227) 
-0

>  <i_i_glide_confnum>  (227) 
1

>  <i_i_glide_posenum>  (227) 
15

>  <r_i_glide_eff_state_penalty>  (227) 
0

>  <ligand_id>  (227) 
71

>  <original_smiles>  (227) 
CC1CC2OC3C(O)C(O)C(O)C2(C)C1C3(C)O

>  <smiles>  (227) 
[H]OC1([H])C([H])(O[H])C([H])(O[H])C2(C([H])([H])[H])C3([H])OC1([H])C(O[H])(C([H])([H])[H])C2([H])C([H])(C([H])([H])[H])C3([H])[H]

$$$$
72:0:0
     RDKit          3D

 23 25  0  0  1  0  0  0  0  0999 V2000
    1.6892   -5.4553    0.7208 O   0  0  0  0  0  0  0  0  0  0  0  0
    2.5856   -4.8672    0.1007 C   0  0  0  0  0  0  0  0  0  0  0  0
    2.3943   -3.8741   -0.8043 O   0  0  0  0  0  0  0  0  0  0  0  0
    3.4625   -3.1389   -1.4429 C   0  0  1  0  0  0  0  0  0  0  0  0
    3.1998   -2.8212   -2.8655 C   0  0  0  0  0  0  0  0  0  0  0  0
    2.2207   -3.0425   -3.5778 O   0  0  0  0  0  0  0  0  0  0  0  0
    4.4692   -2.1015   -3.2053 C   0  0  1  0  0  0  0  0  0  0  0  0
    4.3897   -0.9920   -2.1417 C   0  0  0  0  0  0  0  0  0  0  0  0
    3.8228   -1.7319   -0.8933 C   0  0  2  0  0  0  0  0  0  0  0  0
    4.8795   -2.0775    0.0979 C   0  0  0  0  0  0  0  0  0  0  0  0
    5.4702   -3.2019   -0.2353 C   0  0  0  0  0  0  0  0  0  0  0  0
    4.8818   -3.7661   -1.4961 C   0  0  2  0  0  0  0  0  0  0  0  0
    5.4939   -3.1737   -2.7838 C   0  0  0  0  0  0  0  0  0  0  0  0
    3.6474   -5.0862    0.1727 H   0  0  0  0  0  0  0  0  0  0  0  0
    4.5408   -1.7678   -4.2250 H   0  0  0  0  0  0  0  0  0  0  0  0
    5.3723   -0.5380   -1.9471 H   0  0  0  0  0  0  0  0  0  0  0  0
    3.7117   -0.2114   -2.4952 H   0  0  0  0  0  0  0  0  0  0  0  0
    3.0195   -1.1831   -0.4017 H   0  0  0  0  0  0  0  0  0  0  0  0
    5.0496   -1.5325    1.0200 H   0  0  0  0  0  0  0  0  0  0  0  0
    6.1963   -3.7186    0.3842 H   0  0  0  0  0  0  0  0  0  0  0  0
    4.9122   -4.8477   -1.5184 H   0  0  0  0  0  0  0  0  0  0  0  0
    5.5633   -3.9395   -3.5570 H   0  0  0  0  0  0  0  0  0  0  0  0
    6.4982   -2.7636   -2.6113 H   0  0  0  0  0  0  0  0  0  0  0  0
  1  2  2  0
  2  3  1  0
  2 14  1  0
  4  3  1  1
  4  9  1  0
  4 12  1  0
  4  5  1  0
  5  6  2  0
  5  7  1  0
  7 13  1  0
  7  8  1  0
  7 15  1  6
  8  9  1  0
  8 16  1  0
  8 17  1  0
  9 10  1  0
  9 18  1  1
 10 11  2  0
 10 19  1  0
 11 12  1  0
 11 20  1  0
 12 13  1  0
 12 21  1  6
 13 22  1  0
 13 23  1  0
M  END
>  <i_m_ct_stereo_status>  (228) 
1

>  <s_m_source_file>  (228) 
/var/tmp/pbs.5076255.sched01/tmpbzpkhbzu/844yn2io63.sdf

>  <i_m_source_file_index>  (228) 
17

>  <i_lp_mmshare_version>  (228) 
48012

>  <i_f3d_flags>  (228) 
0

>  <s_epik_input>  (228) 
Tz1bQ0hdT1tDQF0xMltDQEBIXTNbQ0gyXVtDQEhdKEMxPU8pW0NIMl1bQ0BIXTJbQ0hdPVtDSF0z

>  <s_epik_cmdline>  (228) 
J2VwaWtfcHl0aG9uJywgJy1waHQnLCAnMi4wJywgJy1waCcsICc3LjAnLCAnLXRuJywgJzgnLCAnLW1hJywgJzIwMCcsICctaW1hZScsICc8aW5maWxlLm1hZT4nLCAnLW9tYWUnLCAnPG91dGZpbGUubWFlPic=

>  <r_lp_tautomer_probability>  (228) 
1

>  <r_epik_Ionization_Penalty>  (228) 
7.96651e-12

>  <r_epik_Ionization_Penalty_Charging>  (228) 
0

>  <r_epik_Ionization_Penalty_Neutral>  (228) 
7.96651e-12

>  <r_epik_State_Penalty>  (228) 
-0

>  <r_epik_Charging_Adjusted_Penalty>  (228) 
0

>  <i_epik_Tot_Q>  (228) 
0

>  <i_epik_Tot_abs_Q>  (228) 
0

>  <s_epik_Chemistry_Notes>  (228) 
This compound has an ester and may undergo hydrolysis at high or low pH.

>  <s_lp_Force_Field>  (228) 
OPLS3e

>  <r_lp_Energy>  (228) 
26.2491

>  <b_lp_Chiralities_Consistent>  (228) 
1

>  <s_lp_Variant>  (228) 
72:0-1

>  <s_i_glide_gridfile>  (228) 
pfpi4k_grid

>  <i_i_glide_lignum>  (228) 
17

>  <i_i_glide_rotatable_bonds>  (228) 
2

>  <r_i_docking_score>  (228) 
-4.00973

>  <r_i_glide_ligand_efficiency>  (228) 
-0.308441

>  <r_i_glide_ligand_efficiency_sa>  (228) 
-0.725247

>  <r_i_glide_ligand_efficiency_ln>  (228) 
-1.12476

>  <r_i_glide_gscore>  (228) 
-4.00973

>  <r_i_glide_lipo>  (228) 
-0.365019

>  <r_i_glide_hbond>  (228) 
-0.111689

>  <r_i_glide_metal>  (228) 
-0

>  <r_i_glide_rewards>  (228) 
-2.1942

>  <r_i_glide_evdw>  (228) 
-20.9657

>  <r_i_glide_ecoul>  (228) 
-1.51667

>  <r_i_glide_erotb>  (228) 
0

>  <r_i_glide_esite>  (228) 
-0.0630384

>  <r_i_glide_emodel>  (228) 
-22.6725

>  <r_i_glide_energy>  (228) 
-22.4824

>  <r_i_glide_einternal>  (228) 
10.5949

>  <r_i_glide_intrahb_reward>  (228) 
-0

>  <i_i_glide_confnum>  (228) 
1

>  <i_i_glide_posenum>  (228) 
6

>  <r_i_glide_eff_state_penalty>  (228) 
0

>  <ligand_id>  (228) 
72

>  <original_smiles>  (228) 
O=COC12C(=O)C3CC1C=CC2C3

>  <smiles>  (228) 
[H]C(=O)OC12C(=O)C3([H])C([H])([H])C1([H])C([H])=C([H])C2([H])C3([H])[H]

$$$$
72:0:1
     RDKit          3D

 23 25  0  0  1  0  0  0  0  0999 V2000
    1.5766   -5.8046    0.5257 O   0  0  0  0  0  0  0  0  0  0  0  0
    2.6085   -5.1206    0.4592 C   0  0  0  0  0  0  0  0  0  0  0  0
    2.6851   -3.8571   -0.0591 O   0  0  0  0  0  0  0  0  0  0  0  0
    3.9552   -3.2223   -0.2691 C   0  0  1  0  0  0  0  0  0  0  0  0
    4.7676   -2.9237    0.9126 C   0  0  0  0  0  0  0  0  0  0  0  0
    4.5621   -3.1803    2.1092 O   0  0  0  0  0  0  0  0  0  0  0  0
    5.9195   -2.2347    0.2644 C   0  0  1  0  0  0  0  0  0  0  0  0
    6.3282   -3.3383   -0.7481 C   0  0  0  0  0  0  0  0  0  0  0  0
    4.9560   -3.9114   -1.2277 C   0  0  2  0  0  0  0  0  0  0  0  0
    4.5344   -3.3765   -2.5651 C   0  0  0  0  0  0  0  0  0  0  0  0
    3.9101   -2.2065   -2.4065 C   0  0  0  0  0  0  0  0  0  0  0  0
    3.8569   -1.8452   -0.9487 C   0  0  2  0  0  0  0  0  0  0  0  0
    5.1372   -1.1098   -0.4623 C   0  0  0  0  0  0  0  0  0  0  0  0
    3.5918   -5.4511    0.7755 H   0  0  0  0  0  0  0  0  0  0  0  0
    6.6822   -1.9027    0.9401 H   0  0  0  0  0  0  0  0  0  0  0  0
    6.9087   -2.9346   -1.5810 H   0  0  0  0  0  0  0  0  0  0  0  0
    6.9252   -4.1086   -0.2399 H   0  0  0  0  0  0  0  0  0  0  0  0
    4.9347   -4.9860   -1.2497 H   0  0  0  0  0  0  0  0  0  0  0  0
    4.6433   -3.8963   -3.5066 H   0  0  0  0  0  0  0  0  0  0  0  0
    3.4399   -1.6463   -3.1977 H   0  0  0  0  0  0  0  0  0  0  0  0
    2.9645   -1.2998   -0.7156 H   0  0  0  0  0  0  0  0  0  0  0  0
    4.8798   -0.3019    0.2437 H   0  0  0  0  0  0  0  0  0  0  0  0
    5.6949   -0.6875   -1.3005 H   0  0  0  0  0  0  0  0  0  0  0  0
  1  2  2  0
  2  3  1  0
  2 14  1  0
  4  3  1  1
  4  9  1  0
  4 12  1  0
  4  5  1  0
  5  6  2  0
  5  7  1  0
  7 13  1  0
  7  8  1  0
  7 15  1  1
  8  9  1  0
  8 16  1  0
  8 17  1  0
  9 10  1  0
  9 18  1  6
 10 11  2  0
 10 19  1  0
 11 12  1  0
 11 20  1  0
 12 13  1  0
 12 21  1  6
 13 22  1  0
 13 23  1  0
M  END
>  <i_m_ct_stereo_status>  (229) 
1

>  <s_m_source_file>  (229) 
/var/tmp/pbs.5076255.sched01/tmpbzpkhbzu/844yn2io63.sdf

>  <i_m_source_file_index>  (229) 
17

>  <i_lp_mmshare_version>  (229) 
48012

>  <i_f3d_flags>  (229) 
0

>  <s_epik_input>  (229) 
Tz1bQ0hdT1tDQF0xMltDQEBIXTNbQ0gyXVtDQEhdKEMxPU8pW0NIMl1bQ0BIXTJbQ0hdPVtDSF0z

>  <s_epik_cmdline>  (229) 
J2VwaWtfcHl0aG9uJywgJy1waHQnLCAnMi4wJywgJy1waCcsICc3LjAnLCAnLXRuJywgJzgnLCAnLW1hJywgJzIwMCcsICctaW1hZScsICc8aW5maWxlLm1hZT4nLCAnLW9tYWUnLCAnPG91dGZpbGUubWFlPic=

>  <r_lp_tautomer_probability>  (229) 
1

>  <r_epik_Ionization_Penalty>  (229) 
7.96651e-12

>  <r_epik_Ionization_Penalty_Charging>  (229) 
0

>  <r_epik_Ionization_Penalty_Neutral>  (229) 
7.96651e-12

>  <r_epik_State_Penalty>  (229) 
-0

>  <r_epik_Charging_Adjusted_Penalty>  (229) 
0

>  <i_epik_Tot_Q>  (229) 
0

>  <i_epik_Tot_abs_Q>  (229) 
0

>  <s_epik_Chemistry_Notes>  (229) 
This compound has an ester and may undergo hydrolysis at high or low pH.

>  <s_lp_Force_Field>  (229) 
OPLS3e

>  <r_lp_Energy>  (229) 
26.2491

>  <b_lp_Chiralities_Consistent>  (229) 
1

>  <s_lp_Variant>  (229) 
72:0-1

>  <s_i_glide_gridfile>  (229) 
pfpi4k_grid

>  <i_i_glide_lignum>  (229) 
17

>  <i_i_glide_rotatable_bonds>  (229) 
2

>  <r_i_docking_score>  (229) 
-3.87002

>  <r_i_glide_ligand_efficiency>  (229) 
-0.297694

>  <r_i_glide_ligand_efficiency_sa>  (229) 
-0.699978

>  <r_i_glide_ligand_efficiency_ln>  (229) 
-1.08558

>  <r_i_glide_gscore>  (229) 
-3.87002

>  <r_i_glide_lipo>  (229) 
-0.182273

>  <r_i_glide_hbond>  (229) 
-0.143804

>  <r_i_glide_metal>  (229) 
-0

>  <r_i_glide_rewards>  (229) 
-2.22534

>  <r_i_glide_evdw>  (229) 
-17.9139

>  <r_i_glide_ecoul>  (229) 
-2.53089

>  <r_i_glide_erotb>  (229) 
0

>  <r_i_glide_esite>  (229) 
-0.0432757

>  <r_i_glide_emodel>  (229) 
-24.5393

>  <r_i_glide_energy>  (229) 
-20.4448

>  <r_i_glide_einternal>  (229) 
3.30342

>  <r_i_glide_intrahb_reward>  (229) 
-0

>  <i_i_glide_confnum>  (229) 
2

>  <i_i_glide_posenum>  (229) 
21

>  <r_i_glide_eff_state_penalty>  (229) 
0

>  <ligand_id>  (229) 
72

>  <original_smiles>  (229) 
O=COC12C(=O)C3CC1C=CC2C3

>  <smiles>  (229) 
[H]C(=O)OC12C(=O)C3([H])C([H])([H])C1([H])C([H])=C([H])C2([H])C3([H])[H]

$$$$
72:0:2
     RDKit          3D

 23 25  0  0  1  0  0  0  0  0999 V2000
    1.8159   -5.4623    0.4106 O   0  0  0  0  0  0  0  0  0  0  0  0
    2.7436   -4.7102    0.1227 C   0  0  0  0  0  0  0  0  0  0  0  0
    2.6520   -3.6468   -0.7160 O   0  0  0  0  0  0  0  0  0  0  0  0
    3.8151   -2.9174   -1.1208 C   0  0  1  0  0  0  0  0  0  0  0  0
    4.6071   -2.2586   -0.0566 C   0  0  0  0  0  0  0  0  0  0  0  0
    4.4648   -2.2542    1.1660 O   0  0  0  0  0  0  0  0  0  0  0  0
    5.6489   -1.6030   -0.9031 C   0  0  1  0  0  0  0  0  0  0  0  0
    6.1817   -2.8516   -1.6535 C   0  0  0  0  0  0  0  0  0  0  0  0
    4.8877   -3.6813   -1.9365 C   0  0  2  0  0  0  0  0  0  0  0  0
    4.3613   -3.5201   -3.3391 C   0  0  0  0  0  0  0  0  0  0  0  0
    3.5900   -2.4506   -3.4219 C   0  0  0  0  0  0  0  0  0  0  0  0
    3.5288   -1.7566   -2.0921 C   0  0  2  0  0  0  0  0  0  0  0  0
    4.7135   -0.7925   -1.8338 C   0  0  0  0  0  0  0  0  0  0  0  0
    3.7591   -4.8168    0.4912 H   0  0  0  0  0  0  0  0  0  0  0  0
    6.3668   -1.0245   -0.3471 H   0  0  0  0  0  0  0  0  0  0  0  0
    6.7113   -2.5960   -2.5704 H   0  0  0  0  0  0  0  0  0  0  0  0
    6.8685   -3.4071   -1.0037 H   0  0  0  0  0  0  0  0  0  0  0  0
    4.9974   -4.7251   -1.6878 H   0  0  0  0  0  0  0  0  0  0  0  0
    4.4916   -4.2581   -4.1233 H   0  0  0  0  0  0  0  0  0  0  0  0
    2.9926   -2.1708   -4.2801 H   0  0  0  0  0  0  0  0  0  0  0  0
    2.5846   -1.2759   -1.9426 H   0  0  0  0  0  0  0  0  0  0  0  0
    4.3556    0.0969   -1.3010 H   0  0  0  0  0  0  0  0  0  0  0  0
    5.1907   -0.4695   -2.7520 H   0  0  0  0  0  0  0  0  0  0  0  0
  1  2  2  0
  2  3  1  0
  2 14  1  0
  4  3  1  1
  4  9  1  0
  4 12  1  0
  4  5  1  0
  5  6  2  0
  5  7  1  0
  7 13  1  0
  7  8  1  0
  7 15  1  1
  8  9  1  0
  8 16  1  0
  8 17  1  0
  9 10  1  0
  9 18  1  1
 10 11  2  0
 10 19  1  0
 11 12  1  0
 11 20  1  0
 12 13  1  0
 12 21  1  1
 13 22  1  0
 13 23  1  0
M  END
>  <i_m_ct_stereo_status>  (230) 
1

>  <s_m_source_file>  (230) 
/var/tmp/pbs.5076255.sched01/tmpbzpkhbzu/844yn2io63.sdf

>  <i_m_source_file_index>  (230) 
17

>  <i_lp_mmshare_version>  (230) 
48012

>  <i_f3d_flags>  (230) 
0

>  <s_epik_input>  (230) 
Tz1bQ0hdT1tDQF0xMltDQEBIXTNbQ0gyXVtDQEhdKEMxPU8pW0NIMl1bQ0BIXTJbQ0hdPVtDSF0z

>  <s_epik_cmdline>  (230) 
J2VwaWtfcHl0aG9uJywgJy1waHQnLCAnMi4wJywgJy1waCcsICc3LjAnLCAnLXRuJywgJzgnLCAnLW1hJywgJzIwMCcsICctaW1hZScsICc8aW5maWxlLm1hZT4nLCAnLW9tYWUnLCAnPG91dGZpbGUubWFlPic=

>  <r_lp_tautomer_probability>  (230) 
1

>  <r_epik_Ionization_Penalty>  (230) 
7.96651e-12

>  <r_epik_Ionization_Penalty_Charging>  (230) 
0

>  <r_epik_Ionization_Penalty_Neutral>  (230) 
7.96651e-12

>  <r_epik_State_Penalty>  (230) 
-0

>  <r_epik_Charging_Adjusted_Penalty>  (230) 
0

>  <i_epik_Tot_Q>  (230) 
0

>  <i_epik_Tot_abs_Q>  (230) 
0

>  <s_epik_Chemistry_Notes>  (230) 
This compound has an ester and may undergo hydrolysis at high or low pH.

>  <s_lp_Force_Field>  (230) 
OPLS3e

>  <r_lp_Energy>  (230) 
26.2491

>  <b_lp_Chiralities_Consistent>  (230) 
1

>  <s_lp_Variant>  (230) 
72:0-1

>  <s_i_glide_gridfile>  (230) 
pfpi4k_grid

>  <i_i_glide_lignum>  (230) 
17

>  <i_i_glide_rotatable_bonds>  (230) 
2

>  <r_i_docking_score>  (230) 
-3.86446

>  <r_i_glide_ligand_efficiency>  (230) 
-0.297266

>  <r_i_glide_ligand_efficiency_sa>  (230) 
-0.698973

>  <r_i_glide_ligand_efficiency_ln>  (230) 
-1.08402

>  <r_i_glide_gscore>  (230) 
-3.86446

>  <r_i_glide_lipo>  (230) 
-0.288835

>  <r_i_glide_hbond>  (230) 
-0.096969

>  <r_i_glide_metal>  (230) 
-0

>  <r_i_glide_rewards>  (230) 
-2.1942

>  <r_i_glide_evdw>  (230) 
-18.9232

>  <r_i_glide_ecoul>  (230) 
-1.90995

>  <r_i_glide_erotb>  (230) 
0

>  <r_i_glide_esite>  (230) 
-0.0518101

>  <r_i_glide_emodel>  (230) 
-24.7426

>  <r_i_glide_energy>  (230) 
-20.8332

>  <r_i_glide_einternal>  (230) 
3.39346

>  <r_i_glide_intrahb_reward>  (230) 
-0

>  <i_i_glide_confnum>  (230) 
2

>  <i_i_glide_posenum>  (230) 
22

>  <r_i_glide_eff_state_penalty>  (230) 
0

>  <ligand_id>  (230) 
72

>  <original_smiles>  (230) 
O=COC12C(=O)C3CC1C=CC2C3

>  <smiles>  (230) 
[H]C(=O)OC12C(=O)C3([H])C([H])([H])C1([H])C([H])=C([H])C2([H])C3([H])[H]

$$$$
73:0:0
     RDKit          3D

 37 39  0  0  1  0  0  0  0  0999 V2000
    8.4487   -2.8984   -0.7278 C   0  0  0  0  0  0  0  0  0  0  0  0
    7.1415   -2.6606   -1.2323 O   0  0  0  0  0  0  0  0  0  0  0  0
    6.2362   -1.9758   -0.4474 C   0  0  0  0  0  0  0  0  0  0  0  0
    6.5402   -1.4600    0.8324 C   0  0  0  0  0  0  0  0  0  0  0  0
    5.5730   -0.7561    1.5732 C   0  0  0  0  0  0  0  0  0  0  0  0
    4.2786   -0.5482    1.0525 C   0  0  0  0  0  0  0  0  0  0  0  0
    3.2682    0.2066    1.8408 C   0  0  0  0  0  0  0  0  0  0  0  0
    2.0842    0.4670    1.4570 N   0  0  0  0  0  0  0  0  0  0  0  0
    1.2236    1.2598    2.2321 C   0  0  0  0  0  0  0  0  0  0  0  0
    1.6908    2.4212    2.8992 C   0  0  0  0  0  0  0  0  0  0  0  0
    0.6871    3.1061    3.5978 N   0  0  0  0  0  0  0  0  0  0  0  0
    0.7133    4.2367    4.3464 C   0  0  0  0  0  0  0  0  0  0  0  0
    2.1482    5.2060    4.6483 S   0  0  0  0  0  0  0  0  0  0  0  0
    2.4991    5.6900    2.9330 C   0  0  0  0  0  0  0  0  0  0  0  0
   -0.5179    4.4569    4.8220 N   0  0  0  0  0  0  0  0  0  0  0  0
   -1.3710    3.4625    4.3472 N   0  0  0  0  0  0  0  0  0  0  0  0
   -0.6333    2.6448    3.5899 C   0  0  0  0  0  0  0  0  0  0  0  0
   -0.9878    1.5347    2.9086 N   0  0  0  0  0  0  0  0  0  0  0  0
   -0.0658    0.8577    2.2358 N   0  0  0  0  0  0  0  0  0  0  0  0
    3.9845   -1.0594   -0.2310 C   0  0  0  0  0  0  0  0  0  0  0  0
    4.9486   -1.7714   -0.9854 C   0  0  0  0  0  0  0  0  0  0  0  0
    4.7072   -2.2857   -2.2438 O   0  0  0  0  0  0  0  0  0  0  0  0
    3.4039   -2.1515   -2.7973 C   0  0  0  0  0  0  0  0  0  0  0  0
    9.0125   -3.4674   -1.4669 H   0  0  0  0  0  0  0  0  0  0  0  0
    8.4282   -3.4839    0.1923 H   0  0  0  0  0  0  0  0  0  0  0  0
    8.9826   -1.9642   -0.5516 H   0  0  0  0  0  0  0  0  0  0  0  0
    7.5162   -1.5875    1.2703 H   0  0  0  0  0  0  0  0  0  0  0  0
    5.8408   -0.3677    2.5450 H   0  0  0  0  0  0  0  0  0  0  0  0
    3.6053    0.5577    2.8226 H   0  0  0  0  0  0  0  0  0  0  0  0
    2.7083    2.7860    2.8938 H   0  0  0  0  0  0  0  0  0  0  0  0
    3.3237    6.4022    2.9005 H   0  0  0  0  0  0  0  0  0  0  0  0
    1.6141    6.1407    2.4879 H   0  0  0  0  0  0  0  0  0  0  0  0
    2.7842    4.8410    2.3180 H   0  0  0  0  0  0  0  0  0  0  0  0
    3.0017   -0.8894   -0.6343 H   0  0  0  0  0  0  0  0  0  0  0  0
    3.3867   -2.6179   -3.7812 H   0  0  0  0  0  0  0  0  0  0  0  0
    3.1301   -1.1038   -2.9250 H   0  0  0  0  0  0  0  0  0  0  0  0
    2.6522   -2.6493   -2.1836 H   0  0  0  0  0  0  0  0  0  0  0  0
  1  2  1  0
  1 24  1  0
  1 25  1  0
  1 26  1  0
  2  3  1  0
  3 21  2  0
  3  4  1  0
  4  5  2  0
  4 27  1  0
  5  6  1  0
  5 28  1  0
  6  7  1  0
  6 20  2  0
  7  8  2  3
  7 29  1  0
  8  9  1  0
  9 19  1  0
  9 10  2  0
 10 11  1  0
 10 30  1  0
 11 17  1  0
 11 12  1  0
 12 13  1  0
 12 15  2  0
 13 14  1  0
 14 31  1  0
 14 32  1  0
 14 33  1  0
 15 16  1  0
 16 17  2  0
 17 18  1  0
 18 19  2  0
 20 21  1  0
 20 34  1  0
 21 22  1  0
 22 23  1  0
 23 35  1  0
 23 36  1  0
 23 37  1  0
M  END
>  <i_m_ct_stereo_status>  (231) 
1

>  <s_m_source_file>  (231) 
/var/tmp/pbs.5076255.sched01/tmpbzpkhbzu/844yn2io63.sdf

>  <i_m_source_file_index>  (231) 
18

>  <i_lp_mmshare_version>  (231) 
48012

>  <i_f3d_flags>  (231) 
0

>  <s_epik_input>  (231) 
W0NIM11PYzFbY0hdW2NIXWMoW2NIXWMxT1tDSDNdKS9bQ0hdPU4vYyhbY0hdMilubmMobjIzKW5uYzNTW0NIM10=

>  <s_epik_cmdline>  (231) 
J2VwaWtfcHl0aG9uJywgJy1waHQnLCAnMi4wJywgJy1waCcsICc3LjAnLCAnLXRuJywgJzgnLCAnLW1hJywgJzIwMCcsICctaW1hZScsICc8aW5maWxlLm1hZT4nLCAnLW9tYWUnLCAnPG91dGZpbGUubWFlPic=

>  <r_lp_tautomer_probability>  (231) 
1

>  <r_epik_Ionization_Penalty>  (231) 
1.24095e-08

>  <r_epik_Ionization_Penalty_Charging>  (231) 
0

>  <r_epik_Ionization_Penalty_Neutral>  (231) 
1.24095e-08

>  <r_epik_State_Penalty>  (231) 
-0

>  <r_epik_Charging_Adjusted_Penalty>  (231) 
0

>  <i_epik_Tot_Q>  (231) 
0

>  <i_epik_Tot_abs_Q>  (231) 
0

>  <s_epik_Chemistry_Notes>  (231) 
This compound has an imine and may undergo hydrolysis.

>  <s_lp_Force_Field>  (231) 
OPLS3e

>  <r_lp_Energy>  (231) 
37.1576

>  <b_lp_Chiralities_Consistent>  (231) 
1

>  <s_lp_Variant>  (231) 
73:0-1

>  <s_i_glide_gridfile>  (231) 
pfpi4k_grid

>  <i_i_glide_lignum>  (231) 
18

>  <i_i_glide_rotatable_bonds>  (231) 
5

>  <r_i_docking_score>  (231) 
-3.76967

>  <r_i_glide_ligand_efficiency>  (231) 
-0.163899

>  <r_i_glide_ligand_efficiency_sa>  (231) 
-0.466106

>  <r_i_glide_ligand_efficiency_ln>  (231) 
-0.911541

>  <r_i_glide_gscore>  (231) 
-3.76967

>  <r_i_glide_lipo>  (231) 
-0.255525

>  <r_i_glide_hbond>  (231) 
-0.099354

>  <r_i_glide_metal>  (231) 
-0

>  <r_i_glide_rewards>  (231) 
-1.22316

>  <r_i_glide_evdw>  (231) 
-33.6592

>  <r_i_glide_ecoul>  (231) 
-3.35137

>  <r_i_glide_erotb>  (231) 
0.344638

>  <r_i_glide_esite>  (231) 
-0.350601

>  <r_i_glide_emodel>  (231) 
-45.3668

>  <r_i_glide_energy>  (231) 
-37.0106

>  <r_i_glide_einternal>  (231) 
2.6306

>  <r_i_glide_intrahb_reward>  (231) 
-0

>  <i_i_glide_confnum>  (231) 
3

>  <i_i_glide_posenum>  (231) 
4

>  <r_i_glide_eff_state_penalty>  (231) 
0

>  <ligand_id>  (231) 
73

>  <original_smiles>  (231) 
COc1ccc(C=Nc2cn3c(SC)nnc3nn2)cc1OC

>  <smiles>  (231) 
[H]C(=Nc1nnc2nnc(SC([H])([H])[H])n2c1[H])c1c([H])c([H])c(OC([H])([H])[H])c(OC([H])([H])[H])c1[H]

$$$$
73:0:1
     RDKit          3D

 37 39  0  0  1  0  0  0  0  0999 V2000
   -2.9960    3.1590    5.1428 C   0  0  0  0  0  0  0  0  0  0  0  0
   -2.1761    2.0721    5.5431 O   0  0  0  0  0  0  0  0  0  0  0  0
   -1.1782    1.6512    4.6900 C   0  0  0  0  0  0  0  0  0  0  0  0
   -0.9812    2.1730    3.3890 C   0  0  0  0  0  0  0  0  0  0  0  0
    0.0723    1.7038    2.5828 C   0  0  0  0  0  0  0  0  0  0  0  0
    0.9565    0.7162    3.0611 C   0  0  0  0  0  0  0  0  0  0  0  0
    2.0814    0.2564    2.2105 C   0  0  0  0  0  0  0  0  0  0  0  0
    3.0284   -0.5026    2.5958 N   0  0  0  0  0  0  0  0  0  0  0  0
    4.0253   -0.9287    1.7027 C   0  0  0  0  0  0  0  0  0  0  0  0
    3.7572   -1.1570    0.3247 C   0  0  0  0  0  0  0  0  0  0  0  0
    4.8658   -1.6029   -0.3968 N   0  0  0  0  0  0  0  0  0  0  0  0
    5.0235   -1.9230   -1.7042 C   0  0  0  0  0  0  0  0  0  0  0  0
    3.7595   -1.8366   -2.9202 S   0  0  0  0  0  0  0  0  0  0  0  0
    4.0665   -3.4473   -3.6835 C   0  0  0  0  0  0  0  0  0  0  0  0
    6.2905   -2.3081   -1.8916 N   0  0  0  0  0  0  0  0  0  0  0  0
    6.9669   -2.2528   -0.6739 N   0  0  0  0  0  0  0  0  0  0  0  0
    6.0920   -1.8211    0.2370 C   0  0  0  0  0  0  0  0  0  0  0  0
    6.2489   -1.5969    1.5574 N   0  0  0  0  0  0  0  0  0  0  0  0
    5.2260   -1.1560    2.2777 N   0  0  0  0  0  0  0  0  0  0  0  0
    0.7486    0.1840    4.3521 C   0  0  0  0  0  0  0  0  0  0  0  0
   -0.3155    0.6422    5.1715 C   0  0  0  0  0  0  0  0  0  0  0  0
   -0.5650    0.1603    6.4402 O   0  0  0  0  0  0  0  0  0  0  0  0
    0.3312   -0.7944    6.9932 C   0  0  0  0  0  0  0  0  0  0  0  0
   -3.7352    3.3436    5.9209 H   0  0  0  0  0  0  0  0  0  0  0  0
   -3.5461    2.9421    4.2260 H   0  0  0  0  0  0  0  0  0  0  0  0
   -2.4133    4.0703    5.0086 H   0  0  0  0  0  0  0  0  0  0  0  0
   -1.6185    2.9436    2.9833 H   0  0  0  0  0  0  0  0  0  0  0  0
    0.2032    2.1309    1.5985 H   0  0  0  0  0  0  0  0  0  0  0  0
    2.0604    0.6227    1.1813 H   0  0  0  0  0  0  0  0  0  0  0  0
    2.8097   -1.0287   -0.1756 H   0  0  0  0  0  0  0  0  0  0  0  0
    3.3109   -3.6587   -4.4399 H   0  0  0  0  0  0  0  0  0  0  0  0
    4.0323   -4.2262   -2.9244 H   0  0  0  0  0  0  0  0  0  0  0  0
    5.0515   -3.4764   -4.1454 H   0  0  0  0  0  0  0  0  0  0  0  0
    1.4253   -0.5798    4.7032 H   0  0  0  0  0  0  0  0  0  0  0  0
   -0.0003   -1.0520    7.9981 H   0  0  0  0  0  0  0  0  0  0  0  0
    1.3446   -0.3980    7.0735 H   0  0  0  0  0  0  0  0  0  0  0  0
    0.3450   -1.7129    6.4054 H   0  0  0  0  0  0  0  0  0  0  0  0
  1  2  1  0
  1 24  1  0
  1 25  1  0
  1 26  1  0
  2  3  1  0
  3 21  2  0
  3  4  1  0
  4  5  2  0
  4 27  1  0
  5  6  1  0
  5 28  1  0
  6  7  1  0
  6 20  2  0
  7  8  2  3
  7 29  1  0
  8  9  1  0
  9 19  1  0
  9 10  2  0
 10 11  1  0
 10 30  1  0
 11 17  1  0
 11 12  1  0
 12 13  1  0
 12 15  2  0
 13 14  1  0
 14 31  1  0
 14 32  1  0
 14 33  1  0
 15 16  1  0
 16 17  2  0
 17 18  1  0
 18 19  2  0
 20 21  1  0
 20 34  1  0
 21 22  1  0
 22 23  1  0
 23 35  1  0
 23 36  1  0
 23 37  1  0
M  END
>  <i_m_ct_stereo_status>  (232) 
1

>  <s_m_source_file>  (232) 
/var/tmp/pbs.5076255.sched01/tmpbzpkhbzu/844yn2io63.sdf

>  <i_m_source_file_index>  (232) 
18

>  <i_lp_mmshare_version>  (232) 
48012

>  <i_f3d_flags>  (232) 
0

>  <s_epik_input>  (232) 
W0NIM11PYzFbY0hdW2NIXWMoW2NIXWMxT1tDSDNdKS9bQ0hdPU4vYyhbY0hdMilubmMobjIzKW5uYzNTW0NIM10=

>  <s_epik_cmdline>  (232) 
J2VwaWtfcHl0aG9uJywgJy1waHQnLCAnMi4wJywgJy1waCcsICc3LjAnLCAnLXRuJywgJzgnLCAnLW1hJywgJzIwMCcsICctaW1hZScsICc8aW5maWxlLm1hZT4nLCAnLW9tYWUnLCAnPG91dGZpbGUubWFlPic=

>  <r_lp_tautomer_probability>  (232) 
1

>  <r_epik_Ionization_Penalty>  (232) 
1.24095e-08

>  <r_epik_Ionization_Penalty_Charging>  (232) 
0

>  <r_epik_Ionization_Penalty_Neutral>  (232) 
1.24095e-08

>  <r_epik_State_Penalty>  (232) 
-0

>  <r_epik_Charging_Adjusted_Penalty>  (232) 
0

>  <i_epik_Tot_Q>  (232) 
0

>  <i_epik_Tot_abs_Q>  (232) 
0

>  <s_epik_Chemistry_Notes>  (232) 
This compound has an imine and may undergo hydrolysis.

>  <s_lp_Force_Field>  (232) 
OPLS3e

>  <r_lp_Energy>  (232) 
37.1576

>  <b_lp_Chiralities_Consistent>  (232) 
1

>  <s_lp_Variant>  (232) 
73:0-1

>  <s_i_glide_gridfile>  (232) 
pfpi4k_grid

>  <i_i_glide_lignum>  (232) 
18

>  <i_i_glide_rotatable_bonds>  (232) 
5

>  <r_i_docking_score>  (232) 
-3.5154

>  <r_i_glide_ligand_efficiency>  (232) 
-0.152843

>  <r_i_glide_ligand_efficiency_sa>  (232) 
-0.434666

>  <r_i_glide_ligand_efficiency_ln>  (232) 
-0.850056

>  <r_i_glide_gscore>  (232) 
-3.5154

>  <r_i_glide_lipo>  (232) 
-0.183549

>  <r_i_glide_hbond>  (232) 
0

>  <r_i_glide_metal>  (232) 
-0

>  <r_i_glide_rewards>  (232) 
-1.22185

>  <r_i_glide_evdw>  (232) 
-32.3637

>  <r_i_glide_ecoul>  (232) 
-4.32494

>  <r_i_glide_erotb>  (232) 
0.344638

>  <r_i_glide_esite>  (232) 
-0.187713

>  <r_i_glide_emodel>  (232) 
-44.6212

>  <r_i_glide_energy>  (232) 
-36.6887

>  <r_i_glide_einternal>  (232) 
2.17619

>  <r_i_glide_intrahb_reward>  (232) 
-0

>  <i_i_glide_confnum>  (232) 
3

>  <i_i_glide_posenum>  (232) 
17

>  <r_i_glide_eff_state_penalty>  (232) 
0

>  <ligand_id>  (232) 
73

>  <original_smiles>  (232) 
COc1ccc(C=Nc2cn3c(SC)nnc3nn2)cc1OC

>  <smiles>  (232) 
[H]C(=Nc1nnc2nnc(SC([H])([H])[H])n2c1[H])c1c([H])c([H])c(OC([H])([H])[H])c(OC([H])([H])[H])c1[H]

$$$$
73:0:2
     RDKit          3D

 37 39  0  0  1  0  0  0  0  0999 V2000
   -2.8991    2.9454    4.8278 C   0  0  0  0  0  0  0  0  0  0  0  0
   -1.9895    1.9651    5.3046 O   0  0  0  0  0  0  0  0  0  0  0  0
   -1.0310    1.4762    4.4429 C   0  0  0  0  0  0  0  0  0  0  0  0
   -0.8951    1.8930    3.0982 C   0  0  0  0  0  0  0  0  0  0  0  0
    0.1223    1.3617    2.2873 C   0  0  0  0  0  0  0  0  0  0  0  0
    1.0325    0.4162    2.8055 C   0  0  0  0  0  0  0  0  0  0  0  0
    2.1215   -0.1076    1.9508 C   0  0  0  0  0  0  0  0  0  0  0  0
    3.0545   -0.8934    2.3211 N   0  0  0  0  0  0  0  0  0  0  0  0
    4.0175   -1.3718    1.4097 C   0  0  0  0  0  0  0  0  0  0  0  0
    3.8019   -1.3904    0.0047 C   0  0  0  0  0  0  0  0  0  0  0  0
    4.8524   -1.9362   -0.7259 N   0  0  0  0  0  0  0  0  0  0  0  0
    5.0107   -2.1240   -2.0598 C   0  0  0  0  0  0  0  0  0  0  0  0
    3.8297   -1.6854   -3.2863 S   0  0  0  0  0  0  0  0  0  0  0  0
    2.5045   -2.8239   -2.7861 C   0  0  0  0  0  0  0  0  0  0  0  0
    6.2195   -2.6605   -2.2560 N   0  0  0  0  0  0  0  0  0  0  0  0
    6.8538   -2.8230   -1.0251 N   0  0  0  0  0  0  0  0  0  0  0  0
    6.0047   -2.3975   -0.0885 C   0  0  0  0  0  0  0  0  0  0  0  0
    6.1315   -2.3502    1.2549 N   0  0  0  0  0  0  0  0  0  0  0  0
    5.1422   -1.8515    1.9883 N   0  0  0  0  0  0  0  0  0  0  0  0
    0.8835   -0.0126    4.1400 C   0  0  0  0  0  0  0  0  0  0  0  0
   -0.1427    0.5102    4.9640 C   0  0  0  0  0  0  0  0  0  0  0  0
   -0.3287    0.1289    6.2776 O   0  0  0  0  0  0  0  0  0  0  0  0
    0.5937   -0.7870    6.8531 C   0  0  0  0  0  0  0  0  0  0  0  0
   -3.5885    3.2109    5.6295 H   0  0  0  0  0  0  0  0  0  0  0  0
   -3.4882    2.5741    3.9895 H   0  0  0  0  0  0  0  0  0  0  0  0
   -2.3782    3.8561    4.5293 H   0  0  0  0  0  0  0  0  0  0  0  0
   -1.5500    2.6335    2.6625 H   0  0  0  0  0  0  0  0  0  0  0  0
    0.2069    1.7074    1.2668 H   0  0  0  0  0  0  0  0  0  0  0  0
    2.0730    0.2429    0.9174 H   0  0  0  0  0  0  0  0  0  0  0  0
    2.9299   -1.0439   -0.5270 H   0  0  0  0  0  0  0  0  0  0  0  0
    1.6141   -2.6790   -3.3993 H   0  0  0  0  0  0  0  0  0  0  0  0
    2.2121   -2.6834   -1.7487 H   0  0  0  0  0  0  0  0  0  0  0  0
    2.8478   -3.8520   -2.8923 H   0  0  0  0  0  0  0  0  0  0  0  0
    1.5807   -0.7475    4.5135 H   0  0  0  0  0  0  0  0  0  0  0  0
    0.3147   -0.9665    7.8900 H   0  0  0  0  0  0  0  0  0  0  0  0
    1.6116   -0.3929    6.8495 H   0  0  0  0  0  0  0  0  0  0  0  0
    0.5758   -1.7474    6.3360 H   0  0  0  0  0  0  0  0  0  0  0  0
  1  2  1  0
  1 24  1  0
  1 25  1  0
  1 26  1  0
  2  3  1  0
  3 21  2  0
  3  4  1  0
  4  5  2  0
  4 27  1  0
  5  6  1  0
  5 28  1  0
  6  7  1  0
  6 20  2  0
  7  8  2  3
  7 29  1  0
  8  9  1  0
  9 19  1  0
  9 10  2  0
 10 11  1  0
 10 30  1  0
 11 17  1  0
 11 12  1  0
 12 13  1  0
 12 15  2  0
 13 14  1  0
 14 31  1  0
 14 32  1  0
 14 33  1  0
 15 16  1  0
 16 17  2  0
 17 18  1  0
 18 19  2  0
 20 21  1  0
 20 34  1  0
 21 22  1  0
 22 23  1  0
 23 35  1  0
 23 36  1  0
 23 37  1  0
M  END
>  <i_m_ct_stereo_status>  (233) 
1

>  <s_m_source_file>  (233) 
/var/tmp/pbs.5076255.sched01/tmpbzpkhbzu/844yn2io63.sdf

>  <i_m_source_file_index>  (233) 
18

>  <i_lp_mmshare_version>  (233) 
48012

>  <i_f3d_flags>  (233) 
0

>  <s_epik_input>  (233) 
W0NIM11PYzFbY0hdW2NIXWMoW2NIXWMxT1tDSDNdKS9bQ0hdPU4vYyhbY0hdMilubmMobjIzKW5uYzNTW0NIM10=

>  <s_epik_cmdline>  (233) 
J2VwaWtfcHl0aG9uJywgJy1waHQnLCAnMi4wJywgJy1waCcsICc3LjAnLCAnLXRuJywgJzgnLCAnLW1hJywgJzIwMCcsICctaW1hZScsICc8aW5maWxlLm1hZT4nLCAnLW9tYWUnLCAnPG91dGZpbGUubWFlPic=

>  <r_lp_tautomer_probability>  (233) 
1

>  <r_epik_Ionization_Penalty>  (233) 
1.24095e-08

>  <r_epik_Ionization_Penalty_Charging>  (233) 
0

>  <r_epik_Ionization_Penalty_Neutral>  (233) 
1.24095e-08

>  <r_epik_State_Penalty>  (233) 
-0

>  <r_epik_Charging_Adjusted_Penalty>  (233) 
0

>  <i_epik_Tot_Q>  (233) 
0

>  <i_epik_Tot_abs_Q>  (233) 
0

>  <s_epik_Chemistry_Notes>  (233) 
This compound has an imine and may undergo hydrolysis.

>  <s_lp_Force_Field>  (233) 
OPLS3e

>  <r_lp_Energy>  (233) 
37.1576

>  <b_lp_Chiralities_Consistent>  (233) 
1

>  <s_lp_Variant>  (233) 
73:0-1

>  <s_i_glide_gridfile>  (233) 
pfpi4k_grid

>  <i_i_glide_lignum>  (233) 
18

>  <i_i_glide_rotatable_bonds>  (233) 
5

>  <r_i_docking_score>  (233) 
-3.40263

>  <r_i_glide_ligand_efficiency>  (233) 
-0.14794

>  <r_i_glide_ligand_efficiency_sa>  (233) 
-0.420723

>  <r_i_glide_ligand_efficiency_ln>  (233) 
-0.822787

>  <r_i_glide_gscore>  (233) 
-3.40263

>  <r_i_glide_lipo>  (233) 
-0.129479

>  <r_i_glide_hbond>  (233) 
0

>  <r_i_glide_metal>  (233) 
-0

>  <r_i_glide_rewards>  (233) 
-1.1566

>  <r_i_glide_evdw>  (233) 
-33.2929

>  <r_i_glide_ecoul>  (233) 
-4.69008

>  <r_i_glide_erotb>  (233) 
0.344638

>  <r_i_glide_esite>  (233) 
-0.0930367

>  <r_i_glide_emodel>  (233) 
-45.2904

>  <r_i_glide_energy>  (233) 
-37.983

>  <r_i_glide_einternal>  (233) 
2.62511

>  <r_i_glide_intrahb_reward>  (233) 
-0

>  <i_i_glide_confnum>  (233) 
3

>  <i_i_glide_posenum>  (233) 
8

>  <r_i_glide_eff_state_penalty>  (233) 
0

>  <ligand_id>  (233) 
73

>  <original_smiles>  (233) 
COc1ccc(C=Nc2cn3c(SC)nnc3nn2)cc1OC

>  <smiles>  (233) 
[H]C(=Nc1nnc2nnc(SC([H])([H])[H])n2c1[H])c1c([H])c([H])c(OC([H])([H])[H])c(OC([H])([H])[H])c1[H]

$$$$
73:1:0
     RDKit          3D

 37 39  0  0  1  0  0  0  0  0999 V2000
    1.5257  -10.1485    2.4741 C   0  0  0  0  0  0  0  0  0  0  0  0
    0.8077   -8.9472    2.6411 O   0  0  0  0  0  0  0  0  0  0  0  0
    1.4986   -7.7551    2.5812 C   0  0  0  0  0  0  0  0  0  0  0  0
    2.8800   -7.6476    2.2657 C   0  0  0  0  0  0  0  0  0  0  0  0
    3.4770   -6.3716    2.1847 C   0  0  0  0  0  0  0  0  0  0  0  0
    2.7260   -5.1883    2.3910 C   0  0  0  0  0  0  0  0  0  0  0  0
    3.4043   -3.8532    2.3472 C   0  0  0  0  0  0  0  0  0  0  0  0
    3.1522   -2.7191    2.8780 N   0  0  0  0  0  0  0  0  0  0  0  0
    2.0635   -2.4452    3.7219 C   0  0  0  0  0  0  0  0  0  0  0  0
    1.3933   -1.2079    3.6088 C   0  0  0  0  0  0  0  0  0  0  0  0
    0.2009   -1.1277    4.3237 N   0  0  0  0  0  0  0  0  0  0  0  0
   -0.7300   -0.1513    4.4923 C   0  0  0  0  0  0  0  0  0  0  0  0
   -0.6431    1.4659    3.7905 S   0  0  0  0  0  0  0  0  0  0  0  0
   -0.7905    0.9612    2.0542 C   0  0  0  0  0  0  0  0  0  0  0  0
   -1.6871   -0.5898    5.3188 N   0  0  0  0  0  0  0  0  0  0  0  0
   -1.3921   -1.8999    5.6787 N   0  0  0  0  0  0  0  0  0  0  0  0
   -0.1934   -2.2097    5.1329 C   0  0  0  0  0  0  0  0  0  0  0  0
    0.5766   -3.2953    5.3044 N   0  0  0  0  0  0  0  0  0  0  0  0
    1.7065   -3.3811    4.6162 N   0  0  0  0  0  0  0  0  0  0  0  0
    1.3570   -5.3246    2.6517 C   0  0  0  0  0  0  0  0  0  0  0  0
    0.7495   -6.5863    2.8067 C   0  0  0  0  0  0  0  0  0  0  0  0
   -0.5918   -6.6553    3.1265 O   0  0  0  0  0  0  0  0  0  0  0  0
   -0.9546   -7.2792    4.3562 C   0  0  0  0  0  0  0  0  0  0  0  0
    0.8138  -10.9781    2.5595 H   0  0  0  0  0  0  0  0  0  0  0  0
    2.2872  -10.2440    3.2573 H   0  0  0  0  0  0  0  0  0  0  0  0
    1.9952  -10.1769    1.4807 H   0  0  0  0  0  0  0  0  0  0  0  0
    3.4854   -8.5190    2.0436 H   0  0  0  0  0  0  0  0  0  0  0  0
    4.5348   -6.3065    1.9457 H   0  0  0  0  0  0  0  0  0  0  0  0
    4.3328   -3.8782    1.7930 H   0  0  0  0  0  0  0  0  0  0  0  0
    1.6931   -0.4143    2.9337 H   0  0  0  0  0  0  0  0  0  0  0  0
   -0.5876    1.8069    1.4010 H   0  0  0  0  0  0  0  0  0  0  0  0
   -1.7898    0.5832    1.8486 H   0  0  0  0  0  0  0  0  0  0  0  0
   -0.0832    0.1738    1.7915 H   0  0  0  0  0  0  0  0  0  0  0  0
    0.7139   -4.4619    2.7535 H   0  0  0  0  0  0  0  0  0  0  0  0
   -2.0406   -7.2582    4.4586 H   0  0  0  0  0  0  0  0  0  0  0  0
   -0.5278   -6.7586    5.2205 H   0  0  0  0  0  0  0  0  0  0  0  0
   -0.6533   -8.3284    4.4055 H   0  0  0  0  0  0  0  0  0  0  0  0
  1  2  1  0
  1 24  1  0
  1 25  1  0
  1 26  1  0
  2  3  1  0
  3 21  2  0
  3  4  1  0
  4  5  2  0
  4 27  1  0
  5  6  1  0
  5 28  1  0
  6  7  1  0
  6 20  2  0
  7  8  2  3
  7 29  1  0
  8  9  1  0
  9 19  1  0
  9 10  2  0
 10 11  1  0
 10 30  1  0
 11 17  1  0
 11 12  1  0
 12 13  1  0
 12 15  2  0
 13 14  1  0
 14 31  1  0
 14 32  1  0
 14 33  1  0
 15 16  1  0
 16 17  2  0
 17 18  1  0
 18 19  2  0
 20 21  1  0
 20 34  1  0
 21 22  1  0
 22 23  1  0
 23 35  1  0
 23 36  1  0
 23 37  1  0
M  END
>  <i_m_ct_stereo_status>  (234) 
1

>  <s_m_source_file>  (234) 
/var/tmp/pbs.5076255.sched01/tmpbzpkhbzu/844yn2io63.sdf

>  <i_m_source_file_index>  (234) 
19

>  <i_lp_mmshare_version>  (234) 
48012

>  <i_f3d_flags>  (234) 
0

>  <s_epik_input>  (234) 
W0NIM11PYzFbY0hdW2NIXWMoW2NIXWMxT1tDSDNdKS9bQ0hdPU4vYyhbY0hdMilubmMobjIzKW5uYzNTW0NIM10=

>  <s_epik_cmdline>  (234) 
J2VwaWtfcHl0aG9uJywgJy1waHQnLCAnMi4wJywgJy1waCcsICc3LjAnLCAnLXRuJywgJzgnLCAnLW1hJywgJzIwMCcsICctaW1hZScsICc8aW5maWxlLm1hZT4nLCAnLW9tYWUnLCAnPG91dGZpbGUubWFlPic=

>  <r_lp_tautomer_probability>  (234) 
1

>  <r_epik_Ionization_Penalty>  (234) 
1.24095e-08

>  <r_epik_Ionization_Penalty_Charging>  (234) 
0

>  <r_epik_Ionization_Penalty_Neutral>  (234) 
1.24095e-08

>  <r_epik_State_Penalty>  (234) 
-0

>  <r_epik_Charging_Adjusted_Penalty>  (234) 
0

>  <i_epik_Tot_Q>  (234) 
0

>  <i_epik_Tot_abs_Q>  (234) 
0

>  <s_epik_Chemistry_Notes>  (234) 
This compound has an imine and may undergo hydrolysis.

>  <s_lp_Force_Field>  (234) 
OPLS3e

>  <r_lp_Energy>  (234) 
41.1623

>  <b_lp_Chiralities_Consistent>  (234) 
1

>  <s_lp_Variant>  (234) 
73:0-2

>  <s_i_glide_gridfile>  (234) 
pfpi4k_grid

>  <i_i_glide_lignum>  (234) 
19

>  <i_i_glide_rotatable_bonds>  (234) 
5

>  <r_i_docking_score>  (234) 
-3.46512

>  <r_i_glide_ligand_efficiency>  (234) 
-0.150657

>  <r_i_glide_ligand_efficiency_sa>  (234) 
-0.42845

>  <r_i_glide_ligand_efficiency_ln>  (234) 
-0.837898

>  <r_i_glide_gscore>  (234) 
-3.46512

>  <r_i_glide_lipo>  (234) 
-0.148582

>  <r_i_glide_hbond>  (234) 
-0.16

>  <r_i_glide_metal>  (234) 
-0

>  <r_i_glide_rewards>  (234) 
-1.15733

>  <r_i_glide_evdw>  (234) 
-25.3805

>  <r_i_glide_ecoul>  (234) 
-6.16722

>  <r_i_glide_erotb>  (234) 
0.344638

>  <r_i_glide_esite>  (234) 
-0.149741

>  <r_i_glide_emodel>  (234) 
-33.2368

>  <r_i_glide_energy>  (234) 
-31.5477

>  <r_i_glide_einternal>  (234) 
10.1746

>  <r_i_glide_intrahb_reward>  (234) 
-0

>  <i_i_glide_confnum>  (234) 
3

>  <i_i_glide_posenum>  (234) 
25

>  <r_i_glide_eff_state_penalty>  (234) 
0

>  <ligand_id>  (234) 
73

>  <original_smiles>  (234) 
COc1ccc(C=Nc2cn3c(SC)nnc3nn2)cc1OC

>  <smiles>  (234) 
[H]C(=Nc1nnc2nnc(SC([H])([H])[H])n2c1[H])c1c([H])c([H])c(OC([H])([H])[H])c(OC([H])([H])[H])c1[H]

$$$$
73:1:1
     RDKit          3D

 37 39  0  0  1  0  0  0  0  0999 V2000
   -1.0814   -9.5434    2.2914 C   0  0  0  0  0  0  0  0  0  0  0  0
   -0.9021   -8.5300    3.2592 O   0  0  0  0  0  0  0  0  0  0  0  0
    0.0228   -7.5443    2.9889 C   0  0  0  0  0  0  0  0  0  0  0  0
    0.5508   -7.2792    1.6949 C   0  0  0  0  0  0  0  0  0  0  0  0
    1.4454   -6.2046    1.4923 C   0  0  0  0  0  0  0  0  0  0  0  0
    1.8693   -5.4010    2.5728 C   0  0  0  0  0  0  0  0  0  0  0  0
    2.7265   -4.2064    2.3017 C   0  0  0  0  0  0  0  0  0  0  0  0
    2.6512   -2.9844    2.6711 N   0  0  0  0  0  0  0  0  0  0  0  0
    1.6620   -2.4279    3.5027 C   0  0  0  0  0  0  0  0  0  0  0  0
    1.2629   -1.0844    3.3132 C   0  0  0  0  0  0  0  0  0  0  0  0
    0.1732   -0.6828    4.1080 N   0  0  0  0  0  0  0  0  0  0  0  0
   -0.5522    0.4633    4.2548 C   0  0  0  0  0  0  0  0  0  0  0  0
   -0.2575    1.9302    3.3370 S   0  0  0  0  0  0  0  0  0  0  0  0
   -0.5123    1.2200    1.6780 C   0  0  0  0  0  0  0  0  0  0  0  0
   -1.4985    0.3034    5.1886 N   0  0  0  0  0  0  0  0  0  0  0  0
   -1.4152   -1.0042    5.6494 N   0  0  0  0  0  0  0  0  0  0  0  0
   -0.3855   -1.6078    5.0262 C   0  0  0  0  0  0  0  0  0  0  0  0
    0.1337   -2.8366    5.1863 N   0  0  0  0  0  0  0  0  0  0  0  0
    1.1472   -3.1762    4.4760 N   0  0  0  0  0  0  0  0  0  0  0  0
    1.4433   -5.7840    3.8587 C   0  0  0  0  0  0  0  0  0  0  0  0
    0.4691   -6.7655    4.0680 C   0  0  0  0  0  0  0  0  0  0  0  0
   -0.0578   -6.9299    5.3205 O   0  0  0  0  0  0  0  0  0  0  0  0
    0.3128   -8.1098    6.0147 C   0  0  0  0  0  0  0  0  0  0  0  0
   -1.7915  -10.2600    2.6952 H   0  0  0  0  0  0  0  0  0  0  0  0
   -0.1421  -10.0672    2.0798 H   0  0  0  0  0  0  0  0  0  0  0  0
   -1.4988   -9.1127    1.3792 H   0  0  0  0  0  0  0  0  0  0  0  0
    0.2765   -7.8682    0.8343 H   0  0  0  0  0  0  0  0  0  0  0  0
    1.8093   -6.0013    0.4935 H   0  0  0  0  0  0  0  0  0  0  0  0
    3.5532   -4.4522    1.6361 H   0  0  0  0  0  0  0  0  0  0  0  0
    1.7112   -0.3709    2.5972 H   0  0  0  0  0  0  0  0  0  0  0  0
   -0.1903    1.9412    0.9253 H   0  0  0  0  0  0  0  0  0  0  0  0
   -1.5640    0.9569    1.5293 H   0  0  0  0  0  0  0  0  0  0  0  0
    0.0669    0.3155    1.4952 H   0  0  0  0  0  0  0  0  0  0  0  0
    1.8068   -5.3095    4.7604 H   0  0  0  0  0  0  0  0  0  0  0  0
   -0.1826   -8.1415    6.9871 H   0  0  0  0  0  0  0  0  0  0  0  0
    1.3859   -8.1145    6.1758 H   0  0  0  0  0  0  0  0  0  0  0  0
    0.0310   -9.0029    5.4704 H   0  0  0  0  0  0  0  0  0  0  0  0
  1  2  1  0
  1 24  1  0
  1 25  1  0
  1 26  1  0
  2  3  1  0
  3 21  2  0
  3  4  1  0
  4  5  2  0
  4 27  1  0
  5  6  1  0
  5 28  1  0
  6  7  1  0
  6 20  2  0
  7  8  2  3
  7 29  1  0
  8  9  1  0
  9 19  1  0
  9 10  2  0
 10 11  1  0
 10 30  1  0
 11 17  1  0
 11 12  1  0
 12 13  1  0
 12 15  2  0
 13 14  1  0
 14 31  1  0
 14 32  1  0
 14 33  1  0
 15 16  1  0
 16 17  2  0
 17 18  1  0
 18 19  2  0
 20 21  1  0
 20 34  1  0
 21 22  1  0
 22 23  1  0
 23 35  1  0
 23 36  1  0
 23 37  1  0
M  END
>  <i_m_ct_stereo_status>  (235) 
1

>  <s_m_source_file>  (235) 
/var/tmp/pbs.5076255.sched01/tmpbzpkhbzu/844yn2io63.sdf

>  <i_m_source_file_index>  (235) 
19

>  <i_lp_mmshare_version>  (235) 
48012

>  <i_f3d_flags>  (235) 
0

>  <s_epik_input>  (235) 
W0NIM11PYzFbY0hdW2NIXWMoW2NIXWMxT1tDSDNdKS9bQ0hdPU4vYyhbY0hdMilubmMobjIzKW5uYzNTW0NIM10=

>  <s_epik_cmdline>  (235) 
J2VwaWtfcHl0aG9uJywgJy1waHQnLCAnMi4wJywgJy1waCcsICc3LjAnLCAnLXRuJywgJzgnLCAnLW1hJywgJzIwMCcsICctaW1hZScsICc8aW5maWxlLm1hZT4nLCAnLW9tYWUnLCAnPG91dGZpbGUubWFlPic=

>  <r_lp_tautomer_probability>  (235) 
1

>  <r_epik_Ionization_Penalty>  (235) 
1.24095e-08

>  <r_epik_Ionization_Penalty_Charging>  (235) 
0

>  <r_epik_Ionization_Penalty_Neutral>  (235) 
1.24095e-08

>  <r_epik_State_Penalty>  (235) 
-0

>  <r_epik_Charging_Adjusted_Penalty>  (235) 
0

>  <i_epik_Tot_Q>  (235) 
0

>  <i_epik_Tot_abs_Q>  (235) 
0

>  <s_epik_Chemistry_Notes>  (235) 
This compound has an imine and may undergo hydrolysis.

>  <s_lp_Force_Field>  (235) 
OPLS3e

>  <r_lp_Energy>  (235) 
41.1623

>  <b_lp_Chiralities_Consistent>  (235) 
1

>  <s_lp_Variant>  (235) 
73:0-2

>  <s_i_glide_gridfile>  (235) 
pfpi4k_grid

>  <i_i_glide_lignum>  (235) 
19

>  <i_i_glide_rotatable_bonds>  (235) 
5

>  <r_i_docking_score>  (235) 
-3.33965

>  <r_i_glide_ligand_efficiency>  (235) 
-0.145202

>  <r_i_glide_ligand_efficiency_sa>  (235) 
-0.412936

>  <r_i_glide_ligand_efficiency_ln>  (235) 
-0.807558

>  <r_i_glide_gscore>  (235) 
-3.33965

>  <r_i_glide_lipo>  (235) 
-0.239776

>  <r_i_glide_hbond>  (235) 
0

>  <r_i_glide_metal>  (235) 
-0

>  <r_i_glide_rewards>  (235) 
-1.1566

>  <r_i_glide_evdw>  (235) 
-27.9542

>  <r_i_glide_ecoul>  (235) 
-4.86222

>  <r_i_glide_erotb>  (235) 
0.344638

>  <r_i_glide_esite>  (235) 
-0.160877

>  <r_i_glide_emodel>  (235) 
-32.7359

>  <r_i_glide_energy>  (235) 
-32.8164

>  <r_i_glide_einternal>  (235) 
10.6843

>  <r_i_glide_intrahb_reward>  (235) 
-0

>  <i_i_glide_confnum>  (235) 
3

>  <i_i_glide_posenum>  (235) 
9

>  <r_i_glide_eff_state_penalty>  (235) 
0

>  <ligand_id>  (235) 
73

>  <original_smiles>  (235) 
COc1ccc(C=Nc2cn3c(SC)nnc3nn2)cc1OC

>  <smiles>  (235) 
[H]C(=Nc1nnc2nnc(SC([H])([H])[H])n2c1[H])c1c([H])c([H])c(OC([H])([H])[H])c(OC([H])([H])[H])c1[H]

$$$$
73:1:2
     RDKit          3D

 37 39  0  0  1  0  0  0  0  0999 V2000
   -1.3823   -9.2319    2.2186 C   0  0  0  0  0  0  0  0  0  0  0  0
   -1.1903   -8.2262    3.1834 O   0  0  0  0  0  0  0  0  0  0  0  0
   -0.2097   -7.2981    2.9424 C   0  0  0  0  0  0  0  0  0  0  0  0
    0.5629   -7.1947    1.7458 C   0  0  0  0  0  0  0  0  0  0  0  0
    1.5405   -6.1789    1.5857 C   0  0  0  0  0  0  0  0  0  0  0  0
    1.7764   -5.2482    2.6445 C   0  0  0  0  0  0  0  0  0  0  0  0
    2.7744   -4.1386    2.4291 C   0  0  0  0  0  0  0  0  0  0  0  0
    2.8619   -2.9293    2.8559 N   0  0  0  0  0  0  0  0  0  0  0  0
    1.9489   -2.3203    3.7322 C   0  0  0  0  0  0  0  0  0  0  0  0
    1.1783   -1.2331    3.1757 C   0  0  0  0  0  0  0  0  0  0  0  0
    0.1992   -0.7479    4.0915 N   0  0  0  0  0  0  0  0  0  0  0  0
   -0.6682    0.2932    4.0496 C   0  0  0  0  0  0  0  0  0  0  0  0
   -0.8113    1.4665    2.7464 S   0  0  0  0  0  0  0  0  0  0  0  0
    0.9280    2.0254    2.7020 C   0  0  0  0  0  0  0  0  0  0  0  0
   -1.4266    0.2675    5.1737 N   0  0  0  0  0  0  0  0  0  0  0  0
   -1.0093   -0.8094    5.9484 N   0  0  0  0  0  0  0  0  0  0  0  0
    0.0545   -1.3722    5.3268 C   0  0  0  0  0  0  0  0  0  0  0  0
    0.9087   -2.3356    5.7804 N   0  0  0  0  0  0  0  0  0  0  0  0
    1.8784   -2.7431    4.9796 N   0  0  0  0  0  0  0  0  0  0  0  0
    1.0779   -5.4211    3.8814 C   0  0  0  0  0  0  0  0  0  0  0  0
    0.0499   -6.3950    4.0080 C   0  0  0  0  0  0  0  0  0  0  0  0
   -0.7136   -6.5107    5.1576 O   0  0  0  0  0  0  0  0  0  0  0  0
   -0.4676   -5.5855    6.2319 C   0  0  0  0  0  0  0  0  0  0  0  0
   -2.1786   -9.8802    2.5722 H   0  0  0  0  0  0  0  0  0  0  0  0
   -0.4755   -9.8203    2.0848 H   0  0  0  0  0  0  0  0  0  0  0  0
   -1.6793   -8.7759    1.2753 H   0  0  0  0  0  0  0  0  0  0  0  0
    0.4203   -7.8977    0.9231 H   0  0  0  0  0  0  0  0  0  0  0  0
    2.1133   -6.1258    0.6586 H   0  0  0  0  0  0  0  0  0  0  0  0
    3.5965   -4.4380    1.7713 H   0  0  0  0  0  0  0  0  0  0  0  0
    1.3092   -0.8271    2.1802 H   0  0  0  0  0  0  0  0  0  0  0  0
    1.0134    2.9333    2.1102 H   0  0  0  0  0  0  0  0  0  0  0  0
    1.5915    1.2990    2.2307 H   0  0  0  0  0  0  0  0  0  0  0  0
    1.3001    2.2330    3.7085 H   0  0  0  0  0  0  0  0  0  0  0  0
    1.3404   -4.8684    4.7392 H   0  0  0  0  0  0  0  0  0  0  0  0
   -1.1669   -5.7631    7.0504 H   0  0  0  0  0  0  0  0  0  0  0  0
   -0.6256   -4.5438    5.9355 H   0  0  0  0  0  0  0  0  0  0  0  0
    0.5408   -5.6802    6.6523 H   0  0  0  0  0  0  0  0  0  0  0  0
  1  2  1  0
  1 24  1  0
  1 25  1  0
  1 26  1  0
  2  3  1  0
  3 21  2  0
  3  4  1  0
  4  5  2  0
  4 27  1  0
  5  6  1  0
  5 28  1  0
  6  7  1  0
  6 20  2  0
  7  8  2  3
  7 29  1  0
  8  9  1  0
  9 19  1  0
  9 10  2  0
 10 11  1  0
 10 30  1  0
 11 17  1  0
 11 12  1  0
 12 13  1  0
 12 15  2  0
 13 14  1  0
 14 31  1  0
 14 32  1  0
 14 33  1  0
 15 16  1  0
 16 17  2  0
 17 18  1  0
 18 19  2  0
 20 21  1  0
 20 34  1  0
 21 22  1  0
 22 23  1  0
 23 35  1  0
 23 36  1  0
 23 37  1  0
M  END
>  <i_m_ct_stereo_status>  (236) 
1

>  <s_m_source_file>  (236) 
/var/tmp/pbs.5076255.sched01/tmpbzpkhbzu/844yn2io63.sdf

>  <i_m_source_file_index>  (236) 
19

>  <i_lp_mmshare_version>  (236) 
48012

>  <i_f3d_flags>  (236) 
0

>  <s_epik_input>  (236) 
W0NIM11PYzFbY0hdW2NIXWMoW2NIXWMxT1tDSDNdKS9bQ0hdPU4vYyhbY0hdMilubmMobjIzKW5uYzNTW0NIM10=

>  <s_epik_cmdline>  (236) 
J2VwaWtfcHl0aG9uJywgJy1waHQnLCAnMi4wJywgJy1waCcsICc3LjAnLCAnLXRuJywgJzgnLCAnLW1hJywgJzIwMCcsICctaW1hZScsICc8aW5maWxlLm1hZT4nLCAnLW9tYWUnLCAnPG91dGZpbGUubWFlPic=

>  <r_lp_tautomer_probability>  (236) 
1

>  <r_epik_Ionization_Penalty>  (236) 
1.24095e-08

>  <r_epik_Ionization_Penalty_Charging>  (236) 
0

>  <r_epik_Ionization_Penalty_Neutral>  (236) 
1.24095e-08

>  <r_epik_State_Penalty>  (236) 
-0

>  <r_epik_Charging_Adjusted_Penalty>  (236) 
0

>  <i_epik_Tot_Q>  (236) 
0

>  <i_epik_Tot_abs_Q>  (236) 
0

>  <s_epik_Chemistry_Notes>  (236) 
This compound has an imine and may undergo hydrolysis.

>  <s_lp_Force_Field>  (236) 
OPLS3e

>  <r_lp_Energy>  (236) 
41.1623

>  <b_lp_Chiralities_Consistent>  (236) 
1

>  <s_lp_Variant>  (236) 
73:0-2

>  <s_i_glide_gridfile>  (236) 
pfpi4k_grid

>  <i_i_glide_lignum>  (236) 
19

>  <i_i_glide_rotatable_bonds>  (236) 
5

>  <r_i_docking_score>  (236) 
-3.29464

>  <r_i_glide_ligand_efficiency>  (236) 
-0.143245

>  <r_i_glide_ligand_efficiency_sa>  (236) 
-0.407371

>  <r_i_glide_ligand_efficiency_ln>  (236) 
-0.796675

>  <r_i_glide_gscore>  (236) 
-3.29464

>  <r_i_glide_lipo>  (236) 
-0.269319

>  <r_i_glide_hbond>  (236) 
0

>  <r_i_glide_metal>  (236) 
-0

>  <r_i_glide_rewards>  (236) 
-1.1566

>  <r_i_glide_evdw>  (236) 
-26.8598

>  <r_i_glide_ecoul>  (236) 
-4.7672

>  <r_i_glide_erotb>  (236) 
0.344638

>  <r_i_glide_esite>  (236) 
-0.155299

>  <r_i_glide_emodel>  (236) 
-36.4141

>  <r_i_glide_energy>  (236) 
-31.627

>  <r_i_glide_einternal>  (236) 
2.43376

>  <r_i_glide_intrahb_reward>  (236) 
-0

>  <i_i_glide_confnum>  (236) 
3

>  <i_i_glide_posenum>  (236) 
12

>  <r_i_glide_eff_state_penalty>  (236) 
0

>  <ligand_id>  (236) 
73

>  <original_smiles>  (236) 
COc1ccc(C=Nc2cn3c(SC)nnc3nn2)cc1OC

>  <smiles>  (236) 
[H]C(=Nc1nnc2nnc(SC([H])([H])[H])n2c1[H])c1c([H])c([H])c(OC([H])([H])[H])c(OC([H])([H])[H])c1[H]

$$$$
75:0:0
     RDKit          3D

 58 64  0  0  1  0  0  0  0  0999 V2000
    6.8411   -1.0832    0.7624 C   0  0  0  0  0  0  0  0  0  0  0  0
    5.8756   -1.9333    1.4992 N   0  0  0  0  0  0  0  0  0  0  0  0
    5.2421   -1.2234    2.6228 C   0  0  0  0  0  0  0  0  0  0  0  0
    5.6295   -0.0965    2.9287 O   0  0  0  0  0  0  0  0  0  0  0  0
    3.9559   -1.7462    3.6487 C   0  0  2  0  0  0  0  0  0  0  0  0
    4.3781   -1.8332    5.1518 C   0  0  0  0  0  0  0  0  0  0  0  0
    4.8299   -3.1868    5.7705 C   0  0  2  0  0  0  0  0  0  0  0  0
    6.2036   -3.5326    5.5687 O   0  0  0  0  0  0  0  0  0  0  0  0
    5.2750   -4.5109    5.1037 C   0  0  2  0  0  0  0  0  0  0  0  0
    5.3990   -4.7968    3.6090 C   0  0  2  0  0  0  0  0  0  0  0  0
    4.9665   -3.6142    3.0669 O   0  0  0  0  0  0  0  0  0  0  0  0
    3.6656   -3.2461    2.1194 C   0  0  2  0  0  0  0  0  0  0  0  0
    2.9338   -3.0773    3.2925 C   0  0  2  0  0  0  0  0  0  0  0  0
    1.4732   -2.6252    3.1250 C   0  0  0  0  0  0  0  0  0  0  0  0
    3.0012   -4.7201    3.5118 C   0  0  0  0  0  0  0  0  0  0  0  0
    4.3525   -5.4056    2.7927 C   0  0  2  0  0  0  0  0  0  0  0  0
    4.3431   -6.9374    2.8886 C   0  0  0  0  0  0  0  0  0  0  0  0
    4.6829   -4.8033    1.2142 C   0  0  1  0  0  0  0  0  0  0  0  0
    3.3645   -4.2114    0.9885 C   0  0  1  0  0  0  0  0  0  0  0  0
    2.2244   -3.8883   -0.0174 C   0  0  0  0  0  0  0  0  0  0  0  0
    3.5425   -4.0522   -0.5475 C   0  0  1  0  0  0  0  0  0  0  0  0
    4.4780   -3.0302   -1.1688 C   0  0  0  0  0  0  0  0  0  0  0  0
    4.7025   -3.3616   -2.6571 C   0  0  0  0  0  0  0  0  0  0  0  0
    4.0414   -1.5502   -1.0836 C   0  0  0  0  0  0  0  0  0  0  0  0
    5.7407   -3.2742   -0.5557 O   0  0  0  0  0  0  0  0  0  0  0  0
    5.8356   -3.4509    0.8389 C   0  0  1  0  0  0  0  0  0  0  0  0
    7.2602   -4.0143    1.0054 C   0  0  0  0  0  0  0  0  0  0  0  0
    6.5057   -0.0513    0.6625 H   0  0  0  0  0  0  0  0  0  0  0  0
    7.0227   -1.3994   -0.2620 H   0  0  0  0  0  0  0  0  0  0  0  0
    7.8074   -1.0914    1.2639 H   0  0  0  0  0  0  0  0  0  0  0  0
    3.3059   -0.8760    3.5983 H   0  0  0  0  0  0  0  0  0  0  0  0
    5.1476   -1.0970    5.3685 H   0  0  0  0  0  0  0  0  0  0  0  0
    3.5137   -1.5118    5.7331 H   0  0  0  0  0  0  0  0  0  0  0  0
    4.5499   -3.2532    6.8204 H   0  0  0  0  0  0  0  0  0  0  0  0
    5.2457   -5.4051    5.7228 H   0  0  0  0  0  0  0  0  0  0  0  0
    6.4160   -5.0792    3.3393 H   0  0  0  0  0  0  0  0  0  0  0  0
    3.4572   -2.3380    1.5610 H   0  0  0  0  0  0  0  0  0  0  0  0
    0.9286   -3.3558    2.5381 H   0  0  0  0  0  0  0  0  0  0  0  0
    1.3728   -1.6622    2.6197 H   0  0  0  0  0  0  0  0  0  0  0  0
    0.9774   -2.5539    4.0951 H   0  0  0  0  0  0  0  0  0  0  0  0
    2.9017   -4.9655    4.5669 H   0  0  0  0  0  0  0  0  0  0  0  0
    2.1178   -5.1878    3.0709 H   0  0  0  0  0  0  0  0  0  0  0  0
    3.5364   -7.3667    2.2942 H   0  0  0  0  0  0  0  0  0  0  0  0
    4.2042   -7.2577    3.9222 H   0  0  0  0  0  0  0  0  0  0  0  0
    5.2865   -7.3595    2.5362 H   0  0  0  0  0  0  0  0  0  0  0  0
    4.8963   -5.6541    0.5617 H   0  0  0  0  0  0  0  0  0  0  0  0
    1.5184   -4.6803   -0.2529 H   0  0  0  0  0  0  0  0  0  0  0  0
    1.8180   -2.8763    0.0015 H   0  0  0  0  0  0  0  0  0  0  0  0
    3.6700   -4.9942   -1.0602 H   0  0  0  0  0  0  0  0  0  0  0  0
    3.7844   -3.2598   -3.2318 H   0  0  0  0  0  0  0  0  0  0  0  0
    5.0565   -4.3819   -2.7983 H   0  0  0  0  0  0  0  0  0  0  0  0
    5.4477   -2.7038   -3.0986 H   0  0  0  0  0  0  0  0  0  0  0  0
    3.0919   -1.3932   -1.5988 H   0  0  0  0  0  0  0  0  0  0  0  0
    4.7892   -0.9175   -1.5645 H   0  0  0  0  0  0  0  0  0  0  0  0
    3.9210   -1.1760   -0.0741 H   0  0  0  0  0  0  0  0  0  0  0  0
    7.6081   -3.9003    2.0265 H   0  0  0  0  0  0  0  0  0  0  0  0
    7.9581   -3.4788    0.3603 H   0  0  0  0  0  0  0  0  0  0  0  0
    7.2906   -5.0688    0.7283 H   0  0  0  0  0  0  0  0  0  0  0  0
  1  2  1  0
  1 28  1  0
  1 29  1  0
  1 30  1  0
  2 26  1  0
  2  3  1  0
  3  4  2  0
  3  5  1  0
  5 13  1  0
  5  6  1  0
  5 31  1  1
  6  7  1  0
  6 32  1  0
  6 33  1  0
  7  9  1  0
  7  8  1  0
  7 34  1  1
  8  9  1  0
  9 10  1  0
  9 35  1  1
 10 16  1  0
 10 11  1  0
 10 36  1  1
 11 12  1  0
 12 19  1  0
 12 13  1  0
 12 37  1  6
 13 14  1  6
 13 15  1  0
 14 38  1  0
 14 39  1  0
 14 40  1  0
 15 16  1  0
 15 41  1  0
 15 42  1  0
 16 17  1  6
 16 18  1  0
 17 43  1  0
 17 44  1  0
 17 45  1  0
 18 26  1  0
 18 19  1  0
 18 46  1  6
 19 21  1  0
 19 20  1  6
 20 21  1  0
 20 47  1  0
 20 48  1  0
 21 22  1  0
 21 49  1  6
 22 23  1  0
 22 24  1  0
 22 25  1  0
 23 50  1  0
 23 51  1  0
 23 52  1  0
 24 53  1  0
 24 54  1  0
 24 55  1  0
 25 26  1  0
 26 27  1  6
 27 56  1  0
 27 57  1  0
 27 58  1  0
M  END
>  <i_m_ct_stereo_status>  (237) 
1

>  <s_m_source_file>  (237) 
/var/tmp/pbs.5076255.sched01/tmpbzpkhbzu/844yn2io63.sdf

>  <i_m_source_file_index>  (237) 
21

>  <i_lp_mmshare_version>  (237) 
48012

>  <i_f3d_flags>  (237) 
0

>  <s_epik_input>  (237) 
W0NAXTEyM1tDQEhdNFtDQF01KFtDSDNdKVtDQEBIXTZDKD1PKU4oW0NIM10pW0NAXShbQ0gzXSkoT0MoW0NIM10pKFtDSDNdKVtDQEBIXTNbQ0gyXTIpW0NASF0xW0NAQF0oW0NIMl01KShbQ0gzXSlbQ0BASF0oTzQpW0NAQEhdN1tDQEBIXShPNylbQ0gyXTY=

>  <s_epik_cmdline>  (237) 
J2VwaWtfcHl0aG9uJywgJy1waHQnLCAnMi4wJywgJy1waCcsICc3LjAnLCAnLXRuJywgJzgnLCAnLW1hJywgJzIwMCcsICctaW1hZScsICc8aW5maWxlLm1hZT4nLCAnLW9tYWUnLCAnPG91dGZpbGUubWFlPic=

>  <r_lp_tautomer_probability>  (237) 
1

>  <r_epik_Ionization_Penalty>  (237) 
7.87856e-10

>  <r_epik_Ionization_Penalty_Charging>  (237) 
0

>  <r_epik_Ionization_Penalty_Neutral>  (237) 
7.87856e-10

>  <r_epik_State_Penalty>  (237) 
-0

>  <r_epik_Charging_Adjusted_Penalty>  (237) 
0

>  <i_epik_Tot_Q>  (237) 
0

>  <i_epik_Tot_abs_Q>  (237) 
0

>  <s_lp_Force_Field>  (237) 
OPLS3e

>  <r_lp_Energy>  (237) 
481.523

>  <b_lp_Chiralities_Consistent>  (237) 
1

>  <s_lp_Variant>  (237) 
75:0-1

>  <s_i_glide_gridfile>  (237) 
pfpi4k_grid

>  <i_i_glide_lignum>  (237) 
21

>  <i_i_glide_rotatable_bonds>  (237) 
0

>  <r_i_docking_score>  (237) 
-2.75937

>  <r_i_glide_ligand_efficiency>  (237) 
-0.102199

>  <r_i_glide_ligand_efficiency_sa>  (237) 
-0.306597

>  <r_i_glide_ligand_efficiency_ln>  (237) 
-0.642337

>  <r_i_glide_gscore>  (237) 
-2.75937

>  <r_i_glide_lipo>  (237) 
-0.27237

>  <r_i_glide_hbond>  (237) 
-0.143589

>  <r_i_glide_metal>  (237) 
-0

>  <r_i_glide_rewards>  (237) 
-1.28097

>  <r_i_glide_evdw>  (237) 
-14.9615

>  <r_i_glide_ecoul>  (237) 
-2.09576

>  <r_i_glide_erotb>  (237) 
0

>  <r_i_glide_esite>  (237) 
0

>  <r_i_glide_emodel>  (237) 
-19.5664

>  <r_i_glide_energy>  (237) 
-17.0573

>  <r_i_glide_einternal>  (237) 
0

>  <r_i_glide_intrahb_reward>  (237) 
-0

>  <i_i_glide_confnum>  (237) 
2

>  <i_i_glide_posenum>  (237) 
18

>  <r_i_glide_eff_state_penalty>  (237) 
0

>  <ligand_id>  (237) 
75

>  <original_smiles>  (237) 
CN1C(=O)C2CC3OC3C3OC4C2(C)CC3(C)C2C43CC3C(C)(C)OC21C

>  <smiles>  (237) 
[H]C([H])([H])N1C(=O)C2([H])C([H])([H])C3([H])OC3([H])C3([H])OC4([H])C2(C([H])([H])[H])C([H])([H])C3(C([H])([H])[H])C2([H])C1(C([H])([H])[H])OC(C([H])([H])[H])(C([H])([H])[H])C1([H])C([H])([H])C412

$$$$
75:0:1
     RDKit          3D

 58 64  0  0  1  0  0  0  0  0999 V2000
    4.1138    2.4100    6.5794 C   0  0  0  0  0  0  0  0  0  0  0  0
    2.9221    2.0124    5.7947 N   0  0  0  0  0  0  0  0  0  0  0  0
    2.4273    3.1133    4.9441 C   0  0  0  0  0  0  0  0  0  0  0  0
    2.9480    4.2275    5.0324 O   0  0  0  0  0  0  0  0  0  0  0  0
    1.1599    3.0858    3.7763 C   0  0  2  0  0  0  0  0  0  0  0  0
   -0.0069    4.0651    4.1339 C   0  0  0  0  0  0  0  0  0  0  0  0
   -1.2724    3.5514    4.8760 C   0  0  2  0  0  0  0  0  0  0  0  0
   -1.1549    3.4575    6.3024 O   0  0  0  0  0  0  0  0  0  0  0  0
   -1.5339    2.2440    5.6543 C   0  0  2  0  0  0  0  0  0  0  0  0
   -0.5488    1.1117    5.9178 C   0  0  2  0  0  0  0  0  0  0  0  0
    0.5604    1.5509    5.2389 O   0  0  0  0  0  0  0  0  0  0  0  0
    1.3728    0.9333    3.9439 C   0  0  2  0  0  0  0  0  0  0  0  0
    0.4888    1.6395    3.1318 C   0  0  2  0  0  0  0  0  0  0  0  0
    0.7344    1.5255    1.6158 C   0  0  0  0  0  0  0  0  0  0  0  0
   -0.7041    0.5832    3.5889 C   0  0  0  0  0  0  0  0  0  0  0  0
   -0.4219   -0.0888    5.0964 C   0  0  2  0  0  0  0  0  0  0  0  0
   -1.4578   -1.1667    5.4491 C   0  0  0  0  0  0  0  0  0  0  0  0
    1.2138   -0.5670    5.3534 C   0  0  1  0  0  0  0  0  0  0  0  0
    1.6035   -0.5708    3.9401 C   0  0  1  0  0  0  0  0  0  0  0  0
    2.4542   -1.2003    2.8004 C   0  0  0  0  0  0  0  0  0  0  0  0
    2.9086   -1.3984    4.1436 C   0  0  1  0  0  0  0  0  0  0  0  0
    4.1252   -0.8120    4.8518 C   0  0  0  0  0  0  0  0  0  0  0  0
    5.1016   -1.9395    5.2360 C   0  0  0  0  0  0  0  0  0  0  0  0
    4.9374    0.2487    4.0734 C   0  0  0  0  0  0  0  0  0  0  0  0
    3.6473   -0.3207    6.1025 O   0  0  0  0  0  0  0  0  0  0  0  0
    2.4767    0.4597    6.1622 C   0  0  1  0  0  0  0  0  0  0  0  0
    2.1542    0.4776    7.6725 C   0  0  0  0  0  0  0  0  0  0  0  0
    4.7925    3.0743    6.0433 H   0  0  0  0  0  0  0  0  0  0  0  0
    4.7430    1.5764    6.8863 H   0  0  0  0  0  0  0  0  0  0  0  0
    3.7912    2.9202    7.4861 H   0  0  0  0  0  0  0  0  0  0  0  0
    1.6593    3.5625    2.9342 H   0  0  0  0  0  0  0  0  0  0  0  0
    0.3771    4.9284    4.6766 H   0  0  0  0  0  0  0  0  0  0  0  0
   -0.3647    4.4723    3.1876 H   0  0  0  0  0  0  0  0  0  0  0  0
   -2.1638    4.1001    4.5790 H   0  0  0  0  0  0  0  0  0  0  0  0
   -2.5746    1.9744    5.8152 H   0  0  0  0  0  0  0  0  0  0  0  0
   -0.3979    0.9516    6.9851 H   0  0  0  0  0  0  0  0  0  0  0  0
    2.3489    1.2104    3.5553 H   0  0  0  0  0  0  0  0  0  0  0  0
    0.6781    0.4946    1.2635 H   0  0  0  0  0  0  0  0  0  0  0  0
    1.7069    1.9191    1.3143 H   0  0  0  0  0  0  0  0  0  0  0  0
   -0.0282    2.0838    1.0718 H   0  0  0  0  0  0  0  0  0  0  0  0
   -1.6850    1.0431    3.4881 H   0  0  0  0  0  0  0  0  0  0  0  0
   -0.7426   -0.2412    2.8792 H   0  0  0  0  0  0  0  0  0  0  0  0
   -1.3553   -2.0369    4.8004 H   0  0  0  0  0  0  0  0  0  0  0  0
   -2.4737   -0.7834    5.3335 H   0  0  0  0  0  0  0  0  0  0  0  0
   -1.3344   -1.5027    6.4790 H   0  0  0  0  0  0  0  0  0  0  0  0
    1.2134   -1.5619    5.8056 H   0  0  0  0  0  0  0  0  0  0  0  0
    2.0375   -2.0631    2.2830 H   0  0  0  0  0  0  0  0  0  0  0  0
    3.0346   -0.5279    2.1685 H   0  0  0  0  0  0  0  0  0  0  0  0
    2.7487   -2.4260    4.4698 H   0  0  0  0  0  0  0  0  0  0  0  0
    5.5137   -2.4314    4.3565 H   0  0  0  0  0  0  0  0  0  0  0  0
    4.6204   -2.7055    5.8423 H   0  0  0  0  0  0  0  0  0  0  0  0
    5.9368   -1.5551    5.8209 H   0  0  0  0  0  0  0  0  0  0  0  0
    5.3383   -0.1618    3.1454 H   0  0  0  0  0  0  0  0  0  0  0  0
    5.7880    0.5800    4.6736 H   0  0  0  0  0  0  0  0  0  0  0  0
    4.3842    1.1445    3.8159 H   0  0  0  0  0  0  0  0  0  0  0  0
    1.4915    1.3046    7.9285 H   0  0  0  0  0  0  0  0  0  0  0  0
    3.0699    0.6040    8.2513 H   0  0  0  0  0  0  0  0  0  0  0  0
    1.7077   -0.4690    7.9781 H   0  0  0  0  0  0  0  0  0  0  0  0
  1  2  1  0
  1 28  1  0
  1 29  1  0
  1 30  1  0
  2 26  1  0
  2  3  1  0
  3  4  2  0
  3  5  1  0
  5 13  1  0
  5  6  1  0
  5 31  1  6
  6  7  1  0
  6 32  1  0
  6 33  1  0
  7  9  1  0
  7  8  1  0
  7 34  1  1
  8  9  1  0
  9 10  1  0
  9 35  1  1
 10 16  1  0
 10 11  1  0
 10 36  1  1
 11 12  1  0
 12 19  1  0
 12 13  1  0
 12 37  1  1
 13 14  1  6
 13 15  1  0
 14 38  1  0
 14 39  1  0
 14 40  1  0
 15 16  1  0
 15 41  1  0
 15 42  1  0
 16 17  1  1
 16 18  1  0
 17 43  1  0
 17 44  1  0
 17 45  1  0
 18 26  1  0
 18 19  1  0
 18 46  1  1
 19 21  1  0
 19 20  1  6
 20 21  1  0
 20 47  1  0
 20 48  1  0
 21 22  1  0
 21 49  1  1
 22 23  1  0
 22 24  1  0
 22 25  1  0
 23 50  1  0
 23 51  1  0
 23 52  1  0
 24 53  1  0
 24 54  1  0
 24 55  1  0
 25 26  1  0
 26 27  1  1
 27 56  1  0
 27 57  1  0
 27 58  1  0
M  END
>  <i_m_ct_stereo_status>  (238) 
1

>  <s_m_source_file>  (238) 
/var/tmp/pbs.5076255.sched01/tmpbzpkhbzu/844yn2io63.sdf

>  <i_m_source_file_index>  (238) 
21

>  <i_lp_mmshare_version>  (238) 
48012

>  <i_f3d_flags>  (238) 
0

>  <s_epik_input>  (238) 
W0NAXTEyM1tDQEhdNFtDQF01KFtDSDNdKVtDQEBIXTZDKD1PKU4oW0NIM10pW0NAXShbQ0gzXSkoT0MoW0NIM10pKFtDSDNdKVtDQEBIXTNbQ0gyXTIpW0NASF0xW0NAQF0oW0NIMl01KShbQ0gzXSlbQ0BASF0oTzQpW0NAQEhdN1tDQEBIXShPNylbQ0gyXTY=

>  <s_epik_cmdline>  (238) 
J2VwaWtfcHl0aG9uJywgJy1waHQnLCAnMi4wJywgJy1waCcsICc3LjAnLCAnLXRuJywgJzgnLCAnLW1hJywgJzIwMCcsICctaW1hZScsICc8aW5maWxlLm1hZT4nLCAnLW9tYWUnLCAnPG91dGZpbGUubWFlPic=

>  <r_lp_tautomer_probability>  (238) 
1

>  <r_epik_Ionization_Penalty>  (238) 
7.87856e-10

>  <r_epik_Ionization_Penalty_Charging>  (238) 
0

>  <r_epik_Ionization_Penalty_Neutral>  (238) 
7.87856e-10

>  <r_epik_State_Penalty>  (238) 
-0

>  <r_epik_Charging_Adjusted_Penalty>  (238) 
0

>  <i_epik_Tot_Q>  (238) 
0

>  <i_epik_Tot_abs_Q>  (238) 
0

>  <s_lp_Force_Field>  (238) 
OPLS3e

>  <r_lp_Energy>  (238) 
481.523

>  <b_lp_Chiralities_Consistent>  (238) 
1

>  <s_lp_Variant>  (238) 
75:0-1

>  <s_i_glide_gridfile>  (238) 
pfpi4k_grid

>  <i_i_glide_lignum>  (238) 
21

>  <i_i_glide_rotatable_bonds>  (238) 
0

>  <r_i_docking_score>  (238) 
-1.88994

>  <r_i_glide_ligand_efficiency>  (238) 
-0.0699977

>  <r_i_glide_ligand_efficiency_sa>  (238) 
-0.209993

>  <r_i_glide_ligand_efficiency_ln>  (238) 
-0.439946

>  <r_i_glide_gscore>  (238) 
-1.88994

>  <r_i_glide_lipo>  (238) 
-0.10543

>  <r_i_glide_hbond>  (238) 
0

>  <r_i_glide_metal>  (238) 
-0

>  <r_i_glide_rewards>  (238) 
-0.862597

>  <r_i_glide_evdw>  (238) 
-16.8314

>  <r_i_glide_ecoul>  (238) 
-0.507299

>  <r_i_glide_erotb>  (238) 
0

>  <r_i_glide_esite>  (238) 
-0.00424852

>  <r_i_glide_emodel>  (238) 
-19.0057

>  <r_i_glide_energy>  (238) 
-17.3387

>  <r_i_glide_einternal>  (238) 
0

>  <r_i_glide_intrahb_reward>  (238) 
-0

>  <i_i_glide_confnum>  (238) 
1

>  <i_i_glide_posenum>  (238) 
2

>  <r_i_glide_eff_state_penalty>  (238) 
0

>  <ligand_id>  (238) 
75

>  <original_smiles>  (238) 
CN1C(=O)C2CC3OC3C3OC4C2(C)CC3(C)C2C43CC3C(C)(C)OC21C

>  <smiles>  (238) 
[H]C([H])([H])N1C(=O)C2([H])C([H])([H])C3([H])OC3([H])C3([H])OC4([H])C2(C([H])([H])[H])C([H])([H])C3(C([H])([H])[H])C2([H])C1(C([H])([H])[H])OC(C([H])([H])[H])(C([H])([H])[H])C1([H])C([H])([H])C412

$$$$
75:0:2
     RDKit          3D

 58 64  0  0  1  0  0  0  0  0999 V2000
    4.8862   -0.0235    5.1280 C   0  0  0  0  0  0  0  0  0  0  0  0
    3.5307    0.5746    5.1223 N   0  0  0  0  0  0  0  0  0  0  0  0
    3.5469    1.9840    5.5583 C   0  0  0  0  0  0  0  0  0  0  0  0
    4.5994    2.4818    5.9633 O   0  0  0  0  0  0  0  0  0  0  0  0
    2.2483    3.1181    5.5900 C   0  0  2  0  0  0  0  0  0  0  0  0
    1.9393    3.6349    7.0343 C   0  0  0  0  0  0  0  0  0  0  0  0
    0.8167    2.9788    7.8872 C   0  0  2  0  0  0  0  0  0  0  0  0
    1.1881    1.7778    8.5783 O   0  0  0  0  0  0  0  0  0  0  0  0
    0.0598    1.6435    7.7144 C   0  0  2  0  0  0  0  0  0  0  0  0
    0.2817    0.5839    6.6420 C   0  0  2  0  0  0  0  0  0  0  0  0
    1.2545    1.1732    5.8757 O   0  0  0  0  0  0  0  0  0  0  0  0
    1.2656    1.6714    4.3058 C   0  0  2  0  0  0  0  0  0  0  0  0
    0.7610    2.8919    4.7548 C   0  0  2  0  0  0  0  0  0  0  0  0
    0.5451    3.9778    3.6799 C   0  0  0  0  0  0  0  0  0  0  0  0
   -0.6751    2.1247    5.0770 C   0  0  0  0  0  0  0  0  0  0  0  0
   -0.4697    0.4901    5.3947 C   0  0  2  0  0  0  0  0  0  0  0  0
   -1.8116   -0.2389    5.5648 C   0  0  0  0  0  0  0  0  0  0  0  0
    0.6345   -0.2979    4.3331 C   0  0  1  0  0  0  0  0  0  0  0  0
    0.6191    0.7363    3.2952 C   0  0  1  0  0  0  0  0  0  0  0  0
    0.6951    1.1019    1.7884 C   0  0  0  0  0  0  0  0  0  0  0  0
    1.2538   -0.1555    2.1816 C   0  0  1  0  0  0  0  0  0  0  0  0
    2.7141   -0.5890    2.2405 C   0  0  0  0  0  0  0  0  0  0  0  0
    2.9637   -1.7379    1.2472 C   0  0  0  0  0  0  0  0  0  0  0  0
    3.7691    0.5011    1.9509 C   0  0  0  0  0  0  0  0  0  0  0  0
    2.8915   -1.1871    3.5235 O   0  0  0  0  0  0  0  0  0  0  0  0
    2.3999   -0.5529    4.6803 C   0  0  1  0  0  0  0  0  0  0  0  0
    2.5014   -1.6660    5.7466 C   0  0  0  0  0  0  0  0  0  0  0  0
    5.6731    0.6653    4.8189 H   0  0  0  0  0  0  0  0  0  0  0  0
    4.9993   -0.8744    4.4588 H   0  0  0  0  0  0  0  0  0  0  0  0
    5.1201   -0.3725    6.1328 H   0  0  0  0  0  0  0  0  0  0  0  0
    2.7231    3.9641    5.0969 H   0  0  0  0  0  0  0  0  0  0  0  0
    2.8489    3.6520    7.6349 H   0  0  0  0  0  0  0  0  0  0  0  0
    1.6580    4.6837    6.9333 H   0  0  0  0  0  0  0  0  0  0  0  0
    0.3430    3.7001    8.5524 H   0  0  0  0  0  0  0  0  0  0  0  0
   -0.8840    1.5494    8.2469 H   0  0  0  0  0  0  0  0  0  0  0  0
    0.5607   -0.3741    7.0787 H   0  0  0  0  0  0  0  0  0  0  0  0
    2.1111    1.9619    3.6883 H   0  0  0  0  0  0  0  0  0  0  0  0
   -0.1480    3.6505    2.9027 H   0  0  0  0  0  0  0  0  0  0  0  0
    1.4685    4.2605    3.1710 H   0  0  0  0  0  0  0  0  0  0  0  0
    0.1242    4.8808    4.1245 H   0  0  0  0  0  0  0  0  0  0  0  0
   -1.2242    2.6541    5.8529 H   0  0  0  0  0  0  0  0  0  0  0  0
   -1.3354    2.2120    4.2112 H   0  0  0  0  0  0  0  0  0  0  0  0
   -2.3659   -0.2698    4.6262 H   0  0  0  0  0  0  0  0  0  0  0  0
   -2.4391    0.2711    6.2977 H   0  0  0  0  0  0  0  0  0  0  0  0
   -1.6621   -1.2667    5.9016 H   0  0  0  0  0  0  0  0  0  0  0  0
    0.1880   -1.2428    4.0125 H   0  0  0  0  0  0  0  0  0  0  0  0
   -0.2406    1.0848    1.2365 H   0  0  0  0  0  0  0  0  0  0  0  0
    1.3849    1.8900    1.4867 H   0  0  0  0  0  0  0  0  0  0  0  0
    0.6326   -0.9882    1.8549 H   0  0  0  0  0  0  0  0  0  0  0  0
    2.8229   -1.4136    0.2180 H   0  0  0  0  0  0  0  0  0  0  0  0
    2.2908   -2.5748    1.4208 H   0  0  0  0  0  0  0  0  0  0  0  0
    3.9794   -2.1213    1.3329 H   0  0  0  0  0  0  0  0  0  0  0  0
    3.6505    0.9151    0.9480 H   0  0  0  0  0  0  0  0  0  0  0  0
    4.7722    0.0720    2.0075 H   0  0  0  0  0  0  0  0  0  0  0  0
    3.7564    1.3324    2.6456 H   0  0  0  0  0  0  0  0  0  0  0  0
    2.4882   -1.2514    6.7544 H   0  0  0  0  0  0  0  0  0  0  0  0
    3.4384   -2.2135    5.6331 H   0  0  0  0  0  0  0  0  0  0  0  0
    1.6897   -2.3838    5.6256 H   0  0  0  0  0  0  0  0  0  0  0  0
  1  2  1  0
  1 28  1  0
  1 29  1  0
  1 30  1  0
  2 26  1  0
  2  3  1  0
  3  4  2  0
  3  5  1  0
  5 13  1  0
  5  6  1  0
  5 31  1  6
  6  7  1  0
  6 32  1  0
  6 33  1  0
  7  9  1  0
  7  8  1  0
  7 34  1  1
  8  9  1  0
  9 10  1  0
  9 35  1  1
 10 16  1  0
 10 11  1  0
 10 36  1  1
 11 12  1  0
 12 19  1  0
 12 13  1  0
 12 37  1  6
 13 14  1  6
 13 15  1  0
 14 38  1  0
 14 39  1  0
 14 40  1  0
 15 16  1  0
 15 41  1  0
 15 42  1  0
 16 17  1  1
 16 18  1  0
 17 43  1  0
 17 44  1  0
 17 45  1  0
 18 26  1  0
 18 19  1  0
 18 46  1  6
 19 21  1  0
 19 20  1  6
 20 21  1  0
 20 47  1  0
 20 48  1  0
 21 22  1  0
 21 49  1  6
 22 23  1  0
 22 24  1  0
 22 25  1  0
 23 50  1  0
 23 51  1  0
 23 52  1  0
 24 53  1  0
 24 54  1  0
 24 55  1  0
 25 26  1  0
 26 27  1  1
 27 56  1  0
 27 57  1  0
 27 58  1  0
M  END
>  <i_m_ct_stereo_status>  (239) 
1

>  <s_m_source_file>  (239) 
/var/tmp/pbs.5076255.sched01/tmpbzpkhbzu/844yn2io63.sdf

>  <i_m_source_file_index>  (239) 
21

>  <i_lp_mmshare_version>  (239) 
48012

>  <i_f3d_flags>  (239) 
0

>  <s_epik_input>  (239) 
W0NAXTEyM1tDQEhdNFtDQF01KFtDSDNdKVtDQEBIXTZDKD1PKU4oW0NIM10pW0NAXShbQ0gzXSkoT0MoW0NIM10pKFtDSDNdKVtDQEBIXTNbQ0gyXTIpW0NASF0xW0NAQF0oW0NIMl01KShbQ0gzXSlbQ0BASF0oTzQpW0NAQEhdN1tDQEBIXShPNylbQ0gyXTY=

>  <s_epik_cmdline>  (239) 
J2VwaWtfcHl0aG9uJywgJy1waHQnLCAnMi4wJywgJy1waCcsICc3LjAnLCAnLXRuJywgJzgnLCAnLW1hJywgJzIwMCcsICctaW1hZScsICc8aW5maWxlLm1hZT4nLCAnLW9tYWUnLCAnPG91dGZpbGUubWFlPic=

>  <r_lp_tautomer_probability>  (239) 
1

>  <r_epik_Ionization_Penalty>  (239) 
7.87856e-10

>  <r_epik_Ionization_Penalty_Charging>  (239) 
0

>  <r_epik_Ionization_Penalty_Neutral>  (239) 
7.87856e-10

>  <r_epik_State_Penalty>  (239) 
-0

>  <r_epik_Charging_Adjusted_Penalty>  (239) 
0

>  <i_epik_Tot_Q>  (239) 
0

>  <i_epik_Tot_abs_Q>  (239) 
0

>  <s_lp_Force_Field>  (239) 
OPLS3e

>  <r_lp_Energy>  (239) 
481.523

>  <b_lp_Chiralities_Consistent>  (239) 
1

>  <s_lp_Variant>  (239) 
75:0-1

>  <s_i_glide_gridfile>  (239) 
pfpi4k_grid

>  <i_i_glide_lignum>  (239) 
21

>  <i_i_glide_rotatable_bonds>  (239) 
0

>  <r_i_docking_score>  (239) 
-1.83194

>  <r_i_glide_ligand_efficiency>  (239) 
-0.0678497

>  <r_i_glide_ligand_efficiency_sa>  (239) 
-0.203549

>  <r_i_glide_ligand_efficiency_ln>  (239) 
-0.426446

>  <r_i_glide_gscore>  (239) 
-1.83194

>  <r_i_glide_lipo>  (239) 
-0.0625104

>  <r_i_glide_hbond>  (239) 
0

>  <r_i_glide_metal>  (239) 
-0

>  <r_i_glide_rewards>  (239) 
-0.863821

>  <r_i_glide_evdw>  (239) 
-16.0317

>  <r_i_glide_ecoul>  (239) 
-0.693491

>  <r_i_glide_erotb>  (239) 
0

>  <r_i_glide_esite>  (239) 
0

>  <r_i_glide_emodel>  (239) 
-18.3235

>  <r_i_glide_energy>  (239) 
-16.7252

>  <r_i_glide_einternal>  (239) 
0

>  <r_i_glide_intrahb_reward>  (239) 
-0

>  <i_i_glide_confnum>  (239) 
2

>  <i_i_glide_posenum>  (239) 
24

>  <r_i_glide_eff_state_penalty>  (239) 
0

>  <ligand_id>  (239) 
75

>  <original_smiles>  (239) 
CN1C(=O)C2CC3OC3C3OC4C2(C)CC3(C)C2C43CC3C(C)(C)OC21C

>  <smiles>  (239) 
[H]C([H])([H])N1C(=O)C2([H])C([H])([H])C3([H])OC3([H])C3([H])OC4([H])C2(C([H])([H])[H])C([H])([H])C3(C([H])([H])[H])C2([H])C1(C([H])([H])[H])OC(C([H])([H])[H])(C([H])([H])[H])C1([H])C([H])([H])C412

$$$$
76:0:0
     RDKit          3D

 53 58  0  0  1  0  0  0  0  0999 V2000
    5.3713   -0.3011    3.4389 C   0  0  0  0  0  0  0  0  0  0  0  0
    5.4076   -1.4713    2.6556 O   0  0  0  0  0  0  0  0  0  0  0  0
    4.6668   -1.5545    1.5307 C   0  0  0  0  0  0  0  0  0  0  0  0
    3.9761   -0.6595    1.0749 O   0  0  0  0  0  0  0  0  0  0  0  0
    4.8541   -2.8236    0.9743 N   0  0  0  0  0  0  0  0  0  0  0  0
    4.1542   -3.3225   -0.2219 C   0  0  1  0  0  0  0  0  0  0  0  0
    5.1413   -4.3001   -0.8534 C   0  0  0  0  0  0  0  0  0  0  0  0
    5.6941   -4.9255    0.3997 C   0  0  2  0  0  0  0  0  0  0  0  0
    4.7027   -5.6515    1.3289 C   0  0  1  0  0  0  0  0  0  0  0  0
    5.2552   -4.8296    2.4919 C   0  0  0  0  0  0  0  0  0  0  0  0
    5.7981   -3.8440    1.4572 C   0  0  2  0  0  0  0  0  0  0  0  0
    3.2633   -5.3422    1.0726 N   0  0  0  0  0  0  0  0  0  0  0  0
    2.2262   -6.0996    1.5143 C   0  0  0  0  0  0  0  0  0  0  0  0
    1.0806   -5.9071    1.0904 O   0  0  0  0  0  0  0  0  0  0  0  0
    2.4434   -7.2398    2.5420 C   0  0  2  0  0  0  0  0  0  0  0  0
    1.6732   -8.5128    2.0882 C   0  0  1  0  0  0  0  0  0  0  0  0
    2.0382   -9.6635    3.0599 C   0  0  0  0  0  0  0  0  0  0  0  0
    1.5676   -9.2870    4.4836 C   0  0  2  0  0  0  0  0  0  0  0  0
    0.0438   -9.0544    4.4830 C   0  0  0  0  0  0  0  0  0  0  0  0
   -0.3122   -7.8948    3.5223 C   0  0  2  0  0  0  0  0  0  0  0  0
    0.1192   -8.3350    2.1027 C   0  0  0  0  0  0  0  0  0  0  0  0
    0.4071   -6.6044    3.9986 C   0  0  0  0  0  0  0  0  0  0  0  0
    1.9426   -6.8481    3.9660 C   0  0  1  0  0  0  0  0  0  0  0  0
    2.2864   -7.9994    4.9395 C   0  0  0  0  0  0  0  0  0  0  0  0
    2.9417   -4.1366    0.2416 C   0  0  0  0  0  0  0  0  0  0  0  0
    6.0141   -0.4400    4.3057 H   0  0  0  0  0  0  0  0  0  0  0  0
    4.3585   -0.0970    3.7821 H   0  0  0  0  0  0  0  0  0  0  0  0
    5.7480    0.5444    2.8703 H   0  0  0  0  0  0  0  0  0  0  0  0
    3.8621   -2.5286   -0.9024 H   0  0  0  0  0  0  0  0  0  0  0  0
    4.6595   -5.0321   -1.5112 H   0  0  0  0  0  0  0  0  0  0  0  0
    5.9179   -3.7850   -1.4360 H   0  0  0  0  0  0  0  0  0  0  0  0
    6.6082   -5.5005    0.2767 H   0  0  0  0  0  0  0  0  0  0  0  0
    4.9320   -6.7149    1.3734 H   0  0  0  0  0  0  0  0  0  0  0  0
    4.5035   -4.4166    3.1574 H   0  0  0  0  0  0  0  0  0  0  0  0
    6.0529   -5.3516    3.0056 H   0  0  0  0  0  0  0  0  0  0  0  0
    6.8250   -3.5185    1.6117 H   0  0  0  0  0  0  0  0  0  0  0  0
    3.5112   -7.4778    2.6126 H   0  0  0  0  0  0  0  0  0  0  0  0
    2.0052   -8.7929    1.0902 H   0  0  0  0  0  0  0  0  0  0  0  0
    1.5686  -10.5871    2.7335 H   0  0  0  0  0  0  0  0  0  0  0  0
    3.1141   -9.8577    3.0502 H   0  0  0  0  0  0  0  0  0  0  0  0
    1.8021  -10.1023    5.1716 H   0  0  0  0  0  0  0  0  0  0  0  0
   -0.4663   -9.9510    4.1392 H   0  0  0  0  0  0  0  0  0  0  0  0
   -0.3160   -8.8375    5.4885 H   0  0  0  0  0  0  0  0  0  0  0  0
   -1.3905   -7.7319    3.5276 H   0  0  0  0  0  0  0  0  0  0  0  0
   -0.2514   -7.6327    1.3492 H   0  0  0  0  0  0  0  0  0  0  0  0
   -0.3492   -9.2980    1.8645 H   0  0  0  0  0  0  0  0  0  0  0  0
    0.1453   -5.7550    3.3611 H   0  0  0  0  0  0  0  0  0  0  0  0
    0.0972   -6.3476    5.0177 H   0  0  0  0  0  0  0  0  0  0  0  0
    2.4617   -5.9491    4.2999 H   0  0  0  0  0  0  0  0  0  0  0  0
    1.9842   -7.7458    5.9539 H   0  0  0  0  0  0  0  0  0  0  0  0
    3.3642   -8.1669    4.9789 H   0  0  0  0  0  0  0  0  0  0  0  0
    2.2810   -3.4661    0.7893 H   0  0  0  0  0  0  0  0  0  0  0  0
    2.4052   -4.4657   -0.6469 H   0  0  0  0  0  0  0  0  0  0  0  0
  1  2  1  0
  1 26  1  0
  1 27  1  0
  1 28  1  0
  2  3  1  0
  3  4  2  0
  3  5  1  0
  5 11  1  0
  5  6  1  0
  6 25  1  0
  6  7  1  0
  6 29  1  6
  7  8  1  0
  7 30  1  0
  7 31  1  0
  8 11  1  0
  8  9  1  0
  8 32  1  6
  9 10  1  0
  9 12  1  0
  9 33  1  1
 10 11  1  0
 10 34  1  0
 10 35  1  0
 11 36  1  1
 12 13  1  0
 12 25  1  0
 13 14  2  0
 13 15  1  0
 15 23  1  0
 15 16  1  0
 15 37  1  1
 16 21  1  0
 16 17  1  0
 16 38  1  6
 17 18  1  0
 17 39  1  0
 17 40  1  0
 18 24  1  0
 18 19  1  0
 18 41  1  1
 19 20  1  0
 19 42  1  0
 19 43  1  0
 20 21  1  0
 20 22  1  0
 20 44  1  6
 21 45  1  0
 21 46  1  0
 22 23  1  0
 22 47  1  0
 22 48  1  0
 23 24  1  0
 23 49  1  1
 24 50  1  0
 24 51  1  0
 25 52  1  0
 25 53  1  0
M  END
>  <i_m_ct_stereo_status>  (240) 
1

>  <s_m_source_file>  (240) 
/var/tmp/pbs.5076255.sched01/tmpbzpkhbzu/844yn2io63.sdf

>  <i_m_source_file_index>  (240) 
22

>  <i_lp_mmshare_version>  (240) 
48012

>  <i_f3d_flags>  (240) 
0

>  <s_epik_input>  (240) 
W0NIM11PQyg9TylOKFtDQEBIXTEyKVtDQEBIXTNbQ0BIXShbQ0gyXTEpW0NAQEhdKFtDSDJdMylOKFtDSDJdMilDKD1PKVtDQEhdKFtDQEBIXTQ1KVtDQEhdNltDSDJdW0NAQEhdKFtDSDJdNSlbQ0gyXVtDQEBIXShbQ0gyXTQpW0NIMl02

>  <s_epik_cmdline>  (240) 
J2VwaWtfcHl0aG9uJywgJy1waHQnLCAnMi4wJywgJy1waCcsICc3LjAnLCAnLXRuJywgJzgnLCAnLW1hJywgJzIwMCcsICctaW1hZScsICc8aW5maWxlLm1hZT4nLCAnLW9tYWUnLCAnPG91dGZpbGUubWFlPic=

>  <r_lp_tautomer_probability>  (240) 
1

>  <r_epik_Ionization_Penalty>  (240) 
4.29603e-06

>  <r_epik_Ionization_Penalty_Charging>  (240) 
0

>  <r_epik_Ionization_Penalty_Neutral>  (240) 
4.29603e-06

>  <r_epik_State_Penalty>  (240) 
-0

>  <r_epik_Charging_Adjusted_Penalty>  (240) 
0

>  <i_epik_Tot_Q>  (240) 
0

>  <i_epik_Tot_abs_Q>  (240) 
0

>  <s_epik_Chemistry_Notes>  (240) 
This compound has an ester and may undergo hydrolysis at high or low pH.

>  <s_lp_Force_Field>  (240) 
OPLS3e

>  <r_lp_Energy>  (240) 
52.9614

>  <b_lp_Chiralities_Consistent>  (240) 
1

>  <s_lp_Variant>  (240) 
76:0-1

>  <s_i_glide_gridfile>  (240) 
pfpi4k_grid

>  <i_i_glide_lignum>  (240) 
22

>  <i_i_glide_rotatable_bonds>  (240) 
4

>  <r_i_docking_score>  (240) 
-3.15472

>  <r_i_glide_ligand_efficiency>  (240) 
-0.126189

>  <r_i_glide_ligand_efficiency_sa>  (240) 
-0.368978

>  <r_i_glide_ligand_efficiency_ln>  (240) 
-0.747763

>  <r_i_glide_gscore>  (240) 
-3.15472

>  <r_i_glide_lipo>  (240) 
-0.466362

>  <r_i_glide_hbond>  (240) 
-0.16

>  <r_i_glide_metal>  (240) 
-0

>  <r_i_glide_rewards>  (240) 
-1.14684

>  <r_i_glide_evdw>  (240) 
-26.0196

>  <r_i_glide_ecoul>  (240) 
-3.5513

>  <r_i_glide_erotb>  (240) 
0.480112

>  <r_i_glide_esite>  (240) 
-0.0279554

>  <r_i_glide_emodel>  (240) 
-33.3598

>  <r_i_glide_energy>  (240) 
-29.5709

>  <r_i_glide_einternal>  (240) 
4.44328

>  <r_i_glide_intrahb_reward>  (240) 
-0

>  <i_i_glide_confnum>  (240) 
1

>  <i_i_glide_posenum>  (240) 
25

>  <r_i_glide_eff_state_penalty>  (240) 
0

>  <ligand_id>  (240) 
76

>  <original_smiles>  (240) 
COC(=O)N1C2CC3C(CC31)N(C(=O)C1C3CC4CC(C3)CC1C4)C2

>  <smiles>  (240) 
[H]C([H])([H])OC(=O)N1C2([H])C([H])([H])N(C(=O)C3([H])C4([H])C([H])([H])C5([H])C([H])([H])C([H])(C4([H])[H])C([H])([H])C3([H])C5([H])[H])C3([H])C([H])([H])C1([H])C3([H])C2([H])[H]

$$$$
76:0:1
     RDKit          3D

 53 58  0  0  1  0  0  0  0  0999 V2000
    3.3131   -0.2540    1.6236 C   0  0  0  0  0  0  0  0  0  0  0  0
    3.6078   -1.5779    1.2223 O   0  0  0  0  0  0  0  0  0  0  0  0
    4.3882   -2.3440    1.9993 C   0  0  0  0  0  0  0  0  0  0  0  0
    4.8740   -1.9814    3.0710 O   0  0  0  0  0  0  0  0  0  0  0  0
    4.5455   -3.6046    1.4151 N   0  0  0  0  0  0  0  0  0  0  0  0
    4.0230   -4.0662    0.1240 C   0  0  1  0  0  0  0  0  0  0  0  0
    5.0227   -5.1046   -0.3439 C   0  0  0  0  0  0  0  0  0  0  0  0
    5.3125   -5.7705    0.9535 C   0  0  2  0  0  0  0  0  0  0  0  0
    4.1232   -6.4109    1.6889 C   0  0  1  0  0  0  0  0  0  0  0  0
    4.5662   -5.6096    2.9441 C   0  0  0  0  0  0  0  0  0  0  0  0
    5.3424   -4.6835    2.0225 C   0  0  2  0  0  0  0  0  0  0  0  0
    2.7697   -5.9962    1.2096 N   0  0  0  0  0  0  0  0  0  0  0  0
    1.6125   -6.6693    1.4429 C   0  0  0  0  0  0  0  0  0  0  0  0
    0.5642   -6.2854    0.9249 O   0  0  0  0  0  0  0  0  0  0  0  0
    1.6141   -7.9299    2.3593 C   0  0  2  0  0  0  0  0  0  0  0  0
    0.1706   -8.4979    2.5833 C   0  0  1  0  0  0  0  0  0  0  0  0
    0.2610   -9.8373    3.3490 C   0  0  0  0  0  0  0  0  0  0  0  0
    0.8749   -9.5986    4.7461 C   0  0  2  0  0  0  0  0  0  0  0  0
    0.0276   -8.5761    5.5339 C   0  0  0  0  0  0  0  0  0  0  0  0
   -0.0492   -7.2405    4.7610 C   0  0  2  0  0  0  0  0  0  0  0  0
   -0.7097   -7.5081    3.3949 C   0  0  0  0  0  0  0  0  0  0  0  0
    1.3774   -6.6773    4.5590 C   0  0  0  0  0  0  0  0  0  0  0  0
    2.2272   -7.7128    3.7854 C   0  0  1  0  0  0  0  0  0  0  0  0
    2.2925   -9.0392    4.5620 C   0  0  0  0  0  0  0  0  0  0  0  0
    2.6856   -4.7700    0.3812 C   0  0  0  0  0  0  0  0  0  0  0  0
    2.6788    0.2276    0.8777 H   0  0  0  0  0  0  0  0  0  0  0  0
    4.2236    0.3393    1.7383 H   0  0  0  0  0  0  0  0  0  0  0  0
    2.7803   -0.2621    2.5756 H   0  0  0  0  0  0  0  0  0  0  0  0
    3.9002   -3.2677   -0.6002 H   0  0  0  0  0  0  0  0  0  0  0  0
    4.6338   -5.8021   -1.0867 H   0  0  0  0  0  0  0  0  0  0  0  0
    5.9148   -4.6328   -0.7587 H   0  0  0  0  0  0  0  0  0  0  0  0
    6.1995   -6.4082    0.9807 H   0  0  0  0  0  0  0  0  0  0  0  0
    4.2726   -7.4870    1.7798 H   0  0  0  0  0  0  0  0  0  0  0  0
    3.7642   -5.1360    3.5135 H   0  0  0  0  0  0  0  0  0  0  0  0
    5.2436   -6.2034    3.5720 H   0  0  0  0  0  0  0  0  0  0  0  0
    6.3300   -4.3928    2.3742 H   0  0  0  0  0  0  0  0  0  0  0  0
    2.1961   -8.6877    1.8373 H   0  0  0  0  0  0  0  0  0  0  0  0
   -0.3108   -8.6735    1.6241 H   0  0  0  0  0  0  0  0  0  0  0  0
   -0.7326  -10.2604    3.4506 H   0  0  0  0  0  0  0  0  0  0  0  0
    0.8509  -10.5681    2.7903 H   0  0  0  0  0  0  0  0  0  0  0  0
    0.9301  -10.5413    5.3026 H   0  0  0  0  0  0  0  0  0  0  0  0
   -0.9794   -8.9744    5.6761 H   0  0  0  0  0  0  0  0  0  0  0  0
    0.4541   -8.4091    6.5244 H   0  0  0  0  0  0  0  0  0  0  0  0
   -0.6458   -6.5136    5.3149 H   0  0  0  0  0  0  0  0  0  0  0  0
   -0.8447   -6.5659    2.8677 H   0  0  0  0  0  0  0  0  0  0  0  0
   -1.7042   -7.9380    3.5324 H   0  0  0  0  0  0  0  0  0  0  0  0
    1.3362   -5.7341    4.0124 H   0  0  0  0  0  0  0  0  0  0  0  0
    1.8466   -6.4481    5.5106 H   0  0  0  0  0  0  0  0  0  0  0  0
    3.2614   -7.4202    3.7806 H   0  0  0  0  0  0  0  0  0  0  0  0
    2.7654   -8.8752    5.5275 H   0  0  0  0  0  0  0  0  0  0  0  0
    2.9211   -9.7502    4.0283 H   0  0  0  0  0  0  0  0  0  0  0  0
    1.9949   -4.0583    0.8517 H   0  0  0  0  0  0  0  0  0  0  0  0
    2.2426   -5.0413   -0.5888 H   0  0  0  0  0  0  0  0  0  0  0  0
  1  2  1  0
  1 26  1  0
  1 27  1  0
  1 28  1  0
  2  3  1  0
  3  4  2  0
  3  5  1  0
  5 11  1  0
  5  6  1  0
  6 25  1  0
  6  7  1  0
  6 29  1  6
  7  8  1  0
  7 30  1  0
  7 31  1  0
  8 11  1  0
  8  9  1  0
  8 32  1  6
  9 10  1  0
  9 12  1  0
  9 33  1  1
 10 11  1  0
 10 34  1  0
 10 35  1  0
 11 36  1  1
 12 13  1  0
 12 25  1  0
 13 14  2  0
 13 15  1  0
 15 23  1  0
 15 16  1  0
 15 37  1  6
 16 21  1  0
 16 17  1  0
 16 38  1  6
 17 18  1  0
 17 39  1  0
 17 40  1  0
 18 24  1  0
 18 19  1  0
 18 41  1  1
 19 20  1  0
 19 42  1  0
 19 43  1  0
 20 21  1  0
 20 22  1  0
 20 44  1  1
 21 45  1  0
 21 46  1  0
 22 23  1  0
 22 47  1  0
 22 48  1  0
 23 24  1  0
 23 49  1  6
 24 50  1  0
 24 51  1  0
 25 52  1  0
 25 53  1  0
M  END
>  <i_m_ct_stereo_status>  (241) 
1

>  <s_m_source_file>  (241) 
/var/tmp/pbs.5076255.sched01/tmpbzpkhbzu/844yn2io63.sdf

>  <i_m_source_file_index>  (241) 
22

>  <i_lp_mmshare_version>  (241) 
48012

>  <i_f3d_flags>  (241) 
0

>  <s_epik_input>  (241) 
W0NIM11PQyg9TylOKFtDQEBIXTEyKVtDQEBIXTNbQ0BIXShbQ0gyXTEpW0NAQEhdKFtDSDJdMylOKFtDSDJdMilDKD1PKVtDQEhdKFtDQEBIXTQ1KVtDQEhdNltDSDJdW0NAQEhdKFtDSDJdNSlbQ0gyXVtDQEBIXShbQ0gyXTQpW0NIMl02

>  <s_epik_cmdline>  (241) 
J2VwaWtfcHl0aG9uJywgJy1waHQnLCAnMi4wJywgJy1waCcsICc3LjAnLCAnLXRuJywgJzgnLCAnLW1hJywgJzIwMCcsICctaW1hZScsICc8aW5maWxlLm1hZT4nLCAnLW9tYWUnLCAnPG91dGZpbGUubWFlPic=

>  <r_lp_tautomer_probability>  (241) 
1

>  <r_epik_Ionization_Penalty>  (241) 
4.29603e-06

>  <r_epik_Ionization_Penalty_Charging>  (241) 
0

>  <r_epik_Ionization_Penalty_Neutral>  (241) 
4.29603e-06

>  <r_epik_State_Penalty>  (241) 
-0

>  <r_epik_Charging_Adjusted_Penalty>  (241) 
0

>  <i_epik_Tot_Q>  (241) 
0

>  <i_epik_Tot_abs_Q>  (241) 
0

>  <s_epik_Chemistry_Notes>  (241) 
This compound has an ester and may undergo hydrolysis at high or low pH.

>  <s_lp_Force_Field>  (241) 
OPLS3e

>  <r_lp_Energy>  (241) 
52.9614

>  <b_lp_Chiralities_Consistent>  (241) 
1

>  <s_lp_Variant>  (241) 
76:0-1

>  <s_i_glide_gridfile>  (241) 
pfpi4k_grid

>  <i_i_glide_lignum>  (241) 
22

>  <i_i_glide_rotatable_bonds>  (241) 
4

>  <r_i_docking_score>  (241) 
-3.10736

>  <r_i_glide_ligand_efficiency>  (241) 
-0.124295

>  <r_i_glide_ligand_efficiency_sa>  (241) 
-0.36344

>  <r_i_glide_ligand_efficiency_ln>  (241) 
-0.736538

>  <r_i_glide_gscore>  (241) 
-3.10736

>  <r_i_glide_lipo>  (241) 
-0.165131

>  <r_i_glide_hbond>  (241) 
-0.16

>  <r_i_glide_metal>  (241) 
-0

>  <r_i_glide_rewards>  (241) 
-1.11043

>  <r_i_glide_evdw>  (241) 
-27.6372

>  <r_i_glide_ecoul>  (241) 
-4.77297

>  <r_i_glide_erotb>  (241) 
0.480112

>  <r_i_glide_esite>  (241) 
-0.0541142

>  <r_i_glide_emodel>  (241) 
-38.4838

>  <r_i_glide_energy>  (241) 
-32.4102

>  <r_i_glide_einternal>  (241) 
0.338615

>  <r_i_glide_intrahb_reward>  (241) 
-0

>  <i_i_glide_confnum>  (241) 
1

>  <i_i_glide_posenum>  (241) 
26

>  <r_i_glide_eff_state_penalty>  (241) 
0

>  <ligand_id>  (241) 
76

>  <original_smiles>  (241) 
COC(=O)N1C2CC3C(CC31)N(C(=O)C1C3CC4CC(C3)CC1C4)C2

>  <smiles>  (241) 
[H]C([H])([H])OC(=O)N1C2([H])C([H])([H])N(C(=O)C3([H])C4([H])C([H])([H])C5([H])C([H])([H])C([H])(C4([H])[H])C([H])([H])C3([H])C5([H])[H])C3([H])C([H])([H])C1([H])C3([H])C2([H])[H]

$$$$
76:0:2
     RDKit          3D

 53 58  0  0  1  0  0  0  0  0999 V2000
    4.9905   -1.2027    4.0310 C   0  0  0  0  0  0  0  0  0  0  0  0
    4.9960   -2.3749    3.2441 O   0  0  0  0  0  0  0  0  0  0  0  0
    4.4023   -2.3912    2.0361 C   0  0  0  0  0  0  0  0  0  0  0  0
    3.8069   -1.4344    1.5370 O   0  0  0  0  0  0  0  0  0  0  0  0
    4.5604   -3.6477    1.4574 N   0  0  0  0  0  0  0  0  0  0  0  0
    4.0329   -4.0679    0.1521 C   0  0  1  0  0  0  0  0  0  0  0  0
    5.0227   -5.1107   -0.3402 C   0  0  0  0  0  0  0  0  0  0  0  0
    5.3058   -5.8112    0.9435 C   0  0  2  0  0  0  0  0  0  0  0  0
    4.1020   -6.4456    1.6646 C   0  0  1  0  0  0  0  0  0  0  0  0
    4.5531   -5.6838    2.9364 C   0  0  0  0  0  0  0  0  0  0  0  0
    5.3410   -4.7499    2.0320 C   0  0  2  0  0  0  0  0  0  0  0  0
    2.7583   -6.0156    1.1934 N   0  0  0  0  0  0  0  0  0  0  0  0
    1.5940   -6.6765    1.4020 C   0  0  0  0  0  0  0  0  0  0  0  0
    0.5541   -6.2783    0.8752 O   0  0  0  0  0  0  0  0  0  0  0  0
    1.5783   -7.9495    2.3043 C   0  0  2  0  0  0  0  0  0  0  0  0
    0.1295   -8.4977    2.5184 C   0  0  1  0  0  0  0  0  0  0  0  0
    0.2047   -9.8438    3.2755 C   0  0  0  0  0  0  0  0  0  0  0  0
    0.8166   -9.6247    4.6792 C   0  0  2  0  0  0  0  0  0  0  0  0
   -0.0204   -8.5965    5.4703 C   0  0  0  0  0  0  0  0  0  0  0  0
   -0.0839   -7.2540    4.7080 C   0  0  2  0  0  0  0  0  0  0  0  0
   -0.7433   -7.5055    3.3377 C   0  0  0  0  0  0  0  0  0  0  0  0
    1.3476   -6.7052    4.5143 C   0  0  0  0  0  0  0  0  0  0  0  0
    2.1886   -7.7474    3.7350 C   0  0  1  0  0  0  0  0  0  0  0  0
    2.2379   -9.0802    4.5040 C   0  0  0  0  0  0  0  0  0  0  0  0
    2.6882   -4.7671    0.3834 C   0  0  0  0  0  0  0  0  0  0  0  0
    5.5237   -1.3992    4.9624 H   0  0  0  0  0  0  0  0  0  0  0  0
    3.9690   -0.9131    4.2779 H   0  0  0  0  0  0  0  0  0  0  0  0
    5.4896   -0.3796    3.5169 H   0  0  0  0  0  0  0  0  0  0  0  0
    3.9214   -3.2376   -0.5385 H   0  0  0  0  0  0  0  0  0  0  0  0
    4.6260   -5.7843   -1.0994 H   0  0  0  0  0  0  0  0  0  0  0  0
    5.9234   -4.6410   -0.7432 H   0  0  0  0  0  0  0  0  0  0  0  0
    6.1799   -6.4597    0.9563 H   0  0  0  0  0  0  0  0  0  0  0  0
    4.2415   -7.5313    1.7343 H   0  0  0  0  0  0  0  0  0  0  0  0
    3.7584   -5.2031    3.5071 H   0  0  0  0  0  0  0  0  0  0  0  0
    5.2193   -6.2923    3.5573 H   0  0  0  0  0  0  0  0  0  0  0  0
    6.3385   -4.4928    2.3886 H   0  0  0  0  0  0  0  0  0  0  0  0
    2.1566   -8.7068    1.7782 H   0  0  0  0  0  0  0  0  0  0  0  0
   -0.3493   -8.6521    1.5538 H   0  0  0  0  0  0  0  0  0  0  0  0
   -0.7965  -10.2566    3.3709 H   0  0  0  0  0  0  0  0  0  0  0  0
    0.7882  -10.5809    2.7155 H   0  0  0  0  0  0  0  0  0  0  0  0
    0.8597  -10.5710    5.2292 H   0  0  0  0  0  0  0  0  0  0  0  0
   -1.0333   -8.9868    5.6039 H   0  0  0  0  0  0  0  0  0  0  0  0
    0.4018   -8.4405    6.4648 H   0  0  0  0  0  0  0  0  0  0  0  0
   -0.6742   -6.5240    5.2635 H   0  0  0  0  0  0  0  0  0  0  0  0
   -0.8676   -6.5573    2.8225 H   0  0  0  0  0  0  0  0  0  0  0  0
   -1.7456   -7.9246    3.4653 H   0  0  0  0  0  0  0  0  0  0  0  0
    1.3199   -5.7589    3.9716 H   0  0  0  0  0  0  0  0  0  0  0  0
    1.8202   -6.4849    5.4657 H   0  0  0  0  0  0  0  0  0  0  0  0
    3.2236   -7.4755    3.7438 H   0  0  0  0  0  0  0  0  0  0  0  0
    2.7125   -8.9236    5.4700 H   0  0  0  0  0  0  0  0  0  0  0  0
    2.8634   -9.7903    3.9663 H   0  0  0  0  0  0  0  0  0  0  0  0
    1.9980   -4.0605    0.8594 H   0  0  0  0  0  0  0  0  0  0  0  0
    2.2527   -5.0204   -0.5940 H   0  0  0  0  0  0  0  0  0  0  0  0
  1  2  1  0
  1 26  1  0
  1 27  1  0
  1 28  1  0
  2  3  1  0
  3  4  2  0
  3  5  1  0
  5 11  1  0
  5  6  1  0
  6 25  1  0
  6  7  1  0
  6 29  1  6
  7  8  1  0
  7 30  1  0
  7 31  1  0
  8 11  1  0
  8  9  1  0
  8 32  1  6
  9 10  1  0
  9 12  1  0
  9 33  1  1
 10 11  1  0
 10 34  1  0
 10 35  1  0
 11 36  1  1
 12 13  1  0
 12 25  1  0
 13 14  2  0
 13 15  1  0
 15 23  1  0
 15 16  1  0
 15 37  1  6
 16 21  1  0
 16 17  1  0
 16 38  1  6
 17 18  1  0
 17 39  1  0
 17 40  1  0
 18 24  1  0
 18 19  1  0
 18 41  1  1
 19 20  1  0
 19 42  1  0
 19 43  1  0
 20 21  1  0
 20 22  1  0
 20 44  1  1
 21 45  1  0
 21 46  1  0
 22 23  1  0
 22 47  1  0
 22 48  1  0
 23 24  1  0
 23 49  1  6
 24 50  1  0
 24 51  1  0
 25 52  1  0
 25 53  1  0
M  END
>  <i_m_ct_stereo_status>  (242) 
1

>  <s_m_source_file>  (242) 
/var/tmp/pbs.5076255.sched01/tmpbzpkhbzu/844yn2io63.sdf

>  <i_m_source_file_index>  (242) 
22

>  <i_lp_mmshare_version>  (242) 
48012

>  <i_f3d_flags>  (242) 
0

>  <s_epik_input>  (242) 
W0NIM11PQyg9TylOKFtDQEBIXTEyKVtDQEBIXTNbQ0BIXShbQ0gyXTEpW0NAQEhdKFtDSDJdMylOKFtDSDJdMilDKD1PKVtDQEhdKFtDQEBIXTQ1KVtDQEhdNltDSDJdW0NAQEhdKFtDSDJdNSlbQ0gyXVtDQEBIXShbQ0gyXTQpW0NIMl02

>  <s_epik_cmdline>  (242) 
J2VwaWtfcHl0aG9uJywgJy1waHQnLCAnMi4wJywgJy1waCcsICc3LjAnLCAnLXRuJywgJzgnLCAnLW1hJywgJzIwMCcsICctaW1hZScsICc8aW5maWxlLm1hZT4nLCAnLW9tYWUnLCAnPG91dGZpbGUubWFlPic=

>  <r_lp_tautomer_probability>  (242) 
1

>  <r_epik_Ionization_Penalty>  (242) 
4.29603e-06

>  <r_epik_Ionization_Penalty_Charging>  (242) 
0

>  <r_epik_Ionization_Penalty_Neutral>  (242) 
4.29603e-06

>  <r_epik_State_Penalty>  (242) 
-0

>  <r_epik_Charging_Adjusted_Penalty>  (242) 
0

>  <i_epik_Tot_Q>  (242) 
0

>  <i_epik_Tot_abs_Q>  (242) 
0

>  <s_epik_Chemistry_Notes>  (242) 
This compound has an ester and may undergo hydrolysis at high or low pH.

>  <s_lp_Force_Field>  (242) 
OPLS3e

>  <r_lp_Energy>  (242) 
52.9614

>  <b_lp_Chiralities_Consistent>  (242) 
1

>  <s_lp_Variant>  (242) 
76:0-1

>  <s_i_glide_gridfile>  (242) 
pfpi4k_grid

>  <i_i_glide_lignum>  (242) 
22

>  <i_i_glide_rotatable_bonds>  (242) 
4

>  <r_i_docking_score>  (242) 
-3.00689

>  <r_i_glide_ligand_efficiency>  (242) 
-0.120276

>  <r_i_glide_ligand_efficiency_sa>  (242) 
-0.351688

>  <r_i_glide_ligand_efficiency_ln>  (242) 
-0.712723

>  <r_i_glide_gscore>  (242) 
-3.00689

>  <r_i_glide_lipo>  (242) 
-0.234519

>  <r_i_glide_hbond>  (242) 
-0.16

>  <r_i_glide_metal>  (242) 
-0

>  <r_i_glide_rewards>  (242) 
-1.11233

>  <r_i_glide_evdw>  (242) 
-26.7921

>  <r_i_glide_ecoul>  (242) 
-3.89536

>  <r_i_glide_erotb>  (242) 
0.480112

>  <r_i_glide_esite>  (242) 
-0.0562443

>  <r_i_glide_emodel>  (242) 
-36.1796

>  <r_i_glide_energy>  (242) 
-30.6875

>  <r_i_glide_einternal>  (242) 
1.0063

>  <r_i_glide_intrahb_reward>  (242) 
-0

>  <i_i_glide_confnum>  (242) 
1

>  <i_i_glide_posenum>  (242) 
36

>  <r_i_glide_eff_state_penalty>  (242) 
0

>  <ligand_id>  (242) 
76

>  <original_smiles>  (242) 
COC(=O)N1C2CC3C(CC31)N(C(=O)C1C3CC4CC(C3)CC1C4)C2

>  <smiles>  (242) 
[H]C([H])([H])OC(=O)N1C2([H])C([H])([H])N(C(=O)C3([H])C4([H])C([H])([H])C5([H])C([H])([H])C([H])(C4([H])[H])C([H])([H])C3([H])C5([H])[H])C3([H])C([H])([H])C1([H])C3([H])C2([H])[H]

$$$$
77:0:0
     RDKit          3D

 55 60  0  0  1  0  0  0  0  0999 V2000
    2.5533    1.1426    2.7386 C   0  0  0  0  0  0  0  0  0  0  0  0
    3.4521    0.1685    2.0830 N   0  0  1  0  0  0  0  0  0  0  0  0
    4.5875   -0.2497    2.9399 C   0  0  0  0  0  0  0  0  0  0  0  0
    5.5211   -1.2122    2.1939 C   0  0  0  0  0  0  0  0  0  0  0  0
    4.8610   -2.3179    1.3109 C   0  0  1  0  0  0  0  0  0  0  0  0
    6.0281   -2.8930    0.4473 C   0  0  0  0  0  0  0  0  0  0  0  0
    5.6543   -3.8195   -0.7048 C   0  0  0  0  0  0  0  0  0  0  0  0
    4.4753   -3.3371   -1.4536 N   0  0  2  0  0  0  0  0  0  0  0  0
    4.8444   -2.4975   -2.6150 C   0  0  0  0  0  0  0  0  0  0  0  0
    3.6832   -1.8514   -3.3429 C   0  0  0  0  0  0  0  0  0  0  0  0
    3.9447   -0.9197   -4.4985 C   0  0  0  0  0  0  0  0  0  0  0  0
    3.4404   -0.3575   -3.2198 C   0  0  0  0  0  0  0  0  0  0  0  0
    3.3655   -2.8865   -0.5431 C   0  0  1  0  0  0  0  0  0  0  0  0
    2.9510   -4.2044    0.1750 C   0  0  0  0  0  0  0  0  0  0  0  0
    3.7097   -4.5823    1.4581 C   0  0  0  0  0  0  0  0  0  0  0  0
    3.2386   -5.6284    2.3033 C   0  0  0  0  0  0  0  0  0  0  0  0
    2.9231   -5.3352    3.6326 C   0  0  0  0  0  0  0  0  0  0  0  0
    2.8340   -3.9877    4.0416 C   0  0  0  0  0  0  0  0  0  0  0  0
    2.1492   -3.6716    5.1746 O   0  0  0  0  0  0  0  0  0  0  0  0
    3.2944   -2.9600    3.1926 C   0  0  0  0  0  0  0  0  0  0  0  0
    4.0722   -3.3978    2.0975 C   0  0  0  0  0  0  0  0  0  0  0  0
    2.2966   -1.9408    2.6043 C   0  0  0  0  0  0  0  0  0  0  0  0
    2.7872   -1.0145    1.4395 C   0  0  2  0  0  0  0  0  0  0  0  0
    3.8062   -1.7062    0.4212 C   0  0  1  0  0  0  0  0  0  0  0  0
    4.3651   -0.6857   -0.3943 O   0  0  0  0  0  0  0  0  0  0  0  0
    2.1652    0.7906    3.6926 H   0  0  0  0  0  0  0  0  0  0  0  0
    1.7244    1.4149    2.0838 H   0  0  0  0  0  0  0  0  0  0  0  0
    3.1221    2.0511    2.9343 H   0  0  0  0  0  0  0  0  0  0  0  0
    5.1569    0.6151    3.2609 H   0  0  0  0  0  0  0  0  0  0  0  0
    4.2629   -0.7057    3.8719 H   0  0  0  0  0  0  0  0  0  0  0  0
    6.1451   -0.5994    1.5448 H   0  0  0  0  0  0  0  0  0  0  0  0
    6.1946   -1.6727    2.9087 H   0  0  0  0  0  0  0  0  0  0  0  0
    6.5328   -2.0496   -0.0209 H   0  0  0  0  0  0  0  0  0  0  0  0
    6.7789   -3.3605    1.0751 H   0  0  0  0  0  0  0  0  0  0  0  0
    6.5028   -3.8915   -1.3767 H   0  0  0  0  0  0  0  0  0  0  0  0
    5.4976   -4.8305   -0.3300 H   0  0  0  0  0  0  0  0  0  0  0  0
    5.5581   -1.7288   -2.3235 H   0  0  0  0  0  0  0  0  0  0  0  0
    5.3632   -3.1295   -3.3370 H   0  0  0  0  0  0  0  0  0  0  0  0
    2.8249   -2.5141   -3.5106 H   0  0  0  0  0  0  0  0  0  0  0  0
    4.9773   -0.6615   -4.7195 H   0  0  0  0  0  0  0  0  0  0  0  0
    3.2414   -0.8605   -5.3251 H   0  0  0  0  0  0  0  0  0  0  0  0
    2.3984   -0.0638   -3.1307 H   0  0  0  0  0  0  0  0  0  0  0  0
    4.1636    0.3056   -2.7432 H   0  0  0  0  0  0  0  0  0  0  0  0
    2.5225   -2.5769   -1.1541 H   0  0  0  0  0  0  0  0  0  0  0  0
    1.9139   -4.0950    0.4667 H   0  0  0  0  0  0  0  0  0  0  0  0
    2.9747   -5.0431   -0.5296 H   0  0  0  0  0  0  0  0  0  0  0  0
    2.9807   -6.5955    1.8927 H   0  0  0  0  0  0  0  0  0  0  0  0
    2.5420   -6.1121    4.2827 H   0  0  0  0  0  0  0  0  0  0  0  0
    2.1273   -2.7454    5.3427 H   0  0  0  0  0  0  0  0  0  0  0  0
    1.4678   -2.5328    2.2265 H   0  0  0  0  0  0  0  0  0  0  0  0
    1.8756   -1.3502    3.4289 H   0  0  0  0  0  0  0  0  0  0  0  0
    1.9333   -0.6228    0.8928 H   0  0  0  0  0  0  0  0  0  0  0  0
    4.6327    0.0622    0.1053 H   0  0  0  0  0  0  0  0  0  0  0  0
    4.0906   -4.1663   -1.8802 H   0  0  0  0  0  0  0  0  0  0  0  0
    3.8210    0.7340    1.3344 H   0  0  0  0  0  0  0  0  0  0  0  0
  1  2  1  0
  1 26  1  0
  1 27  1  0
  1 28  1  0
  2 23  1  0
  2  3  1  0
  2 55  1  6
  3  4  1  0
  3 29  1  0
  3 30  1  0
  5  4  1  1
  4 31  1  0
  4 32  1  0
  5 21  1  0
  5 24  1  0
  5  6  1  0
  6  7  1  0
  6 33  1  0
  6 34  1  0
  7  8  1  0
  7 35  1  0
  7 36  1  0
  8  9  1  0
  8 13  1  0
  8 54  1  6
  9 10  1  0
  9 37  1  0
  9 38  1  0
 10 12  1  0
 10 11  1  0
 10 39  1  0
 11 12  1  0
 11 40  1  0
 11 41  1  0
 12 42  1  0
 12 43  1  0
 13 24  1  0
 13 14  1  0
 13 44  1  6
 14 15  1  0
 14 45  1  0
 14 46  1  0
 15 21  2  0
 15 16  1  0
 16 17  2  0
 16 47  1  0
 17 18  1  0
 17 48  1  0
 18 19  1  0
 18 20  2  0
 19 49  1  0
 20 21  1  0
 20 22  1  0
 22 23  1  0
 22 50  1  0
 22 51  1  0
 23 24  1  0
 23 52  1  6
 24 25  1  6
 25 53  1  0
M  CHG  2   2   1   8   1
M  END
>  <i_m_ct_stereo_status>  (243) 
1

>  <s_m_source_file>  (243) 
/var/tmp/pbs.5076255.sched01/tmpbzpkhbzu/844yn2io63.sdf

>  <i_m_source_file_index>  (243) 
23

>  <i_lp_mmshare_version>  (243) 
48012

>  <i_f3d_flags>  (243) 
0

>  <s_epik_input>  (243) 
W0NIMl0xW0NIMl1bQ0hdMVtDSDJdTihbQ0gyXVtDSDJdMilbQ0BASF0oW0NIMl0zKVtDQEBdNChbT0hdKVtDQEhdKE4oW0NIM10pW0NIMl1bQ0gyXTUpW0NIMl1jNmMoW09IXSlbY0hdW2NIXWMzYzZbQ0BAXTI0NQ==

>  <s_epik_cmdline>  (243) 
J2VwaWtfcHl0aG9uJywgJy1waHQnLCAnMi4wJywgJy1waCcsICc3LjAnLCAnLXRuJywgJzgnLCAnLW1hJywgJzIwMCcsICctaW1hZScsICc8aW5maWxlLm1hZT4nLCAnLW9tYWUnLCAnPG91dGZpbGUubWFlPic=

>  <r_lp_tautomer_probability>  (243) 
1

>  <r_epik_Ionization_Penalty>  (243) 
0.363979

>  <r_epik_Ionization_Penalty_Charging>  (243) 
0.340723

>  <r_epik_Ionization_Penalty_Neutral>  (243) 
0.0232556

>  <r_epik_State_Penalty>  (243) 
0.31232

>  <r_epik_Charging_Adjusted_Penalty>  (243) 
0.653043

>  <i_epik_Tot_Q>  (243) 
2

>  <i_epik_Tot_abs_Q>  (243) 
2

>  <s_lp_Force_Field>  (243) 
OPLS3e

>  <r_lp_Energy>  (243) 
171.966

>  <b_lp_Chiralities_Consistent>  (243) 
1

>  <s_lp_Variant>  (243) 
77:0-1

>  <s_i_glide_gridfile>  (243) 
pfpi4k_grid

>  <i_i_glide_lignum>  (243) 
23

>  <i_i_glide_rotatable_bonds>  (243) 
4

>  <r_i_docking_score>  (243) 
-3.80368

>  <r_i_glide_ligand_efficiency>  (243) 
-0.152147

>  <r_i_glide_ligand_efficiency_sa>  (243) 
-0.444881

>  <r_i_glide_ligand_efficiency_ln>  (243) 
-0.901586

>  <r_i_glide_gscore>  (243) 
-3.80368

>  <r_i_glide_lipo>  (243) 
-0.831658

>  <r_i_glide_hbond>  (243) 
0

>  <r_i_glide_metal>  (243) 
-0

>  <r_i_glide_rewards>  (243) 
-1.07403

>  <r_i_glide_evdw>  (243) 
-20.8259

>  <r_i_glide_ecoul>  (243) 
-7.86269

>  <r_i_glide_erotb>  (243) 
0.323354

>  <r_i_glide_esite>  (243) 
-0.000645564

>  <r_i_glide_emodel>  (243) 
-35.9243

>  <r_i_glide_energy>  (243) 
-28.6886

>  <r_i_glide_einternal>  (243) 
0.598556

>  <r_i_glide_intrahb_reward>  (243) 
-0

>  <i_i_glide_confnum>  (243) 
1

>  <i_i_glide_posenum>  (243) 
13

>  <r_i_glide_eff_state_penalty>  (243) 
0

>  <ligand_id>  (243) 
77

>  <original_smiles>  (243) 
CN1CCC23CCN(CC4CC4)C4Cc5ccc(O)c(c52)CC1C43O

>  <smiles>  (243) 
[H]Oc1c([H])c([H])c2c3c1C([H])([H])C1([H])C4(O[H])C3(C([H])([H])C([H])([H])[N+]1([H])C([H])([H])[H])C([H])([H])C([H])([H])[N+]([H])(C([H])([H])C1([H])C([H])([H])C1([H])[H])C4([H])C2([H])[H]

$$$$
77:0:1
     RDKit          3D

 55 60  0  0  1  0  0  0  0  0999 V2000
    1.3503    1.0233    2.6306 C   0  0  0  0  0  0  0  0  0  0  0  0
    2.4521    0.1358    2.1946 N   0  0  1  0  0  0  0  0  0  0  0  0
    3.6207    0.2043    3.0969 C   0  0  0  0  0  0  0  0  0  0  0  0
    4.7649   -0.6703    2.5712 C   0  0  0  0  0  0  0  0  0  0  0  0
    4.3772   -2.0767    1.9863 C   0  0  1  0  0  0  0  0  0  0  0  0
    5.6636   -2.5609    1.2285 C   0  0  0  0  0  0  0  0  0  0  0  0
    5.5282   -3.8120    0.3524 C   0  0  0  0  0  0  0  0  0  0  0  0
    4.2783   -3.7855   -0.4451 N   0  0  2  0  0  0  0  0  0  0  0  0
    4.4730   -3.1670   -1.7788 C   0  0  0  0  0  0  0  0  0  0  0  0
    3.2355   -3.0329   -2.6628 C   0  0  0  0  0  0  0  0  0  0  0  0
    3.1978   -3.6230   -4.0484 C   0  0  0  0  0  0  0  0  0  0  0  0
    3.2715   -2.1359   -3.8774 C   0  0  0  0  0  0  0  0  0  0  0  0
    3.0773   -3.4021    0.3931 C   0  0  1  0  0  0  0  0  0  0  0  0
    2.9600   -4.5678    1.4061 C   0  0  0  0  0  0  0  0  0  0  0  0
    3.7646   -4.4578    2.7108 C   0  0  0  0  0  0  0  0  0  0  0  0
    3.5110   -5.3325    3.7786 C   0  0  0  0  0  0  0  0  0  0  0  0
    3.1147   -4.8210    5.0351 C   0  0  0  0  0  0  0  0  0  0  0  0
    2.7095   -3.4681    5.0938 C   0  0  0  0  0  0  0  0  0  0  0  0
    1.9422   -3.0463    6.1495 O   0  0  0  0  0  0  0  0  0  0  0  0
    2.9449   -2.5948    4.0271 C   0  0  0  0  0  0  0  0  0  0  0  0
    3.8193   -3.0824    3.0229 C   0  0  0  0  0  0  0  0  0  0  0  0
    1.7580   -1.9831    3.2520 C   0  0  0  0  0  0  0  0  0  0  0  0
    2.0627   -1.2822    1.8922 C   0  0  2  0  0  0  0  0  0  0  0  0
    3.2111   -1.9505    1.0263 C   0  0  1  0  0  0  0  0  0  0  0  0
    3.4160   -1.0412   -0.0389 O   0  0  0  0  0  0  0  0  0  0  0  0
    1.0299    0.8239    3.6500 H   0  0  0  0  0  0  0  0  0  0  0  0
    0.4823    0.9485    1.9838 H   0  0  0  0  0  0  0  0  0  0  0  0
    1.6755    2.0599    2.6167 H   0  0  0  0  0  0  0  0  0  0  0  0
    3.9498    1.2325    3.1884 H   0  0  0  0  0  0  0  0  0  0  0  0
    3.3708   -0.0770    4.1151 H   0  0  0  0  0  0  0  0  0  0  0  0
    5.2364   -0.0927    1.7771 H   0  0  0  0  0  0  0  0  0  0  0  0
    5.5358   -0.7753    3.3354 H   0  0  0  0  0  0  0  0  0  0  0  0
    5.9845   -1.7605    0.5632 H   0  0  0  0  0  0  0  0  0  0  0  0
    6.4907   -2.6823    1.9311 H   0  0  0  0  0  0  0  0  0  0  0  0
    6.4007   -3.9128   -0.2840 H   0  0  0  0  0  0  0  0  0  0  0  0
    5.5811   -4.6932    0.9787 H   0  0  0  0  0  0  0  0  0  0  0  0
    4.9456   -2.1980   -1.6839 H   0  0  0  0  0  0  0  0  0  0  0  0
    5.1984   -3.7769   -2.3135 H   0  0  0  0  0  0  0  0  0  0  0  0
    2.2622   -2.9580   -2.1741 H   0  0  0  0  0  0  0  0  0  0  0  0
    4.0818   -4.1593   -4.3919 H   0  0  0  0  0  0  0  0  0  0  0  0
    2.2387   -4.0628   -4.3234 H   0  0  0  0  0  0  0  0  0  0  0  0
    2.3601   -1.5680   -4.0634 H   0  0  0  0  0  0  0  0  0  0  0  0
    4.2020   -1.6220   -4.1167 H   0  0  0  0  0  0  0  0  0  0  0  0
    2.1548   -3.4739   -0.1654 H   0  0  0  0  0  0  0  0  0  0  0  0
    1.9128   -4.6447    1.6906 H   0  0  0  0  0  0  0  0  0  0  0  0
    3.1842   -5.5222    0.9293 H   0  0  0  0  0  0  0  0  0  0  0  0
    3.4640   -6.4036    3.6140 H   0  0  0  0  0  0  0  0  0  0  0  0
    2.9153   -5.5010    5.8420 H   0  0  0  0  0  0  0  0  0  0  0  0
    1.8646   -3.7005    6.8217 H   0  0  0  0  0  0  0  0  0  0  0  0
    1.0562   -2.7950    3.0544 H   0  0  0  0  0  0  0  0  0  0  0  0
    1.2196   -1.3283    3.9346 H   0  0  0  0  0  0  0  0  0  0  0  0
    1.1498   -1.2395    1.3109 H   0  0  0  0  0  0  0  0  0  0  0  0
    2.5578   -0.9663   -0.4895 H   0  0  0  0  0  0  0  0  0  0  0  0
    4.1166   -4.7512   -0.6813 H   0  0  0  0  0  0  0  0  0  0  0  0
    2.7671    0.4944    1.3038 H   0  0  0  0  0  0  0  0  0  0  0  0
  1  2  1  0
  1 26  1  0
  1 27  1  0
  1 28  1  0
  2 23  1  0
  2  3  1  0
  2 55  1  6
  3  4  1  0
  3 29  1  0
  3 30  1  0
  5  4  1  1
  4 31  1  0
  4 32  1  0
  5 21  1  0
  5 24  1  0
  5  6  1  0
  6  7  1  0
  6 33  1  0
  6 34  1  0
  7  8  1  0
  7 35  1  0
  7 36  1  0
  8  9  1  0
  8 13  1  0
  8 54  1  6
  9 10  1  0
  9 37  1  0
  9 38  1  0
 10 12  1  0
 10 11  1  0
 10 39  1  0
 11 12  1  0
 11 40  1  0
 11 41  1  0
 12 42  1  0
 12 43  1  0
 13 24  1  0
 13 14  1  0
 13 44  1  6
 14 15  1  0
 14 45  1  0
 14 46  1  0
 15 21  2  0
 15 16  1  0
 16 17  2  0
 16 47  1  0
 17 18  1  0
 17 48  1  0
 18 19  1  0
 18 20  2  0
 19 49  1  0
 20 21  1  0
 20 22  1  0
 22 23  1  0
 22 50  1  0
 22 51  1  0
 23 24  1  0
 23 52  1  6
 24 25  1  6
 25 53  1  0
M  CHG  2   2   1   8   1
M  END
>  <i_m_ct_stereo_status>  (244) 
1

>  <s_m_source_file>  (244) 
/var/tmp/pbs.5076255.sched01/tmpbzpkhbzu/844yn2io63.sdf

>  <i_m_source_file_index>  (244) 
23

>  <i_lp_mmshare_version>  (244) 
48012

>  <i_f3d_flags>  (244) 
0

>  <s_epik_input>  (244) 
W0NIMl0xW0NIMl1bQ0hdMVtDSDJdTihbQ0gyXVtDSDJdMilbQ0BASF0oW0NIMl0zKVtDQEBdNChbT0hdKVtDQEhdKE4oW0NIM10pW0NIMl1bQ0gyXTUpW0NIMl1jNmMoW09IXSlbY0hdW2NIXWMzYzZbQ0BAXTI0NQ==

>  <s_epik_cmdline>  (244) 
J2VwaWtfcHl0aG9uJywgJy1waHQnLCAnMi4wJywgJy1waCcsICc3LjAnLCAnLXRuJywgJzgnLCAnLW1hJywgJzIwMCcsICctaW1hZScsICc8aW5maWxlLm1hZT4nLCAnLW9tYWUnLCAnPG91dGZpbGUubWFlPic=

>  <r_lp_tautomer_probability>  (244) 
1

>  <r_epik_Ionization_Penalty>  (244) 
0.363979

>  <r_epik_Ionization_Penalty_Charging>  (244) 
0.340723

>  <r_epik_Ionization_Penalty_Neutral>  (244) 
0.0232556

>  <r_epik_State_Penalty>  (244) 
0.31232

>  <r_epik_Charging_Adjusted_Penalty>  (244) 
0.653043

>  <i_epik_Tot_Q>  (244) 
2

>  <i_epik_Tot_abs_Q>  (244) 
2

>  <s_lp_Force_Field>  (244) 
OPLS3e

>  <r_lp_Energy>  (244) 
171.966

>  <b_lp_Chiralities_Consistent>  (244) 
1

>  <s_lp_Variant>  (244) 
77:0-1

>  <s_i_glide_gridfile>  (244) 
pfpi4k_grid

>  <i_i_glide_lignum>  (244) 
23

>  <i_i_glide_rotatable_bonds>  (244) 
4

>  <r_i_docking_score>  (244) 
-3.7453

>  <r_i_glide_ligand_efficiency>  (244) 
-0.149812

>  <r_i_glide_ligand_efficiency_sa>  (244) 
-0.438053

>  <r_i_glide_ligand_efficiency_ln>  (244) 
-0.887749

>  <r_i_glide_gscore>  (244) 
-3.7453

>  <r_i_glide_lipo>  (244) 
-0.389159

>  <r_i_glide_hbond>  (244) 
-0.16

>  <r_i_glide_metal>  (244) 
-0

>  <r_i_glide_rewards>  (244) 
-1.07403

>  <r_i_glide_evdw>  (244) 
-19.4819

>  <r_i_glide_ecoul>  (244) 
-9.69494

>  <r_i_glide_erotb>  (244) 
0.323354

>  <r_i_glide_esite>  (244) 
-0.017127

>  <r_i_glide_emodel>  (244) 
-36.1366

>  <r_i_glide_energy>  (244) 
-29.1769

>  <r_i_glide_einternal>  (244) 
1.39282

>  <r_i_glide_intrahb_reward>  (244) 
-0

>  <i_i_glide_confnum>  (244) 
1

>  <i_i_glide_posenum>  (244) 
9

>  <r_i_glide_eff_state_penalty>  (244) 
0

>  <ligand_id>  (244) 
77

>  <original_smiles>  (244) 
CN1CCC23CCN(CC4CC4)C4Cc5ccc(O)c(c52)CC1C43O

>  <smiles>  (244) 
[H]Oc1c([H])c([H])c2c3c1C([H])([H])C1([H])C4(O[H])C3(C([H])([H])C([H])([H])[N+]1([H])C([H])([H])[H])C([H])([H])C([H])([H])[N+]([H])(C([H])([H])C1([H])C([H])([H])C1([H])[H])C4([H])C2([H])[H]

$$$$
77:0:2
     RDKit          3D

 55 60  0  0  1  0  0  0  0  0999 V2000
    1.4820    0.7787    2.8424 C   0  0  0  0  0  0  0  0  0  0  0  0
    2.5536   -0.0779    2.2741 N   0  0  1  0  0  0  0  0  0  0  0  0
    3.7567   -0.1167    3.1381 C   0  0  0  0  0  0  0  0  0  0  0  0
    4.8599   -0.9577    2.4874 C   0  0  0  0  0  0  0  0  0  0  0  0
    4.4252   -2.2874    1.7797 C   0  0  1  0  0  0  0  0  0  0  0  0
    5.6739   -2.7141    0.9382 C   0  0  0  0  0  0  0  0  0  0  0  0
    5.4904   -3.8682   -0.0529 C   0  0  0  0  0  0  0  0  0  0  0  0
    4.2124   -3.7479   -0.8045 N   0  0  2  0  0  0  0  0  0  0  0  0
    4.3811   -2.9934   -2.0750 C   0  0  0  0  0  0  0  0  0  0  0  0
    3.1171   -2.7967   -2.9040 C   0  0  0  0  0  0  0  0  0  0  0  0
    2.9902   -3.4206   -4.2708 C   0  0  0  0  0  0  0  0  0  0  0  0
    3.1659   -1.9346   -4.1422 C   0  0  0  0  0  0  0  0  0  0  0  0
    3.0457   -3.4302    0.1034 C   0  0  1  0  0  0  0  0  0  0  0  0
    2.9375   -4.6899    1.0005 C   0  0  0  0  0  0  0  0  0  0  0  0
    3.7825   -4.7128    2.2806 C   0  0  0  0  0  0  0  0  0  0  0  0
    3.5548   -5.6960    3.2697 C   0  0  0  0  0  0  0  0  0  0  0  0
    3.2068   -5.3004    4.5726 C   0  0  0  0  0  0  0  0  0  0  0  0
    2.8366   -3.9608    4.7962 C   0  0  0  0  0  0  0  0  0  0  0  0
    2.1112   -3.6433    5.9055 O   0  0  0  0  0  0  0  0  0  0  0  0
    3.0544   -2.9842    3.7985 C   0  0  0  0  0  0  0  0  0  0  0  0
    3.8813   -3.3856    2.7369 C   0  0  0  0  0  0  0  0  0  0  0  0
    1.8492   -2.2822    3.1429 C   0  0  0  0  0  0  0  0  0  0  0  0
    2.1210   -1.4546    1.8508 C   0  0  2  0  0  0  0  0  0  0  0  0
    3.2278   -2.0525    0.8786 C   0  0  1  0  0  0  0  0  0  0  0  0
    3.4014   -1.0424   -0.0955 O   0  0  0  0  0  0  0  0  0  0  0  0
    1.1923    0.4812    3.8478 H   0  0  0  0  0  0  0  0  0  0  0  0
    0.5906    0.7815    2.2191 H   0  0  0  0  0  0  0  0  0  0  0  0
    1.8296    1.8073    2.9196 H   0  0  0  0  0  0  0  0  0  0  0  0
    4.1161    0.8944    3.3042 H   0  0  0  0  0  0  0  0  0  0  0  0
    3.5335   -0.4891    4.1330 H   0  0  0  0  0  0  0  0  0  0  0  0
    5.3173   -0.3068    1.7431 H   0  0  0  0  0  0  0  0  0  0  0  0
    5.6507   -1.1492    3.2124 H   0  0  0  0  0  0  0  0  0  0  0  0
    5.9893   -1.8579    0.3422 H   0  0  0  0  0  0  0  0  0  0  0  0
    6.5218   -2.9189    1.5933 H   0  0  0  0  0  0  0  0  0  0  0  0
    6.3396   -3.9177   -0.7288 H   0  0  0  0  0  0  0  0  0  0  0  0
    5.5440   -4.8143    0.4781 H   0  0  0  0  0  0  0  0  0  0  0  0
    4.8452   -2.0320   -1.8955 H   0  0  0  0  0  0  0  0  0  0  0  0
    5.1007   -3.5433   -2.6817 H   0  0  0  0  0  0  0  0  0  0  0  0
    2.1897   -2.6117   -2.3631 H   0  0  0  0  0  0  0  0  0  0  0  0
    3.8302   -4.0071   -4.6412 H   0  0  0  0  0  0  0  0  0  0  0  0
    1.9969   -3.8006   -4.5049 H   0  0  0  0  0  0  0  0  0  0  0  0
    2.2848   -1.3216   -4.3245 H   0  0  0  0  0  0  0  0  0  0  0  0
    4.1163   -1.4872   -4.4304 H   0  0  0  0  0  0  0  0  0  0  0  0
    2.1149   -3.4210   -0.4501 H   0  0  0  0  0  0  0  0  0  0  0  0
    1.9008   -4.7752    1.3106 H   0  0  0  0  0  0  0  0  0  0  0  0
    3.1295   -5.5926    0.4206 H   0  0  0  0  0  0  0  0  0  0  0  0
    3.4812   -6.7410    2.9993 H   0  0  0  0  0  0  0  0  0  0  0  0
    3.0151   -6.0482    5.3284 H   0  0  0  0  0  0  0  0  0  0  0  0
    1.8919   -2.7279    5.9523 H   0  0  0  0  0  0  0  0  0  0  0  0
    1.1309   -3.0580    2.8878 H   0  0  0  0  0  0  0  0  0  0  0  0
    1.3456   -1.6861    3.9001 H   0  0  0  0  0  0  0  0  0  0  0  0
    1.1918   -1.3337    1.2979 H   0  0  0  0  0  0  0  0  0  0  0  0
    2.5473   -0.9299   -0.5193 H   0  0  0  0  0  0  0  0  0  0  0  0
    4.0233   -4.6788   -1.1372 H   0  0  0  0  0  0  0  0  0  0  0  0
    2.8429    0.3646    1.4147 H   0  0  0  0  0  0  0  0  0  0  0  0
  1  2  1  0
  1 26  1  0
  1 27  1  0
  1 28  1  0
  2 23  1  0
  2  3  1  0
  2 55  1  6
  3  4  1  0
  3 29  1  0
  3 30  1  0
  5  4  1  1
  4 31  1  0
  4 32  1  0
  5 21  1  0
  5 24  1  0
  5  6  1  0
  6  7  1  0
  6 33  1  0
  6 34  1  0
  7  8  1  0
  7 35  1  0
  7 36  1  0
  8  9  1  0
  8 13  1  0
  8 54  1  6
  9 10  1  0
  9 37  1  0
  9 38  1  0
 10 12  1  0
 10 11  1  0
 10 39  1  0
 11 12  1  0
 11 40  1  0
 11 41  1  0
 12 42  1  0
 12 43  1  0
 13 24  1  0
 13 14  1  0
 13 44  1  6
 14 15  1  0
 14 45  1  0
 14 46  1  0
 15 21  2  0
 15 16  1  0
 16 17  2  0
 16 47  1  0
 17 18  1  0
 17 48  1  0
 18 19  1  0
 18 20  2  0
 19 49  1  0
 20 21  1  0
 20 22  1  0
 22 23  1  0
 22 50  1  0
 22 51  1  0
 23 24  1  0
 23 52  1  6
 24 25  1  6
 25 53  1  0
M  CHG  2   2   1   8   1
M  END
>  <i_m_ct_stereo_status>  (245) 
1

>  <s_m_source_file>  (245) 
/var/tmp/pbs.5076255.sched01/tmpbzpkhbzu/844yn2io63.sdf

>  <i_m_source_file_index>  (245) 
23

>  <i_lp_mmshare_version>  (245) 
48012

>  <i_f3d_flags>  (245) 
0

>  <s_epik_input>  (245) 
W0NIMl0xW0NIMl1bQ0hdMVtDSDJdTihbQ0gyXVtDSDJdMilbQ0BASF0oW0NIMl0zKVtDQEBdNChbT0hdKVtDQEhdKE4oW0NIM10pW0NIMl1bQ0gyXTUpW0NIMl1jNmMoW09IXSlbY0hdW2NIXWMzYzZbQ0BAXTI0NQ==

>  <s_epik_cmdline>  (245) 
J2VwaWtfcHl0aG9uJywgJy1waHQnLCAnMi4wJywgJy1waCcsICc3LjAnLCAnLXRuJywgJzgnLCAnLW1hJywgJzIwMCcsICctaW1hZScsICc8aW5maWxlLm1hZT4nLCAnLW9tYWUnLCAnPG91dGZpbGUubWFlPic=

>  <r_lp_tautomer_probability>  (245) 
1

>  <r_epik_Ionization_Penalty>  (245) 
0.363979

>  <r_epik_Ionization_Penalty_Charging>  (245) 
0.340723

>  <r_epik_Ionization_Penalty_Neutral>  (245) 
0.0232556

>  <r_epik_State_Penalty>  (245) 
0.31232

>  <r_epik_Charging_Adjusted_Penalty>  (245) 
0.653043

>  <i_epik_Tot_Q>  (245) 
2

>  <i_epik_Tot_abs_Q>  (245) 
2

>  <s_lp_Force_Field>  (245) 
OPLS3e

>  <r_lp_Energy>  (245) 
171.966

>  <b_lp_Chiralities_Consistent>  (245) 
1

>  <s_lp_Variant>  (245) 
77:0-1

>  <s_i_glide_gridfile>  (245) 
pfpi4k_grid

>  <i_i_glide_lignum>  (245) 
23

>  <i_i_glide_rotatable_bonds>  (245) 
4

>  <r_i_docking_score>  (245) 
-3.68651

>  <r_i_glide_ligand_efficiency>  (245) 
-0.14746

>  <r_i_glide_ligand_efficiency_sa>  (245) 
-0.431176

>  <r_i_glide_ligand_efficiency_ln>  (245) 
-0.873813

>  <r_i_glide_gscore>  (245) 
-3.68651

>  <r_i_glide_lipo>  (245) 
-0.25331

>  <r_i_glide_hbond>  (245) 
-0.16

>  <r_i_glide_metal>  (245) 
-0

>  <r_i_glide_rewards>  (245) 
-1.07403

>  <r_i_glide_evdw>  (245) 
-19.5964

>  <r_i_glide_ecoul>  (245) 
-10.1286

>  <r_i_glide_erotb>  (245) 
0.323354

>  <r_i_glide_esite>  (245) 
-0.0234069

>  <r_i_glide_emodel>  (245) 
-36.8428

>  <r_i_glide_energy>  (245) 
-29.725

>  <r_i_glide_einternal>  (245) 
1.05029

>  <r_i_glide_intrahb_reward>  (245) 
-0

>  <i_i_glide_confnum>  (245) 
1

>  <i_i_glide_posenum>  (245) 
15

>  <r_i_glide_eff_state_penalty>  (245) 
0

>  <ligand_id>  (245) 
77

>  <original_smiles>  (245) 
CN1CCC23CCN(CC4CC4)C4Cc5ccc(O)c(c52)CC1C43O

>  <smiles>  (245) 
[H]Oc1c([H])c([H])c2c3c1C([H])([H])C1([H])C4(O[H])C3(C([H])([H])C([H])([H])[N+]1([H])C([H])([H])[H])C([H])([H])C([H])([H])[N+]([H])(C([H])([H])C1([H])C([H])([H])C1([H])[H])C4([H])C2([H])[H]

$$$$
77:1:0
     RDKit          3D

 54 59  0  0  1  0  0  0  0  0999 V2000
    1.8840   -0.2215    3.1948 C   0  0  0  0  0  0  0  0  0  0  0  0
    2.6295   -1.4708    3.1577 N   0  0  0  0  0  0  0  0  0  0  0  0
    4.0117   -1.4049    3.6337 C   0  0  0  0  0  0  0  0  0  0  0  0
    5.0383   -1.2504    2.5068 C   0  0  0  0  0  0  0  0  0  0  0  0
    4.7776   -2.0902    1.2143 C   0  0  1  0  0  0  0  0  0  0  0  0
    5.8001   -1.5320    0.1668 C   0  0  0  0  0  0  0  0  0  0  0  0
    5.6223   -1.9798   -1.2874 C   0  0  0  0  0  0  0  0  0  0  0  0
    4.2039   -1.9977   -1.6934 N   0  0  2  0  0  0  0  0  0  0  0  0
    3.7453   -0.7341   -2.3019 C   0  0  0  0  0  0  0  0  0  0  0  0
    4.0918   -0.6246   -3.7721 C   0  0  0  0  0  0  0  0  0  0  0  0
    4.1511    0.7507   -4.4392 C   0  0  0  0  0  0  0  0  0  0  0  0
    3.0269   -0.1783   -4.7565 C   0  0  0  0  0  0  0  0  0  0  0  0
    3.3107   -2.6319   -0.6764 C   0  0  1  0  0  0  0  0  0  0  0  0
    3.7978   -4.1051   -0.6463 C   0  0  0  0  0  0  0  0  0  0  0  0
    4.9846   -4.4561    0.2704 C   0  0  0  0  0  0  0  0  0  0  0  0
    5.2912   -5.8066    0.4960 C   0  0  0  0  0  0  0  0  0  0  0  0
    5.2236   -6.3318    1.8063 C   0  0  0  0  0  0  0  0  0  0  0  0
    4.5796   -5.5508    2.7931 C   0  0  0  0  0  0  0  0  0  0  0  0
    4.1173   -6.1652    3.9224 O   0  0  0  0  0  0  0  0  0  0  0  0
    4.2555   -4.2057    2.5507 C   0  0  0  0  0  0  0  0  0  0  0  0
    4.8388   -3.6295    1.4024 C   0  0  0  0  0  0  0  0  0  0  0  0
    2.7804   -3.7561    2.5295 C   0  0  0  0  0  0  0  0  0  0  0  0
    2.4656   -2.3388    1.9745 C   0  0  2  0  0  0  0  0  0  0  0  0
    3.3571   -1.9047    0.7336 C   0  0  1  0  0  0  0  0  0  0  0  0
    3.0037   -0.5669    0.4806 O   0  0  0  0  0  0  0  0  0  0  0  0
    1.8402    0.1493    4.2175 H   0  0  0  0  0  0  0  0  0  0  0  0
    0.8561   -0.3833    2.8683 H   0  0  0  0  0  0  0  0  0  0  0  0
    2.3402    0.5502    2.5773 H   0  0  0  0  0  0  0  0  0  0  0  0
    4.1245   -0.5892    4.3410 H   0  0  0  0  0  0  0  0  0  0  0  0
    4.2572   -2.3007    4.2054 H   0  0  0  0  0  0  0  0  0  0  0  0
    5.0233   -0.1971    2.2391 H   0  0  0  0  0  0  0  0  0  0  0  0
    6.0428   -1.4273    2.8810 H   0  0  0  0  0  0  0  0  0  0  0  0
    5.7167   -0.4451    0.1545 H   0  0  0  0  0  0  0  0  0  0  0  0
    6.8222   -1.7223    0.4873 H   0  0  0  0  0  0  0  0  0  0  0  0
    6.1853   -1.3423   -1.9545 H   0  0  0  0  0  0  0  0  0  0  0  0
    6.0789   -2.9545   -1.4305 H   0  0  0  0  0  0  0  0  0  0  0  0
    2.6702   -0.6563   -2.2153 H   0  0  0  0  0  0  0  0  0  0  0  0
    4.2169    0.1088   -1.7998 H   0  0  0  0  0  0  0  0  0  0  0  0
    4.8208   -1.3368   -4.1493 H   0  0  0  0  0  0  0  0  0  0  0  0
    3.9301    1.6348   -3.8579 H   0  0  0  0  0  0  0  0  0  0  0  0
    4.8287    0.9328   -5.2623 H   0  0  0  0  0  0  0  0  0  0  0  0
    3.0488   -0.6288   -5.7436 H   0  0  0  0  0  0  0  0  0  0  0  0
    2.0519    0.1325   -4.3938 H   0  0  0  0  0  0  0  0  0  0  0  0
    2.3023   -2.6512   -1.0841 H   0  0  0  0  0  0  0  0  0  0  0  0
    2.9615   -4.7308   -0.3449 H   0  0  0  0  0  0  0  0  0  0  0  0
    4.0736   -4.4199   -1.6486 H   0  0  0  0  0  0  0  0  0  0  0  0
    5.4087   -6.4950   -0.3274 H   0  0  0  0  0  0  0  0  0  0  0  0
    5.4580   -7.3618    1.9748 H   0  0  0  0  0  0  0  0  0  0  0  0
    4.3745   -7.0663    3.9996 H   0  0  0  0  0  0  0  0  0  0  0  0
    2.2428   -4.4874    1.9344 H   0  0  0  0  0  0  0  0  0  0  0  0
    2.3692   -3.8552    3.5374 H   0  0  0  0  0  0  0  0  0  0  0  0
    1.4136   -2.3165    1.6876 H   0  0  0  0  0  0  0  0  0  0  0  0
    2.1027   -0.5902    0.1357 H   0  0  0  0  0  0  0  0  0  0  0  0
    4.1664   -2.6355   -2.4683 H   0  0  0  0  0  0  0  0  0  0  0  0
  1  2  1  0
  1 26  1  0
  1 27  1  0
  1 28  1  0
  2 23  1  0
  2  3  1  0
  3  4  1  0
  3 29  1  0
  3 30  1  0
  5  4  1  1
  4 31  1  0
  4 32  1  0
  5 21  1  0
  5 24  1  0
  5  6  1  0
  6  7  1  0
  6 33  1  0
  6 34  1  0
  7  8  1  0
  7 35  1  0
  7 36  1  0
  8  9  1  0
  8 13  1  0
  8 54  1  6
  9 10  1  0
  9 37  1  0
  9 38  1  0
 10 12  1  0
 10 11  1  0
 10 39  1  0
 11 12  1  0
 11 40  1  0
 11 41  1  0
 12 42  1  0
 12 43  1  0
 13 24  1  0
 13 14  1  0
 13 44  1  6
 14 15  1  0
 14 45  1  0
 14 46  1  0
 15 21  2  0
 15 16  1  0
 16 17  2  0
 16 47  1  0
 17 18  1  0
 17 48  1  0
 18 19  1  0
 18 20  2  0
 19 49  1  0
 20 21  1  0
 20 22  1  0
 22 23  1  0
 22 50  1  0
 22 51  1  0
 23 24  1  0
 23 52  1  6
 24 25  1  6
 25 53  1  0
M  CHG  1   8   1
M  END
>  <i_m_ct_stereo_status>  (246) 
1

>  <s_m_source_file>  (246) 
/var/tmp/pbs.5076255.sched01/tmpbzpkhbzu/844yn2io63.sdf

>  <i_m_source_file_index>  (246) 
24

>  <i_lp_mmshare_version>  (246) 
48012

>  <i_f3d_flags>  (246) 
0

>  <s_epik_input>  (246) 
W0NIMl0xW0NIMl1bQ0hdMVtDSDJdTihbQ0gyXVtDSDJdMilbQ0BASF0oW0NIMl0zKVtDQEBdNChbT0hdKVtDQEhdKE4oW0NIM10pW0NIMl1bQ0gyXTUpW0NIMl1jNmMoW09IXSlbY0hdW2NIXWMzYzZbQ0BAXTI0NQ==

>  <s_epik_cmdline>  (246) 
J2VwaWtfcHl0aG9uJywgJy1waHQnLCAnMi4wJywgJy1waCcsICc3LjAnLCAnLXRuJywgJzgnLCAnLW1hJywgJzIwMCcsICctaW1hZScsICc8aW5maWxlLm1hZT4nLCAnLW9tYWUnLCAnPG91dGZpbGUubWFlPic=

>  <r_lp_tautomer_probability>  (246) 
1

>  <r_epik_Ionization_Penalty>  (246) 
0.666365

>  <r_epik_Ionization_Penalty_Charging>  (246) 
0.0217263

>  <r_epik_Ionization_Penalty_Neutral>  (246) 
0.644638

>  <r_epik_State_Penalty>  (246) 
0.73499

>  <r_epik_Charging_Adjusted_Penalty>  (246) 
0.756716

>  <i_epik_Tot_Q>  (246) 
1

>  <i_epik_Tot_abs_Q>  (246) 
1

>  <s_lp_Force_Field>  (246) 
OPLS3e

>  <r_lp_Energy>  (246) 
167.622

>  <b_lp_Chiralities_Consistent>  (246) 
1

>  <s_lp_Variant>  (246) 
77:0-2

>  <s_i_glide_gridfile>  (246) 
pfpi4k_grid

>  <i_i_glide_lignum>  (246) 
24

>  <i_i_glide_rotatable_bonds>  (246) 
4

>  <r_i_docking_score>  (246) 
-3.95918

>  <r_i_glide_ligand_efficiency>  (246) 
-0.158367

>  <r_i_glide_ligand_efficiency_sa>  (246) 
-0.463069

>  <r_i_glide_ligand_efficiency_ln>  (246) 
-0.938445

>  <r_i_glide_gscore>  (246) 
-3.95918

>  <r_i_glide_lipo>  (246) 
-0.996819

>  <r_i_glide_hbond>  (246) 
-0.16

>  <r_i_glide_metal>  (246) 
-0

>  <r_i_glide_rewards>  (246) 
-1.08091

>  <r_i_glide_evdw>  (246) 
-17.7899

>  <r_i_glide_ecoul>  (246) 
-7.51536

>  <r_i_glide_erotb>  (246) 
0.325049

>  <r_i_glide_esite>  (246) 
-0.0297087

>  <r_i_glide_emodel>  (246) 
-32.1917

>  <r_i_glide_energy>  (246) 
-25.3053

>  <r_i_glide_einternal>  (246) 
1.06745

>  <r_i_glide_intrahb_reward>  (246) 
-0

>  <i_i_glide_confnum>  (246) 
4

>  <i_i_glide_posenum>  (246) 
24

>  <r_i_glide_eff_state_penalty>  (246) 
0

>  <ligand_id>  (246) 
77

>  <original_smiles>  (246) 
CN1CCC23CCN(CC4CC4)C4Cc5ccc(O)c(c52)CC1C43O

>  <smiles>  (246) 
[H]Oc1c([H])c([H])c2c3c1C([H])([H])C1([H])N(C([H])([H])[H])C([H])([H])C([H])([H])C34C([H])([H])C([H])([H])[N+]([H])(C([H])([H])C3([H])C([H])([H])C3([H])[H])C([H])(C2([H])[H])C14O[H]

$$$$
77:1:1
     RDKit          3D

 54 59  0  0  1  0  0  0  0  0999 V2000
    1.3383    0.3069    3.2434 C   0  0  0  0  0  0  0  0  0  0  0  0
    1.8507   -1.0082    3.6042 N   0  0  0  0  0  0  0  0  0  0  0  0
    3.1596   -1.0282    4.2563 C   0  0  0  0  0  0  0  0  0  0  0  0
    4.3165   -1.3091    3.2933 C   0  0  0  0  0  0  0  0  0  0  0  0
    4.0656   -2.3923    2.1956 C   0  0  1  0  0  0  0  0  0  0  0  0
    5.2824   -2.2528    1.2284 C   0  0  0  0  0  0  0  0  0  0  0  0
    5.2183   -3.0090   -0.1033 C   0  0  0  0  0  0  0  0  0  0  0  0
    3.8650   -2.9105   -0.7178 N   0  0  2  0  0  0  0  0  0  0  0  0
    3.7001   -1.7730   -1.6549 C   0  0  0  0  0  0  0  0  0  0  0  0
    4.3216   -2.0626   -3.0051 C   0  0  0  0  0  0  0  0  0  0  0  0
    3.8596   -1.2943   -4.2196 C   0  0  0  0  0  0  0  0  0  0  0  0
    3.5225   -2.7555   -4.0804 C   0  0  0  0  0  0  0  0  0  0  0  0
    2.7542   -3.1528    0.2654 C   0  0  1  0  0  0  0  0  0  0  0  0
    2.9651   -4.6410    0.6871 C   0  0  0  0  0  0  0  0  0  0  0  0
    3.9433   -4.9200    1.8407 C   0  0  0  0  0  0  0  0  0  0  0  0
    4.0012   -6.2118    2.4110 C   0  0  0  0  0  0  0  0  0  0  0  0
    3.6726   -6.3693    3.7671 C   0  0  0  0  0  0  0  0  0  0  0  0
    3.0769   -5.2983    4.4558 C   0  0  0  0  0  0  0  0  0  0  0  0
    2.3775   -5.5366    5.6036 O   0  0  0  0  0  0  0  0  0  0  0  0
    3.0251   -4.0173    3.8564 C   0  0  0  0  0  0  0  0  0  0  0  0
    3.8419   -3.8319    2.7272 C   0  0  0  0  0  0  0  0  0  0  0  0
    1.6673   -3.3739    3.5308 C   0  0  0  0  0  0  0  0  0  0  0  0
    1.6708   -2.1035    2.6313 C   0  0  2  0  0  0  0  0  0  0  0  0
    2.7629   -2.1015    1.4692 C   0  0  1  0  0  0  0  0  0  0  0  0
    2.6897   -0.8151    0.8778 O   0  0  0  0  0  0  0  0  0  0  0  0
    1.2432    0.9221    4.1385 H   0  0  0  0  0  0  0  0  0  0  0  0
    0.3426    0.2245    2.8059 H   0  0  0  0  0  0  0  0  0  0  0  0
    1.9914    0.8326    2.5479 H   0  0  0  0  0  0  0  0  0  0  0  0
    3.3318   -0.0877    4.7733 H   0  0  0  0  0  0  0  0  0  0  0  0
    3.1709   -1.7816    5.0453 H   0  0  0  0  0  0  0  0  0  0  0  0
    4.5196   -0.3619    2.8037 H   0  0  0  0  0  0  0  0  0  0  0  0
    5.2208   -1.5328    3.8537 H   0  0  0  0  0  0  0  0  0  0  0  0
    5.3953   -1.2075    0.9595 H   0  0  0  0  0  0  0  0  0  0  0  0
    6.2108   -2.5154    1.7344 H   0  0  0  0  0  0  0  0  0  0  0  0
    5.9798   -2.6437   -0.7869 H   0  0  0  0  0  0  0  0  0  0  0  0
    5.4894   -4.0502    0.0436 H   0  0  0  0  0  0  0  0  0  0  0  0
    2.6412   -1.5649   -1.8182 H   0  0  0  0  0  0  0  0  0  0  0  0
    4.1568   -0.8680   -1.2515 H   0  0  0  0  0  0  0  0  0  0  0  0
    5.3941   -2.2612   -2.9788 H   0  0  0  0  0  0  0  0  0  0  0  0
    3.0501   -0.5722   -4.1023 H   0  0  0  0  0  0  0  0  0  0  0  0
    4.6043   -1.0352   -4.9663 H   0  0  0  0  0  0  0  0  0  0  0  0
    4.0651   -3.4678   -4.7000 H   0  0  0  0  0  0  0  0  0  0  0  0
    2.4927   -3.0263   -3.8419 H   0  0  0  0  0  0  0  0  0  0  0  0
    1.8230   -3.0809   -0.2966 H   0  0  0  0  0  0  0  0  0  0  0  0
    2.0065   -5.0263    1.0208 H   0  0  0  0  0  0  0  0  0  0  0  0
    3.2356   -5.2543   -0.1772 H   0  0  0  0  0  0  0  0  0  0  0  0
    4.1243   -7.0927    1.7920 H   0  0  0  0  0  0  0  0  0  0  0  0
    3.7083   -7.3537    4.2084 H   0  0  0  0  0  0  0  0  0  0  0  0
    2.4500   -6.4316    5.9115 H   0  0  0  0  0  0  0  0  0  0  0  0
    1.0907   -4.1457    3.0338 H   0  0  0  0  0  0  0  0  0  0  0  0
    1.1276   -3.1600    4.4575 H   0  0  0  0  0  0  0  0  0  0  0  0
    0.6791   -1.9977    2.1936 H   0  0  0  0  0  0  0  0  0  0  0  0
    1.9148   -0.7837    0.3110 H   0  0  0  0  0  0  0  0  0  0  0  0
    3.8127   -3.7128   -1.3335 H   0  0  0  0  0  0  0  0  0  0  0  0
  1  2  1  0
  1 26  1  0
  1 27  1  0
  1 28  1  0
  2 23  1  0
  2  3  1  0
  3  4  1  0
  3 29  1  0
  3 30  1  0
  5  4  1  1
  4 31  1  0
  4 32  1  0
  5 21  1  0
  5 24  1  0
  5  6  1  0
  6  7  1  0
  6 33  1  0
  6 34  1  0
  7  8  1  0
  7 35  1  0
  7 36  1  0
  8  9  1  0
  8 13  1  0
  8 54  1  6
  9 10  1  0
  9 37  1  0
  9 38  1  0
 10 12  1  0
 10 11  1  0
 10 39  1  0
 11 12  1  0
 11 40  1  0
 11 41  1  0
 12 42  1  0
 12 43  1  0
 13 24  1  0
 13 14  1  0
 13 44  1  6
 14 15  1  0
 14 45  1  0
 14 46  1  0
 15 21  2  0
 15 16  1  0
 16 17  2  0
 16 47  1  0
 17 18  1  0
 17 48  1  0
 18 19  1  0
 18 20  2  0
 19 49  1  0
 20 21  1  0
 20 22  1  0
 22 23  1  0
 22 50  1  0
 22 51  1  0
 23 24  1  0
 23 52  1  6
 24 25  1  6
 25 53  1  0
M  CHG  1   8   1
M  END
>  <i_m_ct_stereo_status>  (247) 
1

>  <s_m_source_file>  (247) 
/var/tmp/pbs.5076255.sched01/tmpbzpkhbzu/844yn2io63.sdf

>  <i_m_source_file_index>  (247) 
24

>  <i_lp_mmshare_version>  (247) 
48012

>  <i_f3d_flags>  (247) 
0

>  <s_epik_input>  (247) 
W0NIMl0xW0NIMl1bQ0hdMVtDSDJdTihbQ0gyXVtDSDJdMilbQ0BASF0oW0NIMl0zKVtDQEBdNChbT0hdKVtDQEhdKE4oW0NIM10pW0NIMl1bQ0gyXTUpW0NIMl1jNmMoW09IXSlbY0hdW2NIXWMzYzZbQ0BAXTI0NQ==

>  <s_epik_cmdline>  (247) 
J2VwaWtfcHl0aG9uJywgJy1waHQnLCAnMi4wJywgJy1waCcsICc3LjAnLCAnLXRuJywgJzgnLCAnLW1hJywgJzIwMCcsICctaW1hZScsICc8aW5maWxlLm1hZT4nLCAnLW9tYWUnLCAnPG91dGZpbGUubWFlPic=

>  <r_lp_tautomer_probability>  (247) 
1

>  <r_epik_Ionization_Penalty>  (247) 
0.666365

>  <r_epik_Ionization_Penalty_Charging>  (247) 
0.0217263

>  <r_epik_Ionization_Penalty_Neutral>  (247) 
0.644638

>  <r_epik_State_Penalty>  (247) 
0.73499

>  <r_epik_Charging_Adjusted_Penalty>  (247) 
0.756716

>  <i_epik_Tot_Q>  (247) 
1

>  <i_epik_Tot_abs_Q>  (247) 
1

>  <s_lp_Force_Field>  (247) 
OPLS3e

>  <r_lp_Energy>  (247) 
167.622

>  <b_lp_Chiralities_Consistent>  (247) 
1

>  <s_lp_Variant>  (247) 
77:0-2

>  <s_i_glide_gridfile>  (247) 
pfpi4k_grid

>  <i_i_glide_lignum>  (247) 
24

>  <i_i_glide_rotatable_bonds>  (247) 
4

>  <r_i_docking_score>  (247) 
-3.40213

>  <r_i_glide_ligand_efficiency>  (247) 
-0.136085

>  <r_i_glide_ligand_efficiency_sa>  (247) 
-0.397915

>  <r_i_glide_ligand_efficiency_ln>  (247) 
-0.806406

>  <r_i_glide_gscore>  (247) 
-3.40213

>  <r_i_glide_lipo>  (247) 
-0.233376

>  <r_i_glide_hbond>  (247) 
-0.16

>  <r_i_glide_metal>  (247) 
-0

>  <r_i_glide_rewards>  (247) 
-1.08091

>  <r_i_glide_evdw>  (247) 
-18.2499

>  <r_i_glide_ecoul>  (247) 
-8.88389

>  <r_i_glide_erotb>  (247) 
0.325049

>  <r_i_glide_esite>  (247) 
-0.00781735

>  <r_i_glide_emodel>  (247) 
-33.3357

>  <r_i_glide_energy>  (247) 
-27.1338

>  <r_i_glide_einternal>  (247) 
0.410229

>  <r_i_glide_intrahb_reward>  (247) 
-0

>  <i_i_glide_confnum>  (247) 
4

>  <i_i_glide_posenum>  (247) 
1

>  <r_i_glide_eff_state_penalty>  (247) 
0

>  <ligand_id>  (247) 
77

>  <original_smiles>  (247) 
CN1CCC23CCN(CC4CC4)C4Cc5ccc(O)c(c52)CC1C43O

>  <smiles>  (247) 
[H]Oc1c([H])c([H])c2c3c1C([H])([H])C1([H])N(C([H])([H])[H])C([H])([H])C([H])([H])C34C([H])([H])C([H])([H])[N+]([H])(C([H])([H])C3([H])C([H])([H])C3([H])[H])C([H])(C2([H])[H])C14O[H]

$$$$
77:1:2
     RDKit          3D

 54 59  0  0  1  0  0  0  0  0999 V2000
    2.4300    0.7491    2.0152 C   0  0  0  0  0  0  0  0  0  0  0  0
    2.6246   -0.5626    2.6216 N   0  0  0  0  0  0  0  0  0  0  0  0
    3.8740   -0.7444    3.3574 C   0  0  0  0  0  0  0  0  0  0  0  0
    4.9780   -1.4303    2.5390 C   0  0  0  0  0  0  0  0  0  0  0  0
    4.5308   -2.6170    1.6211 C   0  0  1  0  0  0  0  0  0  0  0  0
    5.7745   -2.9125    0.7155 C   0  0  0  0  0  0  0  0  0  0  0  0
    5.5621   -3.8496   -0.4836 C   0  0  0  0  0  0  0  0  0  0  0  0
    4.2806   -3.5792   -1.1822 N   0  0  2  0  0  0  0  0  0  0  0  0
    4.4220   -2.5988   -2.2863 C   0  0  0  0  0  0  0  0  0  0  0  0
    3.1265   -2.3581   -3.0378 C   0  0  0  0  0  0  0  0  0  0  0  0
    2.8804   -3.0998   -4.3215 C   0  0  0  0  0  0  0  0  0  0  0  0
    3.1253   -1.6069   -4.3352 C   0  0  0  0  0  0  0  0  0  0  0  0
    3.1159   -3.4185   -0.2243 C   0  0  1  0  0  0  0  0  0  0  0  0
    2.9994   -4.8198    0.4352 C   0  0  0  0  0  0  0  0  0  0  0  0
    3.8585   -5.0842    1.6791 C   0  0  0  0  0  0  0  0  0  0  0  0
    3.5984   -6.2370    2.4487 C   0  0  0  0  0  0  0  0  0  0  0  0
    3.1932   -6.0822    3.7851 C   0  0  0  0  0  0  0  0  0  0  0  0
    2.8187   -4.8049    4.2372 C   0  0  0  0  0  0  0  0  0  0  0  0
    2.0470   -4.6813    5.3550 O   0  0  0  0  0  0  0  0  0  0  0  0
    3.0774   -3.6699    3.4380 C   0  0  0  0  0  0  0  0  0  0  0  0
    3.9759   -3.8614    2.3679 C   0  0  0  0  0  0  0  0  0  0  0  0
    1.9111   -2.8111    2.9198 C   0  0  0  0  0  0  0  0  0  0  0  0
    2.2344   -1.7504    1.8367 C   0  0  2  0  0  0  0  0  0  0  0  0
    3.3370   -2.2029    0.7799 C   0  0  1  0  0  0  0  0  0  0  0  0
    3.5522   -1.0662   -0.0333 O   0  0  0  0  0  0  0  0  0  0  0  0
    2.4442    1.5181    2.7882 H   0  0  0  0  0  0  0  0  0  0  0  0
    1.4581    0.8055    1.5239 H   0  0  0  0  0  0  0  0  0  0  0  0
    3.2088    0.9931    1.2957 H   0  0  0  0  0  0  0  0  0  0  0  0
    4.2330    0.2134    3.7317 H   0  0  0  0  0  0  0  0  0  0  0  0
    3.6907   -1.3375    4.2525 H   0  0  0  0  0  0  0  0  0  0  0  0
    5.4064   -0.6485    1.9146 H   0  0  0  0  0  0  0  0  0  0  0  0
    5.7862   -1.7434    3.1950 H   0  0  0  0  0  0  0  0  0  0  0  0
    6.1257   -1.9713    0.2935 H   0  0  0  0  0  0  0  0  0  0  0  0
    6.6007   -3.2759    1.3240 H   0  0  0  0  0  0  0  0  0  0  0  0
    6.4090   -3.7815   -1.1731 H   0  0  0  0  0  0  0  0  0  0  0  0
    5.6064   -4.8857   -0.1462 H   0  0  0  0  0  0  0  0  0  0  0  0
    4.8380   -1.6437   -1.9683 H   0  0  0  0  0  0  0  0  0  0  0  0
    5.1728   -2.9846   -2.9859 H   0  0  0  0  0  0  0  0  0  0  0  0
    2.2586   -2.0800   -2.4372 H   0  0  0  0  0  0  0  0  0  0  0  0
    3.6731   -3.7416   -4.7096 H   0  0  0  0  0  0  0  0  0  0  0  0
    1.8666   -3.4570   -4.4947 H   0  0  0  0  0  0  0  0  0  0  0  0
    2.2641   -0.9686   -4.5090 H   0  0  0  0  0  0  0  0  0  0  0  0
    4.0706   -1.2240   -4.7204 H   0  0  0  0  0  0  0  0  0  0  0  0
    2.1802   -3.2908   -0.7660 H   0  0  0  0  0  0  0  0  0  0  0  0
    1.9644   -4.9364    0.7429 H   0  0  0  0  0  0  0  0  0  0  0  0
    3.1636   -5.6106   -0.3053 H   0  0  0  0  0  0  0  0  0  0  0  0
    3.5334   -7.2116    1.9827 H   0  0  0  0  0  0  0  0  0  0  0  0
    2.9827   -6.9608    4.3768 H   0  0  0  0  0  0  0  0  0  0  0  0
    1.9529   -5.4949    5.8288 H   0  0  0  0  0  0  0  0  0  0  0  0
    1.1776   -3.5062    2.5192 H   0  0  0  0  0  0  0  0  0  0  0  0
    1.4086   -2.3287    3.7677 H   0  0  0  0  0  0  0  0  0  0  0  0
    1.3111   -1.5172    1.3044 H   0  0  0  0  0  0  0  0  0  0  0  0
    2.7067   -0.8168   -0.3927 H   0  0  0  0  0  0  0  0  0  0  0  0
    4.0774   -4.4445   -1.6666 H   0  0  0  0  0  0  0  0  0  0  0  0
  1  2  1  0
  1 26  1  0
  1 27  1  0
  1 28  1  0
  2 23  1  0
  2  3  1  0
  3  4  1  0
  3 29  1  0
  3 30  1  0
  5  4  1  1
  4 31  1  0
  4 32  1  0
  5 21  1  0
  5 24  1  0
  5  6  1  0
  6  7  1  0
  6 33  1  0
  6 34  1  0
  7  8  1  0
  7 35  1  0
  7 36  1  0
  8  9  1  0
  8 13  1  0
  8 54  1  6
  9 10  1  0
  9 37  1  0
  9 38  1  0
 10 12  1  0
 10 11  1  0
 10 39  1  0
 11 12  1  0
 11 40  1  0
 11 41  1  0
 12 42  1  0
 12 43  1  0
 13 24  1  0
 13 14  1  0
 13 44  1  6
 14 15  1  0
 14 45  1  0
 14 46  1  0
 15 21  2  0
 15 16  1  0
 16 17  2  0
 16 47  1  0
 17 18  1  0
 17 48  1  0
 18 19  1  0
 18 20  2  0
 19 49  1  0
 20 21  1  0
 20 22  1  0
 22 23  1  0
 22 50  1  0
 22 51  1  0
 23 24  1  0
 23 52  1  6
 24 25  1  6
 25 53  1  0
M  CHG  1   8   1
M  END
>  <i_m_ct_stereo_status>  (248) 
1

>  <s_m_source_file>  (248) 
/var/tmp/pbs.5076255.sched01/tmpbzpkhbzu/844yn2io63.sdf

>  <i_m_source_file_index>  (248) 
24

>  <i_lp_mmshare_version>  (248) 
48012

>  <i_f3d_flags>  (248) 
0

>  <s_epik_input>  (248) 
W0NIMl0xW0NIMl1bQ0hdMVtDSDJdTihbQ0gyXVtDSDJdMilbQ0BASF0oW0NIMl0zKVtDQEBdNChbT0hdKVtDQEhdKE4oW0NIM10pW0NIMl1bQ0gyXTUpW0NIMl1jNmMoW09IXSlbY0hdW2NIXWMzYzZbQ0BAXTI0NQ==

>  <s_epik_cmdline>  (248) 
J2VwaWtfcHl0aG9uJywgJy1waHQnLCAnMi4wJywgJy1waCcsICc3LjAnLCAnLXRuJywgJzgnLCAnLW1hJywgJzIwMCcsICctaW1hZScsICc8aW5maWxlLm1hZT4nLCAnLW9tYWUnLCAnPG91dGZpbGUubWFlPic=

>  <r_lp_tautomer_probability>  (248) 
1

>  <r_epik_Ionization_Penalty>  (248) 
0.666365

>  <r_epik_Ionization_Penalty_Charging>  (248) 
0.0217263

>  <r_epik_Ionization_Penalty_Neutral>  (248) 
0.644638

>  <r_epik_State_Penalty>  (248) 
0.73499

>  <r_epik_Charging_Adjusted_Penalty>  (248) 
0.756716

>  <i_epik_Tot_Q>  (248) 
1

>  <i_epik_Tot_abs_Q>  (248) 
1

>  <s_lp_Force_Field>  (248) 
OPLS3e

>  <r_lp_Energy>  (248) 
167.622

>  <b_lp_Chiralities_Consistent>  (248) 
1

>  <s_lp_Variant>  (248) 
77:0-2

>  <s_i_glide_gridfile>  (248) 
pfpi4k_grid

>  <i_i_glide_lignum>  (248) 
24

>  <i_i_glide_rotatable_bonds>  (248) 
4

>  <r_i_docking_score>  (248) 
-3.3305

>  <r_i_glide_ligand_efficiency>  (248) 
-0.13322

>  <r_i_glide_ligand_efficiency_sa>  (248) 
-0.389537

>  <r_i_glide_ligand_efficiency_ln>  (248) 
-0.789428

>  <r_i_glide_gscore>  (248) 
-3.3305

>  <r_i_glide_lipo>  (248) 
-0.352082

>  <r_i_glide_hbond>  (248) 
-0.16

>  <r_i_glide_metal>  (248) 
-0

>  <r_i_glide_rewards>  (248) 
-1.08091

>  <r_i_glide_evdw>  (248) 
-21.8147

>  <r_i_glide_ecoul>  (248) 
-6.40737

>  <r_i_glide_erotb>  (248) 
0.325049

>  <r_i_glide_esite>  (248) 
-0.0107177

>  <r_i_glide_emodel>  (248) 
-32.2265

>  <r_i_glide_energy>  (248) 
-28.2221

>  <r_i_glide_einternal>  (248) 
4.29174

>  <r_i_glide_intrahb_reward>  (248) 
-0

>  <i_i_glide_confnum>  (248) 
4

>  <i_i_glide_posenum>  (248) 
23

>  <r_i_glide_eff_state_penalty>  (248) 
0

>  <ligand_id>  (248) 
77

>  <original_smiles>  (248) 
CN1CCC23CCN(CC4CC4)C4Cc5ccc(O)c(c52)CC1C43O

>  <smiles>  (248) 
[H]Oc1c([H])c([H])c2c3c1C([H])([H])C1([H])N(C([H])([H])[H])C([H])([H])C([H])([H])C34C([H])([H])C([H])([H])[N+]([H])(C([H])([H])C3([H])C([H])([H])C3([H])[H])C([H])(C2([H])[H])C14O[H]

$$$$
77:2:0
     RDKit          3D

 54 59  0  0  1  0  0  0  0  0999 V2000
    2.8735   -2.6589   -2.6999 C   0  0  0  0  0  0  0  0  0  0  0  0
    3.2795   -3.5266   -1.5743 N   0  0  1  0  0  0  0  0  0  0  0  0
    4.7255   -3.8294   -1.5611 C   0  0  0  0  0  0  0  0  0  0  0  0
    5.0701   -4.8030   -0.4222 C   0  0  0  0  0  0  0  0  0  0  0  0
    4.3397   -4.5980    0.9510 C   0  0  1  0  0  0  0  0  0  0  0  0
    4.6153   -5.9232    1.7406 C   0  0  0  0  0  0  0  0  0  0  0  0
    3.8240   -6.1066    3.0339 C   0  0  0  0  0  0  0  0  0  0  0  0
    2.4273   -5.6897    2.9240 N   0  0  0  0  0  0  0  0  0  0  0  0
    1.4470   -6.7424    2.6611 C   0  0  0  0  0  0  0  0  0  0  0  0
    0.2017   -6.6242    3.5096 C   0  0  0  0  0  0  0  0  0  0  0  0
   -0.2209   -7.7861    4.3797 C   0  0  0  0  0  0  0  0  0  0  0  0
   -1.0150   -7.4497    3.1472 C   0  0  0  0  0  0  0  0  0  0  0  0
    2.2646   -4.3984    2.2348 C   0  0  1  0  0  0  0  0  0  0  0  0
    2.9102   -3.3759    3.2061 C   0  0  0  0  0  0  0  0  0  0  0  0
    4.4207   -3.1260    3.0629 C   0  0  0  0  0  0  0  0  0  0  0  0
    5.0179   -2.0307    3.7126 C   0  0  0  0  0  0  0  0  0  0  0  0
    5.6959   -1.0469    2.9668 C   0  0  0  0  0  0  0  0  0  0  0  0
    5.5325   -1.0538    1.5660 C   0  0  0  0  0  0  0  0  0  0  0  0
    5.8088    0.0604    0.8689 O   0  0  0  0  0  0  0  0  0  0  0  0
    4.9081   -2.1266    0.9137 C   0  0  0  0  0  0  0  0  0  0  0  0
    4.7272   -3.2830    1.6897 C   0  0  0  0  0  0  0  0  0  0  0  0
    3.5517   -1.8856    0.2162 C   0  0  0  0  0  0  0  0  0  0  0  0
    2.7628   -3.1506   -0.2271 C   0  0  2  0  0  0  0  0  0  0  0  0
    2.8510   -4.3940    0.7468 C   0  0  1  0  0  0  0  0  0  0  0  0
    2.1807   -5.4327    0.0539 O   0  0  0  0  0  0  0  0  0  0  0  0
    3.4085   -1.7134   -2.7222 H   0  0  0  0  0  0  0  0  0  0  0  0
    1.8064   -2.4600   -2.6813 H   0  0  0  0  0  0  0  0  0  0  0  0
    3.0814   -3.1693   -3.6382 H   0  0  0  0  0  0  0  0  0  0  0  0
    5.0131   -4.2736   -2.5098 H   0  0  0  0  0  0  0  0  0  0  0  0
    5.3263   -2.9302   -1.4837 H   0  0  0  0  0  0  0  0  0  0  0  0
    4.8285   -5.7970   -0.7974 H   0  0  0  0  0  0  0  0  0  0  0  0
    6.1532   -4.8319   -0.2867 H   0  0  0  0  0  0  0  0  0  0  0  0
    4.3457   -6.7674    1.1121 H   0  0  0  0  0  0  0  0  0  0  0  0
    5.6806   -6.0475    1.9393 H   0  0  0  0  0  0  0  0  0  0  0  0
    3.8836   -7.1376    3.3687 H   0  0  0  0  0  0  0  0  0  0  0  0
    4.3232   -5.5408    3.8227 H   0  0  0  0  0  0  0  0  0  0  0  0
    1.1002   -6.7572    1.6339 H   0  0  0  0  0  0  0  0  0  0  0  0
    1.8902   -7.7182    2.8309 H   0  0  0  0  0  0  0  0  0  0  0  0
   -0.0057   -5.6290    3.8986 H   0  0  0  0  0  0  0  0  0  0  0  0
    0.4028   -8.6778    4.3561 H   0  0  0  0  0  0  0  0  0  0  0  0
   -0.6610   -7.5503    5.3450 H   0  0  0  0  0  0  0  0  0  0  0  0
   -1.9990   -7.0139    3.3031 H   0  0  0  0  0  0  0  0  0  0  0  0
   -0.9269   -8.1194    2.2933 H   0  0  0  0  0  0  0  0  0  0  0  0
    1.2064   -4.1796    2.2249 H   0  0  0  0  0  0  0  0  0  0  0  0
    2.4138   -2.4190    3.0668 H   0  0  0  0  0  0  0  0  0  0  0  0
    2.6992   -3.6570    4.2375 H   0  0  0  0  0  0  0  0  0  0  0  0
    4.8374   -1.8573    4.7679 H   0  0  0  0  0  0  0  0  0  0  0  0
    6.1519   -0.2137    3.4631 H   0  0  0  0  0  0  0  0  0  0  0  0
    6.6453    0.4474    1.1389 H   0  0  0  0  0  0  0  0  0  0  0  0
    2.9216   -1.3228    0.9058 H   0  0  0  0  0  0  0  0  0  0  0  0
    3.7146   -1.1981   -0.6134 H   0  0  0  0  0  0  0  0  0  0  0  0
    1.7242   -2.9137   -0.3557 H   0  0  0  0  0  0  0  0  0  0  0  0
    2.6527   -5.6782   -0.7366 H   0  0  0  0  0  0  0  0  0  0  0  0
    2.8462   -4.3943   -1.8307 H   0  0  0  0  0  0  0  0  0  0  0  0
  1  2  1  0
  1 26  1  0
  1 27  1  0
  1 28  1  0
  2 23  1  0
  2  3  1  0
  2 54  1  6
  3  4  1  0
  3 29  1  0
  3 30  1  0
  5  4  1  6
  4 31  1  0
  4 32  1  0
  5 21  1  0
  5 24  1  0
  5  6  1  0
  6  7  1  0
  6 33  1  0
  6 34  1  0
  7  8  1  0
  7 35  1  0
  7 36  1  0
  8  9  1  0
  8 13  1  0
  9 10  1  0
  9 37  1  0
  9 38  1  0
 10 12  1  0
 10 11  1  0
 10 39  1  0
 11 12  1  0
 11 40  1  0
 11 41  1  0
 12 42  1  0
 12 43  1  0
 13 24  1  0
 13 14  1  0
 13 44  1  6
 14 15  1  0
 14 45  1  0
 14 46  1  0
 15 21  2  0
 15 16  1  0
 16 17  2  0
 16 47  1  0
 17 18  1  0
 17 48  1  0
 18 19  1  0
 18 20  2  0
 19 49  1  0
 20 21  1  0
 20 22  1  0
 22 23  1  0
 22 50  1  0
 22 51  1  0
 23 24  1  0
 23 52  1  6
 24 25  1  6
 25 53  1  0
M  CHG  1   2   1
M  END
>  <i_m_ct_stereo_status>  (249) 
1

>  <s_m_source_file>  (249) 
/var/tmp/pbs.5076255.sched01/tmpbzpkhbzu/844yn2io63.sdf

>  <i_m_source_file_index>  (249) 
25

>  <i_lp_mmshare_version>  (249) 
48012

>  <i_f3d_flags>  (249) 
0

>  <s_epik_input>  (249) 
W0NIMl0xW0NIMl1bQ0hdMVtDSDJdTihbQ0gyXVtDSDJdMilbQ0BASF0oW0NIMl0zKVtDQEBdNChbT0hdKVtDQEhdKE4oW0NIM10pW0NIMl1bQ0gyXTUpW0NIMl1jNmMoW09IXSlbY0hdW2NIXWMzYzZbQ0BAXTI0NQ==

>  <s_epik_cmdline>  (249) 
J2VwaWtfcHl0aG9uJywgJy1waHQnLCAnMi4wJywgJy1waCcsICc3LjAnLCAnLXRuJywgJzgnLCAnLW1hJywgJzIwMCcsICctaW1hZScsICc8aW5maWxlLm1hZT4nLCAnLW9tYWUnLCAnPG91dGZpbGUubWFlPic=

>  <r_epik_Ionization_Penalty>  (249) 
1.18243

>  <r_epik_Ionization_Penalty_Charging>  (249) 
0.0618117

>  <r_epik_Ionization_Penalty_Neutral>  (249) 
1.12062

>  <r_epik_State_Penalty>  (249) 
1.4078

>  <r_epik_Charging_Adjusted_Penalty>  (249) 
1.46961

>  <i_epik_Tot_Q>  (249) 
1

>  <i_epik_Tot_abs_Q>  (249) 
1

>  <s_lp_Force_Field>  (249) 
OPLS3e

>  <r_lp_Energy>  (249) 
171.704

>  <b_lp_Chiralities_Consistent>  (249) 
1

>  <s_lp_Variant>  (249) 
77:0-3

>  <s_i_glide_gridfile>  (249) 
pfpi4k_grid

>  <i_i_glide_lignum>  (249) 
25

>  <i_i_glide_rotatable_bonds>  (249) 
4

>  <r_i_docking_score>  (249) 
-4.74299

>  <r_i_glide_ligand_efficiency>  (249) 
-0.18972

>  <r_i_glide_ligand_efficiency_sa>  (249) 
-0.554743

>  <r_i_glide_ligand_efficiency_ln>  (249) 
-1.12423

>  <r_i_glide_gscore>  (249) 
-4.74299

>  <r_i_glide_lipo>  (249) 
-0.417974

>  <r_i_glide_hbond>  (249) 
-0.833224

>  <r_i_glide_metal>  (249) 
-0

>  <r_i_glide_rewards>  (249) 
-1.08091

>  <r_i_glide_evdw>  (249) 
-16.6751

>  <r_i_glide_ecoul>  (249) 
-12.6812

>  <r_i_glide_erotb>  (249) 
0.325049

>  <r_i_glide_esite>  (249) 
0

>  <r_i_glide_emodel>  (249) 
-34.9456

>  <r_i_glide_energy>  (249) 
-29.3563

>  <r_i_glide_einternal>  (249) 
5.53929

>  <r_i_glide_intrahb_reward>  (249) 
-0

>  <i_i_glide_confnum>  (249) 
3

>  <i_i_glide_posenum>  (249) 
10

>  <r_i_glide_eff_state_penalty>  (249) 
0

>  <ligand_id>  (249) 
77

>  <original_smiles>  (249) 
CN1CCC23CCN(CC4CC4)C4Cc5ccc(O)c(c52)CC1C43O

>  <smiles>  (249) 
[H]Oc1c([H])c([H])c2c3c1C([H])([H])C1([H])C4(O[H])C([H])(N(C([H])([H])C5([H])C([H])([H])C5([H])[H])C([H])([H])C([H])([H])C34C([H])([H])C([H])([H])[N+]1([H])C([H])([H])[H])C2([H])[H]

$$$$
77:2:1
     RDKit          3D

 54 59  0  0  1  0  0  0  0  0999 V2000
    2.9879   -2.9390   -2.6515 C   0  0  0  0  0  0  0  0  0  0  0  0
    3.3025   -3.8335   -1.5229 N   0  0  1  0  0  0  0  0  0  0  0  0
    4.7375   -4.1365   -1.4306 C   0  0  0  0  0  0  0  0  0  0  0  0
    5.0100   -5.1195   -0.2805 C   0  0  0  0  0  0  0  0  0  0  0  0
    4.2051   -4.8963    1.0419 C   0  0  1  0  0  0  0  0  0  0  0  0
    4.4298   -6.2077    1.8452 C   0  0  0  0  0  0  0  0  0  0  0  0
    3.5868   -6.3713    3.1038 C   0  0  0  0  0  0  0  0  0  0  0  0
    2.1928   -5.9521    2.9418 N   0  0  0  0  0  0  0  0  0  0  0  0
    1.2130   -6.9883    2.6053 C   0  0  0  0  0  0  0  0  0  0  0  0
    1.0491   -8.0840    3.6529 C   0  0  0  0  0  0  0  0  0  0  0  0
    0.2284   -9.3104    3.3303 C   0  0  0  0  0  0  0  0  0  0  0  0
   -0.2706   -8.3206    4.3506 C   0  0  0  0  0  0  0  0  0  0  0  0
    2.0934   -4.6677    2.2285 C   0  0  1  0  0  0  0  0  0  0  0  0
    2.7080   -3.6532    3.2178 C   0  0  0  0  0  0  0  0  0  0  0  0
    4.2267   -3.4351    3.1573 C   0  0  0  0  0  0  0  0  0  0  0  0
    4.8028   -2.3428    3.8476 C   0  0  0  0  0  0  0  0  0  0  0  0
    5.4971   -1.3565    3.1245 C   0  0  0  0  0  0  0  0  0  0  0  0
    5.4459   -1.3639    1.7174 C   0  0  0  0  0  0  0  0  0  0  0  0
    5.8303   -0.2773    1.0025 O   0  0  0  0  0  0  0  0  0  0  0  0
    4.8448   -2.4403    1.0351 C   0  0  0  0  0  0  0  0  0  0  0  0
    4.5954   -3.5850    1.8040 C   0  0  0  0  0  0  0  0  0  0  0  0
    3.5259   -2.1773    0.2770 C   0  0  0  0  0  0  0  0  0  0  0  0
    2.7331   -3.4193   -0.2165 C   0  0  2  0  0  0  0  0  0  0  0  0
    2.7314   -4.6587    0.7751 C   0  0  1  0  0  0  0  0  0  0  0  0
    2.0434   -5.6811    0.0721 O   0  0  0  0  0  0  0  0  0  0  0  0
    3.5382   -1.9979   -2.6628 H   0  0  0  0  0  0  0  0  0  0  0  0
    1.9203   -2.7087   -2.6998 H   0  0  0  0  0  0  0  0  0  0  0  0
    3.2291   -3.4502   -3.5860 H   0  0  0  0  0  0  0  0  0  0  0  0
    5.0626   -4.5963   -2.3651 H   0  0  0  0  0  0  0  0  0  0  0  0
    5.3760   -3.2569   -1.3260 H   0  0  0  0  0  0  0  0  0  0  0  0
    4.7590   -6.1054   -0.6700 H   0  0  0  0  0  0  0  0  0  0  0  0
    6.0828   -5.1725   -0.0859 H   0  0  0  0  0  0  0  0  0  0  0  0
    4.1622   -7.0526    1.2107 H   0  0  0  0  0  0  0  0  0  0  0  0
    5.4770   -6.3628    2.0914 H   0  0  0  0  0  0  0  0  0  0  0  0
    3.6748   -7.4124    3.3918 H   0  0  0  0  0  0  0  0  0  0  0  0
    4.0506   -5.8166    3.9220 H   0  0  0  0  0  0  0  0  0  0  0  0
    0.2400   -6.5206    2.4849 H   0  0  0  0  0  0  0  0  0  0  0  0
    1.4650   -7.4559    1.6529 H   0  0  0  0  0  0  0  0  0  0  0  0
    1.9113   -8.2967    4.2730 H   0  0  0  0  0  0  0  0  0  0  0  0
   -0.2528   -9.3457    2.3571 H   0  0  0  0  0  0  0  0  0  0  0  0
    0.6232  -10.2582    3.7011 H   0  0  0  0  0  0  0  0  0  0  0  0
   -0.1965   -8.6012    5.4025 H   0  0  0  0  0  0  0  0  0  0  0  0
   -1.0994   -7.6691    4.0907 H   0  0  0  0  0  0  0  0  0  0  0  0
    1.0273   -4.4231    2.1655 H   0  0  0  0  0  0  0  0  0  0  0  0
    2.2595   -2.6836    3.0391 H   0  0  0  0  0  0  0  0  0  0  0  0
    2.4222   -3.9277    4.2387 H   0  0  0  0  0  0  0  0  0  0  0  0
    4.5866   -2.1848    4.8908 H   0  0  0  0  0  0  0  0  0  0  0  0
    5.9533   -0.5410    3.6526 H   0  0  0  0  0  0  0  0  0  0  0  0
    6.5720    0.1571    1.4114 H   0  0  0  0  0  0  0  0  0  0  0  0
    2.8899   -1.6045    0.9484 H   0  0  0  0  0  0  0  0  0  0  0  0
    3.7452   -1.4856   -0.5394 H   0  0  0  0  0  0  0  0  0  0  0  0
    1.7104   -3.0988   -0.4065 H   0  0  0  0  0  0  0  0  0  0  0  0
    2.5567   -5.9657   -0.6686 H   0  0  0  0  0  0  0  0  0  0  0  0
    2.8999   -4.6992   -1.8293 H   0  0  0  0  0  0  0  0  0  0  0  0
  1  2  1  0
  1 26  1  0
  1 27  1  0
  1 28  1  0
  2 23  1  0
  2  3  1  0
  2 54  1  6
  3  4  1  0
  3 29  1  0
  3 30  1  0
  5  4  1  6
  4 31  1  0
  4 32  1  0
  5 21  1  0
  5 24  1  0
  5  6  1  0
  6  7  1  0
  6 33  1  0
  6 34  1  0
  7  8  1  0
  7 35  1  0
  7 36  1  0
  8  9  1  0
  8 13  1  0
  9 10  1  0
  9 37  1  0
  9 38  1  0
 10 12  1  0
 10 11  1  0
 10 39  1  0
 11 12  1  0
 11 40  1  0
 11 41  1  0
 12 42  1  0
 12 43  1  0
 13 24  1  0
 13 14  1  0
 13 44  1  6
 14 15  1  0
 14 45  1  0
 14 46  1  0
 15 21  2  0
 15 16  1  0
 16 17  2  0
 16 47  1  0
 17 18  1  0
 17 48  1  0
 18 19  1  0
 18 20  2  0
 19 49  1  0
 20 21  1  0
 20 22  1  0
 22 23  1  0
 22 50  1  0
 22 51  1  0
 23 24  1  0
 23 52  1  6
 24 25  1  6
 25 53  1  0
M  CHG  1   2   1
M  END
>  <i_m_ct_stereo_status>  (250) 
1

>  <s_m_source_file>  (250) 
/var/tmp/pbs.5076255.sched01/tmpbzpkhbzu/844yn2io63.sdf

>  <i_m_source_file_index>  (250) 
25

>  <i_lp_mmshare_version>  (250) 
48012

>  <i_f3d_flags>  (250) 
0

>  <s_epik_input>  (250) 
W0NIMl0xW0NIMl1bQ0hdMVtDSDJdTihbQ0gyXVtDSDJdMilbQ0BASF0oW0NIMl0zKVtDQEBdNChbT0hdKVtDQEhdKE4oW0NIM10pW0NIMl1bQ0gyXTUpW0NIMl1jNmMoW09IXSlbY0hdW2NIXWMzYzZbQ0BAXTI0NQ==

>  <s_epik_cmdline>  (250) 
J2VwaWtfcHl0aG9uJywgJy1waHQnLCAnMi4wJywgJy1waCcsICc3LjAnLCAnLXRuJywgJzgnLCAnLW1hJywgJzIwMCcsICctaW1hZScsICc8aW5maWxlLm1hZT4nLCAnLW9tYWUnLCAnPG91dGZpbGUubWFlPic=

>  <r_epik_Ionization_Penalty>  (250) 
1.18243

>  <r_epik_Ionization_Penalty_Charging>  (250) 
0.0618117

>  <r_epik_Ionization_Penalty_Neutral>  (250) 
1.12062

>  <r_epik_State_Penalty>  (250) 
1.4078

>  <r_epik_Charging_Adjusted_Penalty>  (250) 
1.46961

>  <i_epik_Tot_Q>  (250) 
1

>  <i_epik_Tot_abs_Q>  (250) 
1

>  <s_lp_Force_Field>  (250) 
OPLS3e

>  <r_lp_Energy>  (250) 
171.704

>  <b_lp_Chiralities_Consistent>  (250) 
1

>  <s_lp_Variant>  (250) 
77:0-3

>  <s_i_glide_gridfile>  (250) 
pfpi4k_grid

>  <i_i_glide_lignum>  (250) 
25

>  <i_i_glide_rotatable_bonds>  (250) 
4

>  <r_i_docking_score>  (250) 
-4.60509

>  <r_i_glide_ligand_efficiency>  (250) 
-0.184204

>  <r_i_glide_ligand_efficiency_sa>  (250) 
-0.538615

>  <r_i_glide_ligand_efficiency_ln>  (250) 
-1.09155

>  <r_i_glide_gscore>  (250) 
-4.60509

>  <r_i_glide_lipo>  (250) 
-0.354432

>  <r_i_glide_hbond>  (250) 
-0.734626

>  <r_i_glide_metal>  (250) 
-0

>  <r_i_glide_rewards>  (250) 
-1.08091

>  <r_i_glide_evdw>  (250) 
-17.7375

>  <r_i_glide_ecoul>  (250) 
-12.4816

>  <r_i_glide_erotb>  (250) 
0.325049

>  <r_i_glide_esite>  (250) 
-0.00107116

>  <r_i_glide_emodel>  (250) 
-37.7471

>  <r_i_glide_energy>  (250) 
-30.219

>  <r_i_glide_einternal>  (250) 
1.52102

>  <r_i_glide_intrahb_reward>  (250) 
-0

>  <i_i_glide_confnum>  (250) 
3

>  <i_i_glide_posenum>  (250) 
7

>  <r_i_glide_eff_state_penalty>  (250) 
0

>  <ligand_id>  (250) 
77

>  <original_smiles>  (250) 
CN1CCC23CCN(CC4CC4)C4Cc5ccc(O)c(c52)CC1C43O

>  <smiles>  (250) 
[H]Oc1c([H])c([H])c2c3c1C([H])([H])C1([H])C4(O[H])C([H])(N(C([H])([H])C5([H])C([H])([H])C5([H])[H])C([H])([H])C([H])([H])C34C([H])([H])C([H])([H])[N+]1([H])C([H])([H])[H])C2([H])[H]

$$$$
77:2:2
     RDKit          3D

 54 59  0  0  1  0  0  0  0  0999 V2000
    2.5660   -2.5610   -2.7242 C   0  0  0  0  0  0  0  0  0  0  0  0
    3.0520   -3.4570   -1.6518 N   0  0  1  0  0  0  0  0  0  0  0  0
    4.5150   -3.6810   -1.6736 C   0  0  0  0  0  0  0  0  0  0  0  0
    4.9265   -4.6954   -0.5958 C   0  0  0  0  0  0  0  0  0  0  0  0
    4.2087   -4.6122    0.7936 C   0  0  1  0  0  0  0  0  0  0  0  0
    4.5786   -5.9597    1.5006 C   0  0  0  0  0  0  0  0  0  0  0  0
    3.8275   -6.2693    2.7928 C   0  0  0  0  0  0  0  0  0  0  0  0
    2.4066   -5.9365    2.7237 N   0  0  0  0  0  0  0  0  0  0  0  0
    1.4867   -7.0301    2.4188 C   0  0  0  0  0  0  0  0  0  0  0  0
    0.2236   -7.0081    3.2582 C   0  0  0  0  0  0  0  0  0  0  0  0
   -0.3506   -8.3150    3.7604 C   0  0  0  0  0  0  0  0  0  0  0  0
   -1.0643   -7.5503    2.6819 C   0  0  0  0  0  0  0  0  0  0  0  0
    2.1488   -4.6191    2.1184 C   0  0  1  0  0  0  0  0  0  0  0  0
    2.7572   -3.6167    3.1382 C   0  0  0  0  0  0  0  0  0  0  0  0
    4.2454   -3.2608    2.9800 C   0  0  0  0  0  0  0  0  0  0  0  0
    4.7947   -2.1809    3.6913 C   0  0  0  0  0  0  0  0  0  0  0  0
    5.3997   -1.1235    2.9926 C   0  0  0  0  0  0  0  0  0  0  0  0
    5.2153   -1.0496    1.6029 C   0  0  0  0  0  0  0  0  0  0  0  0
    5.4199    0.1372    0.9592 O   0  0  0  0  0  0  0  0  0  0  0  0
    4.6317   -2.1180    0.8949 C   0  0  0  0  0  0  0  0  0  0  0  0
    4.5448   -3.3301    1.6023 C   0  0  0  0  0  0  0  0  0  0  0  0
    3.2553   -1.9167    0.2368 C   0  0  0  0  0  0  0  0  0  0  0  0
    2.5296   -3.1941   -0.2707 C   0  0  2  0  0  0  0  0  0  0  0  0
    2.7004   -4.4809    0.6251 C   0  0  1  0  0  0  0  0  0  0  0  0
    2.0363   -5.4608   -0.1584 O   0  0  0  0  0  0  0  0  0  0  0  0
    3.0310   -1.5770   -2.6928 H   0  0  0  0  0  0  0  0  0  0  0  0
    1.4843   -2.4547   -2.6785 H   0  0  0  0  0  0  0  0  0  0  0  0
    2.7938   -3.0080   -3.6919 H   0  0  0  0  0  0  0  0  0  0  0  0
    4.8023   -4.0579   -2.6512 H   0  0  0  0  0  0  0  0  0  0  0  0
    5.0614   -2.7499   -1.5543 H   0  0  0  0  0  0  0  0  0  0  0  0
    4.7425   -5.6799   -1.0233 H   0  0  0  0  0  0  0  0  0  0  0  0
    6.0081   -4.6548   -0.4684 H   0  0  0  0  0  0  0  0  0  0  0  0
    4.3491   -6.7844    0.8302 H   0  0  0  0  0  0  0  0  0  0  0  0
    5.6530   -6.0290    1.6790 H   0  0  0  0  0  0  0  0  0  0  0  0
    3.9571   -7.3126    3.0650 H   0  0  0  0  0  0  0  0  0  0  0  0
    4.3023   -5.7217    3.6087 H   0  0  0  0  0  0  0  0  0  0  0  0
    1.1714   -7.0401    1.3788 H   0  0  0  0  0  0  0  0  0  0  0  0
    1.9822   -7.9824    2.5908 H   0  0  0  0  0  0  0  0  0  0  0  0
    0.1294   -6.1606    3.9360 H   0  0  0  0  0  0  0  0  0  0  0  0
    0.1691   -9.2302    3.4802 H   0  0  0  0  0  0  0  0  0  0  0  0
   -0.7965   -8.3231    4.7545 H   0  0  0  0  0  0  0  0  0  0  0  0
   -1.9939   -7.0564    2.9608 H   0  0  0  0  0  0  0  0  0  0  0  0
   -1.0271   -7.9514    1.6698 H   0  0  0  0  0  0  0  0  0  0  0  0
    1.0752   -4.4775    2.1387 H   0  0  0  0  0  0  0  0  0  0  0  0
    2.2097   -2.6830    3.0515 H   0  0  0  0  0  0  0  0  0  0  0  0
    2.5677   -3.9709    4.1543 H   0  0  0  0  0  0  0  0  0  0  0  0
    4.6181   -2.0755    4.7527 H   0  0  0  0  0  0  0  0  0  0  0  0
    5.8055   -0.2812    3.5256 H   0  0  0  0  0  0  0  0  0  0  0  0
    5.0372    0.2248    0.0979 H   0  0  0  0  0  0  0  0  0  0  0  0
    2.6067   -1.4513    0.9763 H   0  0  0  0  0  0  0  0  0  0  0  0
    3.3444   -1.1809   -0.5592 H   0  0  0  0  0  0  0  0  0  0  0  0
    1.4701   -3.0501   -0.3999 H   0  0  0  0  0  0  0  0  0  0  0  0
    2.6224   -5.7678   -0.8448 H   0  0  0  0  0  0  0  0  0  0  0  0
    2.6530   -4.3409   -1.9260 H   0  0  0  0  0  0  0  0  0  0  0  0
  1  2  1  0
  1 26  1  0
  1 27  1  0
  1 28  1  0
  2 23  1  0
  2  3  1  0
  2 54  1  6
  3  4  1  0
  3 29  1  0
  3 30  1  0
  5  4  1  6
  4 31  1  0
  4 32  1  0
  5 21  1  0
  5 24  1  0
  5  6  1  0
  6  7  1  0
  6 33  1  0
  6 34  1  0
  7  8  1  0
  7 35  1  0
  7 36  1  0
  8  9  1  0
  8 13  1  0
  9 10  1  0
  9 37  1  0
  9 38  1  0
 10 12  1  0
 10 11  1  0
 10 39  1  0
 11 12  1  0
 11 40  1  0
 11 41  1  0
 12 42  1  0
 12 43  1  0
 13 24  1  0
 13 14  1  0
 13 44  1  6
 14 15  1  0
 14 45  1  0
 14 46  1  0
 15 21  2  0
 15 16  1  0
 16 17  2  0
 16 47  1  0
 17 18  1  0
 17 48  1  0
 18 19  1  0
 18 20  2  0
 19 49  1  0
 20 21  1  0
 20 22  1  0
 22 23  1  0
 22 50  1  0
 22 51  1  0
 23 24  1  0
 23 52  1  6
 24 25  1  6
 25 53  1  0
M  CHG  1   2   1
M  END
>  <i_m_ct_stereo_status>  (251) 
1

>  <s_m_source_file>  (251) 
/var/tmp/pbs.5076255.sched01/tmpbzpkhbzu/844yn2io63.sdf

>  <i_m_source_file_index>  (251) 
25

>  <i_lp_mmshare_version>  (251) 
48012

>  <i_f3d_flags>  (251) 
0

>  <s_epik_input>  (251) 
W0NIMl0xW0NIMl1bQ0hdMVtDSDJdTihbQ0gyXVtDSDJdMilbQ0BASF0oW0NIMl0zKVtDQEBdNChbT0hdKVtDQEhdKE4oW0NIM10pW0NIMl1bQ0gyXTUpW0NIMl1jNmMoW09IXSlbY0hdW2NIXWMzYzZbQ0BAXTI0NQ==

>  <s_epik_cmdline>  (251) 
J2VwaWtfcHl0aG9uJywgJy1waHQnLCAnMi4wJywgJy1waCcsICc3LjAnLCAnLXRuJywgJzgnLCAnLW1hJywgJzIwMCcsICctaW1hZScsICc8aW5maWxlLm1hZT4nLCAnLW9tYWUnLCAnPG91dGZpbGUubWFlPic=

>  <r_epik_Ionization_Penalty>  (251) 
1.18243

>  <r_epik_Ionization_Penalty_Charging>  (251) 
0.0618117

>  <r_epik_Ionization_Penalty_Neutral>  (251) 
1.12062

>  <r_epik_State_Penalty>  (251) 
1.4078

>  <r_epik_Charging_Adjusted_Penalty>  (251) 
1.46961

>  <i_epik_Tot_Q>  (251) 
1

>  <i_epik_Tot_abs_Q>  (251) 
1

>  <s_lp_Force_Field>  (251) 
OPLS3e

>  <r_lp_Energy>  (251) 
171.704

>  <b_lp_Chiralities_Consistent>  (251) 
1

>  <s_lp_Variant>  (251) 
77:0-3

>  <s_i_glide_gridfile>  (251) 
pfpi4k_grid

>  <i_i_glide_lignum>  (251) 
25

>  <i_i_glide_rotatable_bonds>  (251) 
4

>  <r_i_docking_score>  (251) 
-4.5544

>  <r_i_glide_ligand_efficiency>  (251) 
-0.182176

>  <r_i_glide_ligand_efficiency_sa>  (251) 
-0.532686

>  <r_i_glide_ligand_efficiency_ln>  (251) 
-1.07953

>  <r_i_glide_gscore>  (251) 
-4.5544

>  <r_i_glide_lipo>  (251) 
-0.377888

>  <r_i_glide_hbond>  (251) 
-0.590236

>  <r_i_glide_metal>  (251) 
-0

>  <r_i_glide_rewards>  (251) 
-1.08091

>  <r_i_glide_evdw>  (251) 
-17.6198

>  <r_i_glide_ecoul>  (251) 
-12.9962

>  <r_i_glide_erotb>  (251) 
0.325049

>  <r_i_glide_esite>  (251) 
0

>  <r_i_glide_emodel>  (251) 
-36.8971

>  <r_i_glide_energy>  (251) 
-30.616

>  <r_i_glide_einternal>  (251) 
4.59868

>  <r_i_glide_intrahb_reward>  (251) 
-0

>  <i_i_glide_confnum>  (251) 
2

>  <i_i_glide_posenum>  (251) 
39

>  <r_i_glide_eff_state_penalty>  (251) 
0

>  <ligand_id>  (251) 
77

>  <original_smiles>  (251) 
CN1CCC23CCN(CC4CC4)C4Cc5ccc(O)c(c52)CC1C43O

>  <smiles>  (251) 
[H]Oc1c([H])c([H])c2c3c1C([H])([H])C1([H])C4(O[H])C([H])(N(C([H])([H])C5([H])C([H])([H])C5([H])[H])C([H])([H])C([H])([H])C34C([H])([H])C([H])([H])[N+]1([H])C([H])([H])[H])C2([H])[H]

$$$$
77:3:0
     RDKit          3D

 54 59  0  0  1  0  0  0  0  0999 V2000
    2.6262   -0.9439    4.3861 C   0  0  0  0  0  0  0  0  0  0  0  0
    3.3665   -0.9808    3.0991 N   0  0  1  0  0  0  0  0  0  0  0  0
    4.8223   -0.8265    3.3092 C   0  0  0  0  0  0  0  0  0  0  0  0
    5.5509   -0.8133    1.9620 C   0  0  0  0  0  0  0  0  0  0  0  0
    5.0665   -1.8271    0.8739 C   0  0  1  0  0  0  0  0  0  0  0  0
    5.7562   -1.3500   -0.4439 C   0  0  0  0  0  0  0  0  0  0  0  0
    5.3291   -2.0359   -1.7433 C   0  0  0  0  0  0  0  0  0  0  0  0
    3.8604   -2.1703   -1.8147 N   0  0  2  0  0  0  0  0  0  0  0  0
    3.2274   -0.9812   -2.4450 C   0  0  0  0  0  0  0  0  0  0  0  0
    2.9594   -1.1799   -3.9221 C   0  0  0  0  0  0  0  0  0  0  0  0
    3.7492   -0.4107   -4.9568 C   0  0  0  0  0  0  0  0  0  0  0  0
    2.3203   -0.0394   -4.7195 C   0  0  0  0  0  0  0  0  0  0  0  0
    3.2673   -2.7036   -0.5460 C   0  0  1  0  0  0  0  0  0  0  0  0
    3.8656   -4.1429   -0.4468 C   0  0  0  0  0  0  0  0  0  0  0  0
    5.2516   -4.2813    0.2096 C   0  0  0  0  0  0  0  0  0  0  0  0
    5.7755   -5.5449    0.5367 C   0  0  0  0  0  0  0  0  0  0  0  0
    6.1160   -5.8434    1.8709 C   0  0  0  0  0  0  0  0  0  0  0  0
    5.6720   -4.9811    2.9107 C   0  0  0  0  0  0  0  0  0  0  0  0
    5.6056   -5.4037    4.1921 O   0  0  0  0  0  0  0  0  0  0  0  0
    5.1318   -3.7063    2.5516 C   0  0  0  0  0  0  0  0  0  0  0  0
    5.3116   -3.3154    1.2251 C   0  0  0  0  0  0  0  0  0  0  0  0
    3.6491   -3.4167    2.8525 C   0  0  0  0  0  0  0  0  0  0  0  0
    3.0392   -2.1364    2.2061 C   0  0  2  0  0  0  0  0  0  0  0  0
    3.5561   -1.8014    0.7360 C   0  0  1  0  0  0  0  0  0  0  0  0
    3.0148   -0.5290    0.4876 O   0  0  0  0  0  0  0  0  0  0  0  0
    2.9792   -1.6763    5.1067 H   0  0  0  0  0  0  0  0  0  0  0  0
    1.5599   -1.1009    4.2479 H   0  0  0  0  0  0  0  0  0  0  0  0
    2.7470    0.0259    4.8659 H   0  0  0  0  0  0  0  0  0  0  0  0
    5.0229    0.0983    3.8398 H   0  0  0  0  0  0  0  0  0  0  0  0
    5.2351   -1.5920    3.9532 H   0  0  0  0  0  0  0  0  0  0  0  0
    5.4154    0.1863    1.5628 H   0  0  0  0  0  0  0  0  0  0  0  0
    6.6270   -0.8934    2.1283 H   0  0  0  0  0  0  0  0  0  0  0  0
    5.5394   -0.2857   -0.5716 H   0  0  0  0  0  0  0  0  0  0  0  0
    6.8405   -1.4076   -0.3342 H   0  0  0  0  0  0  0  0  0  0  0  0
    5.6751   -1.4809   -2.6001 H   0  0  0  0  0  0  0  0  0  0  0  0
    5.8250   -2.9953   -1.8556 H   0  0  0  0  0  0  0  0  0  0  0  0
    2.2731   -0.7430   -2.0248 H   0  0  0  0  0  0  0  0  0  0  0  0
    3.8230   -0.0852   -2.3171 H   0  0  0  0  0  0  0  0  0  0  0  0
    2.5754   -2.1580   -4.2051 H   0  0  0  0  0  0  0  0  0  0  0  0
    4.5138    0.2762   -4.6047 H   0  0  0  0  0  0  0  0  0  0  0  0
    3.9477   -0.9068   -5.8984 H   0  0  0  0  0  0  0  0  0  0  0  0
    1.6101   -0.2593   -5.5142 H   0  0  0  0  0  0  0  0  0  0  0  0
    2.1372    0.9264   -4.2814 H   0  0  0  0  0  0  0  0  0  0  0  0
    2.1961   -2.8020   -0.7078 H   0  0  0  0  0  0  0  0  0  0  0  0
    3.1784   -4.7745    0.1163 H   0  0  0  0  0  0  0  0  0  0  0  0
    3.9321   -4.5996   -1.4269 H   0  0  0  0  0  0  0  0  0  0  0  0
    5.7457   -6.3291   -0.1895 H   0  0  0  0  0  0  0  0  0  0  0  0
    6.4988   -6.8135    2.1282 H   0  0  0  0  0  0  0  0  0  0  0  0
    3.0751   -4.2769    2.5059 H   0  0  0  0  0  0  0  0  0  0  0  0
    3.5243   -3.4333    3.9310 H   0  0  0  0  0  0  0  0  0  0  0  0
    1.9574   -2.2281    2.1894 H   0  0  0  0  0  0  0  0  0  0  0  0
    2.1289   -0.6427    0.1128 H   0  0  0  0  0  0  0  0  0  0  0  0
    3.6950   -2.8989   -2.4745 H   0  0  0  0  0  0  0  0  0  0  0  0
    3.0780   -0.1834    2.5766 H   0  0  0  0  0  0  0  0  0  0  0  0
  1  2  1  0
  1 26  1  0
  1 27  1  0
  1 28  1  0
  2 23  1  0
  2  3  1  0
  2 54  1  6
  3  4  1  0
  3 29  1  0
  3 30  1  0
  5  4  1  1
  4 31  1  0
  4 32  1  0
  5 21  1  0
  5 24  1  0
  5  6  1  0
  6  7  1  0
  6 33  1  0
  6 34  1  0
  7  8  1  0
  7 35  1  0
  7 36  1  0
  8  9  1  0
  8 13  1  0
  8 53  1  6
  9 10  1  0
  9 37  1  0
  9 38  1  0
 10 12  1  0
 10 11  1  0
 10 39  1  0
 11 12  1  0
 11 40  1  0
 11 41  1  0
 12 42  1  0
 12 43  1  0
 13 24  1  0
 13 14  1  0
 13 44  1  6
 14 15  1  0
 14 45  1  0
 14 46  1  0
 15 21  2  0
 15 16  1  0
 16 17  2  0
 16 47  1  0
 17 18  1  0
 17 48  1  0
 18 19  1  0
 18 20  2  0
 20 21  1  0
 20 22  1  0
 22 23  1  0
 22 49  1  0
 22 50  1  0
 23 24  1  0
 23 51  1  6
 24 25  1  6
 25 52  1  0
M  CHG  3   2   1   8   1  19  -1
M  END
>  <i_m_ct_stereo_status>  (252) 
1

>  <s_m_source_file>  (252) 
/var/tmp/pbs.5076255.sched01/tmpbzpkhbzu/844yn2io63.sdf

>  <i_m_source_file_index>  (252) 
26

>  <i_lp_mmshare_version>  (252) 
48012

>  <i_f3d_flags>  (252) 
0

>  <s_epik_input>  (252) 
W0NIMl0xW0NIMl1bQ0hdMVtDSDJdTihbQ0gyXVtDSDJdMilbQ0BASF0oW0NIMl0zKVtDQEBdNChbT0hdKVtDQEhdKE4oW0NIM10pW0NIMl1bQ0gyXTUpW0NIMl1jNmMoW09IXSlbY0hdW2NIXWMzYzZbQ0BAXTI0NQ==

>  <s_epik_cmdline>  (252) 
J2VwaWtfcHl0aG9uJywgJy1waHQnLCAnMi4wJywgJy1waCcsICc3LjAnLCAnLXRuJywgJzgnLCAnLW1hJywgJzIwMCcsICctaW1hZScsICc8aW5maWxlLm1hZT4nLCAnLW9tYWUnLCAnPG91dGZpbGUubWFlPic=

>  <r_epik_Ionization_Penalty>  (252) 
2.26782

>  <r_epik_Ionization_Penalty_Charging>  (252) 
2.26758

>  <r_epik_Ionization_Penalty_Neutral>  (252) 
0.000235496

>  <r_epik_State_Penalty>  (252) 
2.3538

>  <r_epik_Charging_Adjusted_Penalty>  (252) 
4.62138

>  <i_epik_Tot_Q>  (252) 
1

>  <i_epik_Tot_abs_Q>  (252) 
3

>  <s_lp_Force_Field>  (252) 
OPLS3e

>  <r_lp_Energy>  (252) 
162.064

>  <b_lp_Chiralities_Consistent>  (252) 
1

>  <s_lp_Variant>  (252) 
77:0-4

>  <s_i_glide_gridfile>  (252) 
pfpi4k_grid

>  <i_i_glide_lignum>  (252) 
26

>  <i_i_glide_rotatable_bonds>  (252) 
3

>  <r_i_docking_score>  (252) 
-3.94937

>  <r_i_glide_ligand_efficiency>  (252) 
-0.157975

>  <r_i_glide_ligand_efficiency_sa>  (252) 
-0.461921

>  <r_i_glide_ligand_efficiency_ln>  (252) 
-0.936119

>  <r_i_glide_gscore>  (252) 
-3.94937

>  <r_i_glide_lipo>  (252) 
-0.874848

>  <r_i_glide_hbond>  (252) 
-0.16

>  <r_i_glide_metal>  (252) 
-0

>  <r_i_glide_rewards>  (252) 
-1.08091

>  <r_i_glide_evdw>  (252) 
-15.0865

>  <r_i_glide_ecoul>  (252) 
-9.14405

>  <r_i_glide_erotb>  (252) 
0.325049

>  <r_i_glide_esite>  (252) 
-0.032732

>  <r_i_glide_emodel>  (252) 
-29.094

>  <r_i_glide_energy>  (252) 
-24.2305

>  <r_i_glide_einternal>  (252) 
2.52282

>  <r_i_glide_intrahb_reward>  (252) 
-0

>  <i_i_glide_confnum>  (252) 
6

>  <i_i_glide_posenum>  (252) 
20

>  <r_i_glide_eff_state_penalty>  (252) 
0

>  <ligand_id>  (252) 
77

>  <original_smiles>  (252) 
CN1CCC23CCN(CC4CC4)C4Cc5ccc(O)c(c52)CC1C43O

>  <smiles>  (252) 
[H]OC12C34c5c(c([O-])c([H])c([H])c5C([H])([H])C1([H])[N+]([H])(C([H])([H])C1([H])C([H])([H])C1([H])[H])C([H])([H])C3([H])[H])C([H])([H])C2([H])[N+]([H])(C([H])([H])[H])C([H])([H])C4([H])[H]

$$$$
77:3:1
     RDKit          3D

 54 59  0  0  1  0  0  0  0  0999 V2000
    3.1621    1.1147    3.3983 C   0  0  0  0  0  0  0  0  0  0  0  0
    3.7022    0.0171    2.5609 N   0  0  1  0  0  0  0  0  0  0  0  0
    5.0840   -0.3653    2.9394 C   0  0  0  0  0  0  0  0  0  0  0  0
    5.6326   -1.4304    1.9888 C   0  0  0  0  0  0  0  0  0  0  0  0
    4.6639   -2.5800    1.5577 C   0  0  1  0  0  0  0  0  0  0  0  0
    5.4367   -3.3468    0.4244 C   0  0  0  0  0  0  0  0  0  0  0  0
    4.6084   -4.3416   -0.4110 C   0  0  0  0  0  0  0  0  0  0  0  0
    3.2765   -3.7724   -0.7229 N   0  0  2  0  0  0  0  0  0  0  0  0
    3.1223   -3.0612   -2.0216 C   0  0  0  0  0  0  0  0  0  0  0  0
    4.3247   -2.1982   -2.4107 C   0  0  0  0  0  0  0  0  0  0  0  0
    4.6049   -1.7198   -3.8059 C   0  0  0  0  0  0  0  0  0  0  0  0
    5.4939   -2.7722   -3.1713 C   0  0  0  0  0  0  0  0  0  0  0  0
    2.5662   -3.2233    0.4781 C   0  0  1  0  0  0  0  0  0  0  0  0
    2.4065   -4.4440    1.4460 C   0  0  0  0  0  0  0  0  0  0  0  0
    3.5867   -4.7414    2.3828 C   0  0  0  0  0  0  0  0  0  0  0  0
    3.4890   -5.6735    3.4531 C   0  0  0  0  0  0  0  0  0  0  0  0
    3.7406   -5.2530    4.7606 C   0  0  0  0  0  0  0  0  0  0  0  0
    3.8440   -3.8702    5.0241 C   0  0  0  0  0  0  0  0  0  0  0  0
    3.6720   -3.3921    6.2922 O   0  0  0  0  0  0  0  0  0  0  0  0
    3.9404   -2.9558    3.9535 C   0  0  0  0  0  0  0  0  0  0  0  0
    4.2200   -3.5245    2.7053 C   0  0  0  0  0  0  0  0  0  0  0  0
    2.7923   -1.9463    3.7210 C   0  0  0  0  0  0  0  0  0  0  0  0
    2.8059   -1.1699    2.3758 C   0  0  2  0  0  0  0  0  0  0  0  0
    3.3205   -1.9899    1.1189 C   0  0  1  0  0  0  0  0  0  0  0  0
    3.3282   -0.9684    0.1293 O   0  0  0  0  0  0  0  0  0  0  0  0
    3.1886    0.8548    4.4598 H   0  0  0  0  0  0  0  0  0  0  0  0
    2.1393    1.3640    3.1149 H   0  0  0  0  0  0  0  0  0  0  0  0
    3.7712    2.0076    3.2779 H   0  0  0  0  0  0  0  0  0  0  0  0
    5.7354    0.4996    2.9022 H   0  0  0  0  0  0  0  0  0  0  0  0
    5.1381   -0.7167    3.9668 H   0  0  0  0  0  0  0  0  0  0  0  0
    5.9380   -0.9036    1.0831 H   0  0  0  0  0  0  0  0  0  0  0  0
    6.5404   -1.8622    2.3930 H   0  0  0  0  0  0  0  0  0  0  0  0
    5.8457   -2.5892   -0.2512 H   0  0  0  0  0  0  0  0  0  0  0  0
    6.3102   -3.8566    0.8396 H   0  0  0  0  0  0  0  0  0  0  0  0
    5.1089   -4.6469   -1.3203 H   0  0  0  0  0  0  0  0  0  0  0  0
    4.5155   -5.2857    0.1158 H   0  0  0  0  0  0  0  0  0  0  0  0
    2.9897   -3.8297   -2.7642 H   0  0  0  0  0  0  0  0  0  0  0  0
    2.2138   -2.4664   -2.0570 H   0  0  0  0  0  0  0  0  0  0  0  0
    4.5939   -1.3996   -1.6991 H   0  0  0  0  0  0  0  0  0  0  0  0
    3.8803   -1.9732   -4.5812 H   0  0  0  0  0  0  0  0  0  0  0  0
    4.9256   -0.6800   -3.8024 H   0  0  0  0  0  0  0  0  0  0  0  0
    6.4573   -2.4970   -2.7282 H   0  0  0  0  0  0  0  0  0  0  0  0
    5.4483   -3.8024   -3.5478 H   0  0  0  0  0  0  0  0  0  0  0  0
    1.6030   -2.8942    0.1071 H   0  0  0  0  0  0  0  0  0  0  0  0
    1.5779   -4.2534    2.1225 H   0  0  0  0  0  0  0  0  0  0  0  0
    2.1378   -5.3524    0.9013 H   0  0  0  0  0  0  0  0  0  0  0  0
    3.0601   -6.6536    3.2829 H   0  0  0  0  0  0  0  0  0  0  0  0
    3.6433   -5.9390    5.5769 H   0  0  0  0  0  0  0  0  0  0  0  0
    1.8723   -2.5307    3.7610 H   0  0  0  0  0  0  0  0  0  0  0  0
    2.7593   -1.2775    4.5819 H   0  0  0  0  0  0  0  0  0  0  0  0
    1.8027   -0.7917    2.1902 H   0  0  0  0  0  0  0  0  0  0  0  0
    2.4307   -0.9086   -0.2349 H   0  0  0  0  0  0  0  0  0  0  0  0
    2.7468   -4.6140   -0.9280 H   0  0  0  0  0  0  0  0  0  0  0  0
    3.7677    0.3749    1.6049 H   0  0  0  0  0  0  0  0  0  0  0  0
  1  2  1  0
  1 26  1  0
  1 27  1  0
  1 28  1  0
  2 23  1  0
  2  3  1  0
  2 54  1  6
  3  4  1  0
  3 29  1  0
  3 30  1  0
  5  4  1  1
  4 31  1  0
  4 32  1  0
  5 21  1  0
  5 24  1  0
  5  6  1  0
  6  7  1  0
  6 33  1  0
  6 34  1  0
  7  8  1  0
  7 35  1  0
  7 36  1  0
  8  9  1  0
  8 13  1  0
  8 53  1  6
  9 10  1  0
  9 37  1  0
  9 38  1  0
 10 12  1  0
 10 11  1  0
 10 39  1  0
 11 12  1  0
 11 40  1  0
 11 41  1  0
 12 42  1  0
 12 43  1  0
 13 24  1  0
 13 14  1  0
 13 44  1  6
 14 15  1  0
 14 45  1  0
 14 46  1  0
 15 21  2  0
 15 16  1  0
 16 17  2  0
 16 47  1  0
 17 18  1  0
 17 48  1  0
 18 19  1  0
 18 20  2  0
 20 21  1  0
 20 22  1  0
 22 23  1  0
 22 49  1  0
 22 50  1  0
 23 24  1  0
 23 51  1  6
 24 25  1  6
 25 52  1  0
M  CHG  3   2   1   8   1  19  -1
M  END
>  <i_m_ct_stereo_status>  (253) 
1

>  <s_m_source_file>  (253) 
/var/tmp/pbs.5076255.sched01/tmpbzpkhbzu/844yn2io63.sdf

>  <i_m_source_file_index>  (253) 
26

>  <i_lp_mmshare_version>  (253) 
48012

>  <i_f3d_flags>  (253) 
0

>  <s_epik_input>  (253) 
W0NIMl0xW0NIMl1bQ0hdMVtDSDJdTihbQ0gyXVtDSDJdMilbQ0BASF0oW0NIMl0zKVtDQEBdNChbT0hdKVtDQEhdKE4oW0NIM10pW0NIMl1bQ0gyXTUpW0NIMl1jNmMoW09IXSlbY0hdW2NIXWMzYzZbQ0BAXTI0NQ==

>  <s_epik_cmdline>  (253) 
J2VwaWtfcHl0aG9uJywgJy1waHQnLCAnMi4wJywgJy1waCcsICc3LjAnLCAnLXRuJywgJzgnLCAnLW1hJywgJzIwMCcsICctaW1hZScsICc8aW5maWxlLm1hZT4nLCAnLW9tYWUnLCAnPG91dGZpbGUubWFlPic=

>  <r_epik_Ionization_Penalty>  (253) 
2.26782

>  <r_epik_Ionization_Penalty_Charging>  (253) 
2.26758

>  <r_epik_Ionization_Penalty_Neutral>  (253) 
0.000235496

>  <r_epik_State_Penalty>  (253) 
2.3538

>  <r_epik_Charging_Adjusted_Penalty>  (253) 
4.62138

>  <i_epik_Tot_Q>  (253) 
1

>  <i_epik_Tot_abs_Q>  (253) 
3

>  <s_lp_Force_Field>  (253) 
OPLS3e

>  <r_lp_Energy>  (253) 
162.064

>  <b_lp_Chiralities_Consistent>  (253) 
1

>  <s_lp_Variant>  (253) 
77:0-4

>  <s_i_glide_gridfile>  (253) 
pfpi4k_grid

>  <i_i_glide_lignum>  (253) 
26

>  <i_i_glide_rotatable_bonds>  (253) 
3

>  <r_i_docking_score>  (253) 
-3.65562

>  <r_i_glide_ligand_efficiency>  (253) 
-0.146225

>  <r_i_glide_ligand_efficiency_sa>  (253) 
-0.427564

>  <r_i_glide_ligand_efficiency_ln>  (253) 
-0.866491

>  <r_i_glide_gscore>  (253) 
-3.65562

>  <r_i_glide_lipo>  (253) 
-0.540532

>  <r_i_glide_hbond>  (253) 
-0.16

>  <r_i_glide_metal>  (253) 
-0

>  <r_i_glide_rewards>  (253) 
-1.08091

>  <r_i_glide_evdw>  (253) 
-14.8168

>  <r_i_glide_ecoul>  (253) 
-9.6899

>  <r_i_glide_erotb>  (253) 
0.325049

>  <r_i_glide_esite>  (253) 
-0.00490615

>  <r_i_glide_emodel>  (253) 
-26.4086

>  <r_i_glide_energy>  (253) 
-24.5067

>  <r_i_glide_einternal>  (253) 
6.66777

>  <r_i_glide_intrahb_reward>  (253) 
-0

>  <i_i_glide_confnum>  (253) 
3

>  <i_i_glide_posenum>  (253) 
40

>  <r_i_glide_eff_state_penalty>  (253) 
0

>  <ligand_id>  (253) 
77

>  <original_smiles>  (253) 
CN1CCC23CCN(CC4CC4)C4Cc5ccc(O)c(c52)CC1C43O

>  <smiles>  (253) 
[H]OC12C34c5c(c([O-])c([H])c([H])c5C([H])([H])C1([H])[N+]([H])(C([H])([H])C1([H])C([H])([H])C1([H])[H])C([H])([H])C3([H])[H])C([H])([H])C2([H])[N+]([H])(C([H])([H])[H])C([H])([H])C4([H])[H]

$$$$
77:3:2
     RDKit          3D

 54 59  0  0  1  0  0  0  0  0999 V2000
    3.1299    0.7877    2.7561 C   0  0  0  0  0  0  0  0  0  0  0  0
    3.7999   -0.2058    1.8692 N   0  0  1  0  0  0  0  0  0  0  0  0
    4.7999   -1.0248    2.5908 C   0  0  0  0  0  0  0  0  0  0  0  0
    5.4914   -1.9991    1.6266 C   0  0  0  0  0  0  0  0  0  0  0  0
    4.5872   -2.7233    0.5690 C   0  0  1  0  0  0  0  0  0  0  0  0
    5.6013   -3.3549   -0.4431 C   0  0  0  0  0  0  0  0  0  0  0  0
    5.0225   -3.9727   -1.7183 C   0  0  0  0  0  0  0  0  0  0  0  0
    3.9973   -3.0909   -2.3218 N   0  0  2  0  0  0  0  0  0  0  0  0
    4.5661   -2.1352   -3.2985 C   0  0  0  0  0  0  0  0  0  0  0  0
    3.5335   -1.4913   -4.2043 C   0  0  0  0  0  0  0  0  0  0  0  0
    3.9378   -0.3622   -5.1193 C   0  0  0  0  0  0  0  0  0  0  0  0
    3.0735   -0.0813   -3.9350 C   0  0  0  0  0  0  0  0  0  0  0  0
    3.0103   -2.5696   -1.3274 C   0  0  1  0  0  0  0  0  0  0  0  0
    2.2792   -3.8513   -0.8602 C   0  0  0  0  0  0  0  0  0  0  0  0
    2.8958   -4.6300    0.3202 C   0  0  0  0  0  0  0  0  0  0  0  0
    2.2175   -5.6864    0.9659 C   0  0  0  0  0  0  0  0  0  0  0  0
    1.9864   -5.6197    2.3500 C   0  0  0  0  0  0  0  0  0  0  0  0
    2.2070   -4.3882    3.0098 C   0  0  0  0  0  0  0  0  0  0  0  0
    1.6011   -4.1475    4.2066 O   0  0  0  0  0  0  0  0  0  0  0  0
    2.8819   -3.3508    2.3440 C   0  0  0  0  0  0  0  0  0  0  0  0
    3.5539   -3.7126    1.1626 C   0  0  0  0  0  0  0  0  0  0  0  0
    2.1545   -2.0269    2.0332 C   0  0  0  0  0  0  0  0  0  0  0  0
    2.8687   -1.0445    1.0540 C   0  0  2  0  0  0  0  0  0  0  0  0
    3.6785   -1.7378   -0.1340 C   0  0  1  0  0  0  0  0  0  0  0  0
    4.3818   -0.6598   -0.7263 O   0  0  0  0  0  0  0  0  0  0  0  0
    2.6679    0.3278    3.6308 H   0  0  0  0  0  0  0  0  0  0  0  0
    2.3727    1.3654    2.2223 H   0  0  0  0  0  0  0  0  0  0  0  0
    3.8453    1.4995    3.1581 H   0  0  0  0  0  0  0  0  0  0  0  0
    5.5404   -0.3697    3.0472 H   0  0  0  0  0  0  0  0  0  0  0  0
    4.3514   -1.5602    3.4264 H   0  0  0  0  0  0  0  0  0  0  0  0
    6.2375   -1.4023    1.1009 H   0  0  0  0  0  0  0  0  0  0  0  0
    6.0641   -2.7272    2.1965 H   0  0  0  0  0  0  0  0  0  0  0  0
    6.2953   -2.5822   -0.7771 H   0  0  0  0  0  0  0  0  0  0  0  0
    6.2189   -4.0972    0.0574 H   0  0  0  0  0  0  0  0  0  0  0  0
    5.8167   -4.1850   -2.4331 H   0  0  0  0  0  0  0  0  0  0  0  0
    4.6144   -4.9588   -1.5046 H   0  0  0  0  0  0  0  0  0  0  0  0
    5.1974   -1.3793   -2.8402 H   0  0  0  0  0  0  0  0  0  0  0  0
    5.2427   -2.7069   -3.9165 H   0  0  0  0  0  0  0  0  0  0  0  0
    2.8195   -2.1911   -4.6427 H   0  0  0  0  0  0  0  0  0  0  0  0
    4.9417    0.0200   -5.0695 H   0  0  0  0  0  0  0  0  0  0  0  0
    3.4620   -0.2810   -6.0920 H   0  0  0  0  0  0  0  0  0  0  0  0
    2.0549    0.2050   -4.1794 H   0  0  0  0  0  0  0  0  0  0  0  0
    3.5321    0.4615   -3.1093 H   0  0  0  0  0  0  0  0  0  0  0  0
    2.3015   -1.9724   -1.9066 H   0  0  0  0  0  0  0  0  0  0  0  0
    1.2868   -3.5266   -0.6485 H   0  0  0  0  0  0  0  0  0  0  0  0
    2.0560   -4.5401   -1.6621 H   0  0  0  0  0  0  0  0  0  0  0  0
    1.7280   -6.4566    0.3909 H   0  0  0  0  0  0  0  0  0  0  0  0
    1.4557   -6.4050    2.8501 H   0  0  0  0  0  0  0  0  0  0  0  0
    1.1884   -2.2686    1.6119 H   0  0  0  0  0  0  0  0  0  0  0  0
    1.8920   -1.5609    2.9813 H   0  0  0  0  0  0  0  0  0  0  0  0
    2.1808   -0.3110    0.6481 H   0  0  0  0  0  0  0  0  0  0  0  0
    3.7460   -0.1648   -1.2168 H   0  0  0  0  0  0  0  0  0  0  0  0
    3.4477   -3.7217   -2.8889 H   0  0  0  0  0  0  0  0  0  0  0  0
    4.3074    0.3208    1.1728 H   0  0  0  0  0  0  0  0  0  0  0  0
  1  2  1  0
  1 26  1  0
  1 27  1  0
  1 28  1  0
  2 23  1  0
  2  3  1  0
  2 54  1  6
  3  4  1  0
  3 29  1  0
  3 30  1  0
  5  4  1  1
  4 31  1  0
  4 32  1  0
  5 21  1  0
  5 24  1  0
  5  6  1  0
  6  7  1  0
  6 33  1  0
  6 34  1  0
  7  8  1  0
  7 35  1  0
  7 36  1  0
  8  9  1  0
  8 13  1  0
  8 53  1  6
  9 10  1  0
  9 37  1  0
  9 38  1  0
 10 12  1  0
 10 11  1  0
 10 39  1  0
 11 12  1  0
 11 40  1  0
 11 41  1  0
 12 42  1  0
 12 43  1  0
 13 24  1  0
 13 14  1  0
 13 44  1  6
 14 15  1  0
 14 45  1  0
 14 46  1  0
 15 21  2  0
 15 16  1  0
 16 17  2  0
 16 47  1  0
 17 18  1  0
 17 48  1  0
 18 19  1  0
 18 20  2  0
 20 21  1  0
 20 22  1  0
 22 23  1  0
 22 49  1  0
 22 50  1  0
 23 24  1  0
 23 51  1  6
 24 25  1  6
 25 52  1  0
M  CHG  3   2   1   8   1  19  -1
M  END
>  <i_m_ct_stereo_status>  (254) 
1

>  <s_m_source_file>  (254) 
/var/tmp/pbs.5076255.sched01/tmpbzpkhbzu/844yn2io63.sdf

>  <i_m_source_file_index>  (254) 
26

>  <i_lp_mmshare_version>  (254) 
48012

>  <i_f3d_flags>  (254) 
0

>  <s_epik_input>  (254) 
W0NIMl0xW0NIMl1bQ0hdMVtDSDJdTihbQ0gyXVtDSDJdMilbQ0BASF0oW0NIMl0zKVtDQEBdNChbT0hdKVtDQEhdKE4oW0NIM10pW0NIMl1bQ0gyXTUpW0NIMl1jNmMoW09IXSlbY0hdW2NIXWMzYzZbQ0BAXTI0NQ==

>  <s_epik_cmdline>  (254) 
J2VwaWtfcHl0aG9uJywgJy1waHQnLCAnMi4wJywgJy1waCcsICc3LjAnLCAnLXRuJywgJzgnLCAnLW1hJywgJzIwMCcsICctaW1hZScsICc8aW5maWxlLm1hZT4nLCAnLW9tYWUnLCAnPG91dGZpbGUubWFlPic=

>  <r_epik_Ionization_Penalty>  (254) 
2.26782

>  <r_epik_Ionization_Penalty_Charging>  (254) 
2.26758

>  <r_epik_Ionization_Penalty_Neutral>  (254) 
0.000235496

>  <r_epik_State_Penalty>  (254) 
2.3538

>  <r_epik_Charging_Adjusted_Penalty>  (254) 
4.62138

>  <i_epik_Tot_Q>  (254) 
1

>  <i_epik_Tot_abs_Q>  (254) 
3

>  <s_lp_Force_Field>  (254) 
OPLS3e

>  <r_lp_Energy>  (254) 
162.064

>  <b_lp_Chiralities_Consistent>  (254) 
1

>  <s_lp_Variant>  (254) 
77:0-4

>  <s_i_glide_gridfile>  (254) 
pfpi4k_grid

>  <i_i_glide_lignum>  (254) 
26

>  <i_i_glide_rotatable_bonds>  (254) 
3

>  <r_i_docking_score>  (254) 
-3.07752

>  <r_i_glide_ligand_efficiency>  (254) 
-0.123101

>  <r_i_glide_ligand_efficiency_sa>  (254) 
-0.359949

>  <r_i_glide_ligand_efficiency_ln>  (254) 
-0.729464

>  <r_i_glide_gscore>  (254) 
-3.07752

>  <r_i_glide_lipo>  (254) 
-0.663016

>  <r_i_glide_hbond>  (254) 
0

>  <r_i_glide_metal>  (254) 
-0

>  <r_i_glide_rewards>  (254) 
-1.12257

>  <r_i_glide_evdw>  (254) 
-15.184

>  <r_i_glide_ecoul>  (254) 
-5.57327

>  <r_i_glide_erotb>  (254) 
0.325049

>  <r_i_glide_esite>  (254) 
-0.0217884

>  <r_i_glide_emodel>  (254) 
-25.3416

>  <r_i_glide_energy>  (254) 
-20.7573

>  <r_i_glide_einternal>  (254) 
0.551586

>  <r_i_glide_intrahb_reward>  (254) 
-0

>  <i_i_glide_confnum>  (254) 
6

>  <i_i_glide_posenum>  (254) 
18

>  <r_i_glide_eff_state_penalty>  (254) 
0

>  <ligand_id>  (254) 
77

>  <original_smiles>  (254) 
CN1CCC23CCN(CC4CC4)C4Cc5ccc(O)c(c52)CC1C43O

>  <smiles>  (254) 
[H]OC12C34c5c(c([O-])c([H])c([H])c5C([H])([H])C1([H])[N+]([H])(C([H])([H])C1([H])C([H])([H])C1([H])[H])C([H])([H])C3([H])[H])C([H])([H])C2([H])[N+]([H])(C([H])([H])[H])C([H])([H])C4([H])[H]

$$$$
78:0:0
     RDKit          3D

 53 58  0  0  1  0  0  0  0  0999 V2000
    2.3536   -3.8879   -0.6063 C   0  0  0  0  0  0  0  0  0  0  0  0
    3.8569   -3.5349   -0.3853 C   0  0  2  0  0  0  0  0  0  0  0  0
    4.4948   -4.7733    0.2507 C   0  0  0  0  0  0  0  0  0  0  0  0
    5.1244   -4.7765    1.4501 C   0  0  0  0  0  0  0  0  0  0  0  0
    5.3019   -3.5383    2.3026 C   0  0  2  0  0  0  0  0  0  0  0  0
    4.0974   -3.3665    3.3262 C   0  0  2  0  0  0  0  0  0  0  0  0
    2.7061   -3.7848    2.8134 C   0  0  2  0  0  0  0  0  0  0  0  0
    2.2135   -2.9079    1.8260 O   0  0  0  0  0  0  0  0  0  0  0  0
    2.9612   -1.7689    1.3933 C   0  0  1  0  0  0  0  0  0  0  0  0
    3.1985   -1.0186    2.7281 C   0  0  0  0  0  0  0  0  0  0  0  0
    3.5866   -2.0156    3.8916 C   0  0  2  0  0  0  0  0  0  0  0  0
    4.5322   -1.4339    4.7607 O   0  0  0  0  0  0  0  0  0  0  0  0
    2.3463   -2.5397    4.7078 C   0  0  0  0  0  0  0  0  0  0  0  0
    2.6866   -3.1302    6.1024 C   0  0  0  0  0  0  0  0  0  0  0  0
    1.1538   -1.5758    4.8954 C   0  0  0  0  0  0  0  0  0  0  0  0
    1.8964   -3.6504    3.9336 O   0  0  0  0  0  0  0  0  0  0  0  0
    4.1996   -2.2128    0.5157 C   0  0  2  0  0  0  0  0  0  0  0  0
    5.0835   -1.2107   -0.2886 C   0  0  2  0  0  0  0  0  0  0  0  0
    4.8456   -0.9755   -1.7894 C   0  0  0  0  0  0  0  0  0  0  0  0
    4.0853   -2.0932   -2.4961 C   0  0  0  0  0  0  0  0  0  0  0  0
    4.3862   -3.4475   -1.8641 C   0  0  0  0  0  0  0  0  0  0  0  0
    6.2964   -2.1050    0.1517 C   0  0  1  0  0  0  0  0  0  0  0  0
    7.5669   -1.4787    0.2188 O   0  0  0  0  0  0  0  0  0  0  0  0
    5.4755   -2.3178    1.4257 C   0  0  2  0  0  0  0  0  0  0  0  0
    5.9124   -1.3186    2.3257 O   0  0  0  0  0  0  0  0  0  0  0  0
    1.7369   -3.0156   -0.7823 H   0  0  0  0  0  0  0  0  0  0  0  0
    1.9420   -4.4664    0.2197 H   0  0  0  0  0  0  0  0  0  0  0  0
    2.1704   -4.5451   -1.4529 H   0  0  0  0  0  0  0  0  0  0  0  0
    4.4110   -5.6903   -0.3161 H   0  0  0  0  0  0  0  0  0  0  0  0
    5.5367   -5.6825    1.8657 H   0  0  0  0  0  0  0  0  0  0  0  0
    6.2019   -3.6784    2.8679 H   0  0  0  0  0  0  0  0  0  0  0  0
    4.3443   -4.0402    4.1501 H   0  0  0  0  0  0  0  0  0  0  0  0
    2.6648   -4.8227    2.4745 H   0  0  0  0  0  0  0  0  0  0  0  0
    2.3088   -1.1468    0.7877 H   0  0  0  0  0  0  0  0  0  0  0  0
    3.8904   -0.1880    2.6160 H   0  0  0  0  0  0  0  0  0  0  0  0
    2.2896   -0.4776    2.9655 H   0  0  0  0  0  0  0  0  0  0  0  0
    5.2693   -1.2006    4.2139 H   0  0  0  0  0  0  0  0  0  0  0  0
    3.0001   -2.3497    6.7980 H   0  0  0  0  0  0  0  0  0  0  0  0
    3.4743   -3.8812    6.0730 H   0  0  0  0  0  0  0  0  0  0  0  0
    1.8084   -3.6202    6.5325 H   0  0  0  0  0  0  0  0  0  0  0  0
    1.4878   -0.6252    5.3181 H   0  0  0  0  0  0  0  0  0  0  0  0
    0.4098   -1.9912    5.5739 H   0  0  0  0  0  0  0  0  0  0  0  0
    0.6321   -1.3792    3.9571 H   0  0  0  0  0  0  0  0  0  0  0  0
    5.1205   -0.2440    0.2109 H   0  0  0  0  0  0  0  0  0  0  0  0
    4.3137   -0.0369   -1.9584 H   0  0  0  0  0  0  0  0  0  0  0  0
    5.7971   -0.8530   -2.3003 H   0  0  0  0  0  0  0  0  0  0  0  0
    3.0111   -1.8925   -2.4488 H   0  0  0  0  0  0  0  0  0  0  0  0
    4.3467   -2.1077   -3.5592 H   0  0  0  0  0  0  0  0  0  0  0  0
    5.4450   -3.6739   -1.9674 H   0  0  0  0  0  0  0  0  0  0  0  0
    3.9474   -4.2248   -2.4883 H   0  0  0  0  0  0  0  0  0  0  0  0
    6.4554   -3.0438   -0.3619 H   0  0  0  0  0  0  0  0  0  0  0  0
    7.5616   -0.8474    0.9314 H   0  0  0  0  0  0  0  0  0  0  0  0
    6.0853   -0.5555    1.7946 H   0  0  0  0  0  0  0  0  0  0  0  0
  2  1  1  6
  1 26  1  0
  1 27  1  0
  1 28  1  0
 17  2  1  6
  2 21  1  0
  2  3  1  0
  3  4  2  0
  3 29  1  0
  4  5  1  0
  4 30  1  0
  5 24  1  0
  5  6  1  0
  5 31  1  1
  6 11  1  0
  6  7  1  0
  6 32  1  1
  7 16  1  0
  7  8  1  0
  7 33  1  6
  8  9  1  0
  9 10  1  0
  9 17  1  0
  9 34  1  6
 10 11  1  0
 10 35  1  0
 10 36  1  0
 11 12  1  1
 11 13  1  0
 12 37  1  0
 13 14  1  0
 13 15  1  0
 13 16  1  0
 14 38  1  0
 14 39  1  0
 14 40  1  0
 15 41  1  0
 15 42  1  0
 15 43  1  0
 17 24  1  0
 17 18  1  0
 18 19  1  0
 18 22  1  0
 18 44  1  1
 19 20  1  0
 19 45  1  0
 19 46  1  0
 20 21  1  0
 20 47  1  0
 20 48  1  0
 21 49  1  0
 21 50  1  0
 22 23  1  0
 22 24  1  0
 22 51  1  6
 23 52  1  0
 24 25  1  1
 25 53  1  0
M  END
>  <i_m_ct_stereo_status>  (255) 
1

>  <s_m_source_file>  (255) 
/var/tmp/pbs.5076255.sched01/tmpbzpkhbzu/844yn2io63.sdf

>  <i_m_source_file_index>  (255) 
27

>  <i_lp_mmshare_version>  (255) 
48012

>  <i_f3d_flags>  (255) 
0

>  <s_epik_input>  (255) 
W0NIMl0xW0NIMl1bQ0gyXVtDQEBIXTJbQ0BASF0oW09IXSlbQ0BdMyhbT0hdKVtDQEhdKFtDSF09W0NIXVtDQF0xKFtDQF0yMzQpW0NIM10pW0NAQEhdNVtDQEBIXTZPW0NASF00W0NIMl1bQ0BAXTUoW09IXSlDKE82KShbQ0gzXSlbQ0gzXQ==

>  <s_epik_cmdline>  (255) 
J2VwaWtfcHl0aG9uJywgJy1waHQnLCAnMi4wJywgJy1waCcsICc3LjAnLCAnLXRuJywgJzgnLCAnLW1hJywgJzIwMCcsICctaW1hZScsICc8aW5maWxlLm1hZT4nLCAnLW9tYWUnLCAnPG91dGZpbGUubWFlPic=

>  <r_lp_tautomer_probability>  (255) 
1

>  <r_epik_Ionization_Penalty>  (255) 
3.47383e-07

>  <r_epik_Ionization_Penalty_Charging>  (255) 
0

>  <r_epik_Ionization_Penalty_Neutral>  (255) 
3.47383e-07

>  <r_epik_State_Penalty>  (255) 
-0

>  <r_epik_Charging_Adjusted_Penalty>  (255) 
0

>  <i_epik_Tot_Q>  (255) 
0

>  <i_epik_Tot_abs_Q>  (255) 
0

>  <s_epik_Chemistry_Notes>  (255) 
This compound contains an acetal/aminal-like group ( X-CH(R)-Y where X, Y are N, S, or O) that may be acid/base labile, releasing an aldehyde.

>  <s_lp_Force_Field>  (255) 
OPLS3e

>  <r_lp_Energy>  (255) 
106.509

>  <b_lp_Chiralities_Consistent>  (255) 
1

>  <s_lp_Variant>  (255) 
78:0-1

>  <s_i_glide_gridfile>  (255) 
pfpi4k_grid

>  <i_i_glide_lignum>  (255) 
27

>  <i_i_glide_rotatable_bonds>  (255) 
3

>  <r_i_docking_score>  (255) 
-3.21954

>  <r_i_glide_ligand_efficiency>  (255) 
-0.128782

>  <r_i_glide_ligand_efficiency_sa>  (255) 
-0.376559

>  <r_i_glide_ligand_efficiency_ln>  (255) 
-0.763127

>  <r_i_glide_gscore>  (255) 
-3.21954

>  <r_i_glide_lipo>  (255) 
-0.245226

>  <r_i_glide_hbond>  (255) 
0

>  <r_i_glide_metal>  (255) 
-0

>  <r_i_glide_rewards>  (255) 
-1.53341

>  <r_i_glide_evdw>  (255) 
-20.8658

>  <r_i_glide_ecoul>  (255) 
-2.63989

>  <r_i_glide_erotb>  (255) 
0

>  <r_i_glide_esite>  (255) 
-0.00162801

>  <r_i_glide_emodel>  (255) 
-33.0541

>  <r_i_glide_energy>  (255) 
-23.5057

>  <r_i_glide_einternal>  (255) 
0.418207

>  <r_i_glide_intrahb_reward>  (255) 
-0.5

>  <i_i_glide_confnum>  (255) 
2

>  <i_i_glide_posenum>  (255) 
27

>  <r_i_glide_eff_state_penalty>  (255) 
0

>  <ligand_id>  (255) 
78

>  <original_smiles>  (255) 
CC12C=CC3C4C5OC(CC4(O)C(C)(C)O5)C14C(CCC2)C(O)C34O

>  <smiles>  (255) 
[H]OC1([H])C2([H])C([H])([H])C([H])([H])C([H])([H])C3(C([H])([H])[H])C([H])=C([H])C4([H])C5([H])C6([H])OC([H])(C([H])([H])C5(O[H])C(C([H])([H])[H])(C([H])([H])[H])O6)C23C14O[H]

$$$$
78:0:1
     RDKit          3D

 53 58  0  0  1  0  0  0  0  0999 V2000
    2.3436   -3.8947   -0.6051 C   0  0  0  0  0  0  0  0  0  0  0  0
    3.8479   -3.5361   -0.3832 C   0  0  2  0  0  0  0  0  0  0  0  0
    4.4894   -4.7706    0.2453 C   0  0  0  0  0  0  0  0  0  0  0  0
    5.1245   -4.7758    1.4437 C   0  0  0  0  0  0  0  0  0  0  0  0
    5.3000   -3.5327    2.2994 C   0  0  2  0  0  0  0  0  0  0  0  0
    4.1005   -3.3648    3.3313 C   0  0  2  0  0  0  0  0  0  0  0  0
    2.7069   -3.7895    2.8152 C   0  0  2  0  0  0  0  0  0  0  0  0
    2.2062   -2.9095    1.8305 O   0  0  0  0  0  0  0  0  0  0  0  0
    2.9561   -1.7699    1.4005 C   0  0  1  0  0  0  0  0  0  0  0  0
    3.2011   -1.0224    2.7375 C   0  0  0  0  0  0  0  0  0  0  0  0
    3.5878   -2.0134    3.9074 C   0  0  2  0  0  0  0  0  0  0  0  0
    4.4954   -1.4389    4.8283 O   0  0  0  0  0  0  0  0  0  0  0  0
    2.3424   -2.5524    4.7119 C   0  0  0  0  0  0  0  0  0  0  0  0
    2.6860   -3.1445    6.1066 C   0  0  0  0  0  0  0  0  0  0  0  0
    1.1491   -1.5893    4.9026 C   0  0  0  0  0  0  0  0  0  0  0  0
    1.8967   -3.6611    3.9340 O   0  0  0  0  0  0  0  0  0  0  0  0
    4.1929   -2.2110    0.5131 C   0  0  2  0  0  0  0  0  0  0  0  0
    5.0710   -1.2121   -0.2984 C   0  0  2  0  0  0  0  0  0  0  0  0
    4.8263   -0.9694   -1.7938 C   0  0  0  0  0  0  0  0  0  0  0  0
    4.0644   -2.0854   -2.5013 C   0  0  0  0  0  0  0  0  0  0  0  0
    4.3687   -3.4454   -1.8699 C   0  0  0  0  0  0  0  0  0  0  0  0
    6.2840   -2.1074    0.1323 C   0  0  1  0  0  0  0  0  0  0  0  0
    7.5520   -1.4750    0.1895 O   0  0  0  0  0  0  0  0  0  0  0  0
    5.4724   -2.3143    1.4143 C   0  0  2  0  0  0  0  0  0  0  0  0
    5.9144   -1.3126    2.3008 O   0  0  0  0  0  0  0  0  0  0  0  0
    1.7212   -3.0333   -0.7782 H   0  0  0  0  0  0  0  0  0  0  0  0
    1.9323   -4.4705    0.2254 H   0  0  0  0  0  0  0  0  0  0  0  0
    2.1569   -4.5499   -1.4554 H   0  0  0  0  0  0  0  0  0  0  0  0
    4.4089   -5.6905   -0.3172 H   0  0  0  0  0  0  0  0  0  0  0  0
    5.5408   -5.6768    1.8545 H   0  0  0  0  0  0  0  0  0  0  0  0
    6.2083   -3.6670    2.8622 H   0  0  0  0  0  0  0  0  0  0  0  0
    4.3507   -4.0467    4.1471 H   0  0  0  0  0  0  0  0  0  0  0  0
    2.6661   -4.8268    2.4717 H   0  0  0  0  0  0  0  0  0  0  0  0
    2.2967   -1.1525    0.7972 H   0  0  0  0  0  0  0  0  0  0  0  0
    3.8956   -0.1974    2.6207 H   0  0  0  0  0  0  0  0  0  0  0  0
    2.2914   -0.4829    2.9702 H   0  0  0  0  0  0  0  0  0  0  0  0
    4.1479   -0.5977    5.1027 H   0  0  0  0  0  0  0  0  0  0  0  0
    2.9986   -2.3661    6.8042 H   0  0  0  0  0  0  0  0  0  0  0  0
    3.4807   -3.8887    6.0717 H   0  0  0  0  0  0  0  0  0  0  0  0
    1.8129   -3.6397    6.5395 H   0  0  0  0  0  0  0  0  0  0  0  0
    1.4795   -0.6367    5.3259 H   0  0  0  0  0  0  0  0  0  0  0  0
    0.4091   -2.0072    5.5837 H   0  0  0  0  0  0  0  0  0  0  0  0
    0.6239   -1.3925    3.9650 H   0  0  0  0  0  0  0  0  0  0  0  0
    5.1048   -0.2413    0.2023 H   0  0  0  0  0  0  0  0  0  0  0  0
    4.2900   -0.0360   -1.9595 H   0  0  0  0  0  0  0  0  0  0  0  0
    5.7804   -0.8433   -2.3050 H   0  0  0  0  0  0  0  0  0  0  0  0
    2.9903   -1.8929   -2.4483 H   0  0  0  0  0  0  0  0  0  0  0  0
    4.3227   -2.1039   -3.5648 H   0  0  0  0  0  0  0  0  0  0  0  0
    5.4281   -3.6700   -1.9807 H   0  0  0  0  0  0  0  0  0  0  0  0
    3.9302   -4.2233   -2.4946 H   0  0  0  0  0  0  0  0  0  0  0  0
    6.4430   -3.0468   -0.3788 H   0  0  0  0  0  0  0  0  0  0  0  0
    7.5670   -0.8842    0.9287 H   0  0  0  0  0  0  0  0  0  0  0  0
    6.0947   -0.5506    1.7676 H   0  0  0  0  0  0  0  0  0  0  0  0
  2  1  1  6
  1 26  1  0
  1 27  1  0
  1 28  1  0
 17  2  1  6
  2 21  1  0
  2  3  1  0
  3  4  2  0
  3 29  1  0
  4  5  1  0
  4 30  1  0
  5 24  1  0
  5  6  1  0
  5 31  1  1
  6 11  1  0
  6  7  1  0
  6 32  1  1
  7 16  1  0
  7  8  1  0
  7 33  1  6
  8  9  1  0
  9 10  1  0
  9 17  1  0
  9 34  1  6
 10 11  1  0
 10 35  1  0
 10 36  1  0
 11 12  1  1
 11 13  1  0
 12 37  1  0
 13 14  1  0
 13 15  1  0
 13 16  1  0
 14 38  1  0
 14 39  1  0
 14 40  1  0
 15 41  1  0
 15 42  1  0
 15 43  1  0
 17 24  1  0
 17 18  1  0
 18 19  1  0
 18 22  1  0
 18 44  1  1
 19 20  1  0
 19 45  1  0
 19 46  1  0
 20 21  1  0
 20 47  1  0
 20 48  1  0
 21 49  1  0
 21 50  1  0
 22 23  1  0
 22 24  1  0
 22 51  1  6
 23 52  1  0
 24 25  1  1
 25 53  1  0
M  END
>  <i_m_ct_stereo_status>  (256) 
1

>  <s_m_source_file>  (256) 
/var/tmp/pbs.5076255.sched01/tmpbzpkhbzu/844yn2io63.sdf

>  <i_m_source_file_index>  (256) 
27

>  <i_lp_mmshare_version>  (256) 
48012

>  <i_f3d_flags>  (256) 
0

>  <s_epik_input>  (256) 
W0NIMl0xW0NIMl1bQ0gyXVtDQEBIXTJbQ0BASF0oW09IXSlbQ0BdMyhbT0hdKVtDQEhdKFtDSF09W0NIXVtDQF0xKFtDQF0yMzQpW0NIM10pW0NAQEhdNVtDQEBIXTZPW0NASF00W0NIMl1bQ0BAXTUoW09IXSlDKE82KShbQ0gzXSlbQ0gzXQ==

>  <s_epik_cmdline>  (256) 
J2VwaWtfcHl0aG9uJywgJy1waHQnLCAnMi4wJywgJy1waCcsICc3LjAnLCAnLXRuJywgJzgnLCAnLW1hJywgJzIwMCcsICctaW1hZScsICc8aW5maWxlLm1hZT4nLCAnLW9tYWUnLCAnPG91dGZpbGUubWFlPic=

>  <r_lp_tautomer_probability>  (256) 
1

>  <r_epik_Ionization_Penalty>  (256) 
3.47383e-07

>  <r_epik_Ionization_Penalty_Charging>  (256) 
0

>  <r_epik_Ionization_Penalty_Neutral>  (256) 
3.47383e-07

>  <r_epik_State_Penalty>  (256) 
-0

>  <r_epik_Charging_Adjusted_Penalty>  (256) 
0

>  <i_epik_Tot_Q>  (256) 
0

>  <i_epik_Tot_abs_Q>  (256) 
0

>  <s_epik_Chemistry_Notes>  (256) 
This compound contains an acetal/aminal-like group ( X-CH(R)-Y where X, Y are N, S, or O) that may be acid/base labile, releasing an aldehyde.

>  <s_lp_Force_Field>  (256) 
OPLS3e

>  <r_lp_Energy>  (256) 
106.509

>  <b_lp_Chiralities_Consistent>  (256) 
1

>  <s_lp_Variant>  (256) 
78:0-1

>  <s_i_glide_gridfile>  (256) 
pfpi4k_grid

>  <i_i_glide_lignum>  (256) 
27

>  <i_i_glide_rotatable_bonds>  (256) 
3

>  <r_i_docking_score>  (256) 
-2.731

>  <r_i_glide_ligand_efficiency>  (256) 
-0.10924

>  <r_i_glide_ligand_efficiency_sa>  (256) 
-0.319419

>  <r_i_glide_ligand_efficiency_ln>  (256) 
-0.647328

>  <r_i_glide_gscore>  (256) 
-2.731

>  <r_i_glide_lipo>  (256) 
-0.23578

>  <r_i_glide_hbond>  (256) 
0

>  <r_i_glide_metal>  (256) 
-0

>  <r_i_glide_rewards>  (256) 
-1.03341

>  <r_i_glide_evdw>  (256) 
-20.8089

>  <r_i_glide_ecoul>  (256) 
-2.79825

>  <r_i_glide_erotb>  (256) 
0

>  <r_i_glide_esite>  (256) 
-0.00162746

>  <r_i_glide_emodel>  (256) 
-27.2384

>  <r_i_glide_energy>  (256) 
-23.6071

>  <r_i_glide_einternal>  (256) 
0.546527

>  <r_i_glide_intrahb_reward>  (256) 
-0

>  <i_i_glide_confnum>  (256) 
2

>  <i_i_glide_posenum>  (256) 
10

>  <r_i_glide_eff_state_penalty>  (256) 
0

>  <ligand_id>  (256) 
78

>  <original_smiles>  (256) 
CC12C=CC3C4C5OC(CC4(O)C(C)(C)O5)C14C(CCC2)C(O)C34O

>  <smiles>  (256) 
[H]OC1([H])C2([H])C([H])([H])C([H])([H])C([H])([H])C3(C([H])([H])[H])C([H])=C([H])C4([H])C5([H])C6([H])OC([H])(C([H])([H])C5(O[H])C(C([H])([H])[H])(C([H])([H])[H])O6)C23C14O[H]

$$$$
78:0:2
     RDKit          3D

 53 58  0  0  1  0  0  0  0  0999 V2000
    2.3026   -3.9026   -0.6324 C   0  0  0  0  0  0  0  0  0  0  0  0
    3.8075   -3.5407   -0.4258 C   0  0  2  0  0  0  0  0  0  0  0  0
    4.4667   -4.7825    0.1783 C   0  0  0  0  0  0  0  0  0  0  0  0
    5.1096   -4.8109    1.3609 C   0  0  0  0  0  0  0  0  0  0  0  0
    5.2924   -3.5841    2.2447 C   0  0  2  0  0  0  0  0  0  0  0  0
    4.1017   -3.4502    3.2917 C   0  0  2  0  0  0  0  0  0  0  0  0
    2.7075   -3.8657    2.7864 C   0  0  2  0  0  0  0  0  0  0  0  0
    2.1961   -2.9721    1.8265 O   0  0  0  0  0  0  0  0  0  0  0  0
    2.9297   -1.8176    1.4143 C   0  0  1  0  0  0  0  0  0  0  0  0
    3.1860   -1.1016    2.7717 C   0  0  0  0  0  0  0  0  0  0  0  0
    3.5890   -2.1185    3.9116 C   0  0  2  0  0  0  0  0  0  0  0  0
    4.4921   -1.5292    4.8285 O   0  0  0  0  0  0  0  0  0  0  0  0
    2.3574   -2.6794    4.7205 C   0  0  0  0  0  0  0  0  0  0  0  0
    2.7199   -3.3061    6.0935 C   0  0  0  0  0  0  0  0  0  0  0  0
    1.1606   -1.7280    4.9440 C   0  0  0  0  0  0  0  0  0  0  0  0
    1.9126   -3.7719    3.9213 O   0  0  0  0  0  0  0  0  0  0  0  0
    4.1537   -2.2340    0.4996 C   0  0  2  0  0  0  0  0  0  0  0  0
    5.0201   -1.2128   -0.2984 C   0  0  2  0  0  0  0  0  0  0  0  0
    4.7624   -0.9335   -1.7854 C   0  0  0  0  0  0  0  0  0  0  0  0
    3.9968   -2.0380   -2.5059 C   0  0  0  0  0  0  0  0  0  0  0  0
    4.3120   -3.4072   -1.9095 C   0  0  0  0  0  0  0  0  0  0  0  0
    6.2426   -2.1065    0.1002 C   0  0  1  0  0  0  0  0  0  0  0  0
    7.5048   -1.4662    0.1726 O   0  0  0  0  0  0  0  0  0  0  0  0
    5.4463   -2.3477    1.3817 C   0  0  2  0  0  0  0  0  0  0  0  0
    5.9004   -1.3631    2.2879 O   0  0  0  0  0  0  0  0  0  0  0  0
    1.6687   -3.0416   -0.7821 H   0  0  0  0  0  0  0  0  0  0  0  0
    1.9006   -4.4998    0.1843 H   0  0  0  0  0  0  0  0  0  0  0  0
    2.1101   -4.5301   -1.4975 H   0  0  0  0  0  0  0  0  0  0  0  0
    4.3805   -5.6920   -0.4068 H   0  0  0  0  0  0  0  0  0  0  0  0
    5.5380   -5.7258    1.7422 H   0  0  0  0  0  0  0  0  0  0  0  0
    6.2160   -3.7347    2.7956 H   0  0  0  0  0  0  0  0  0  0  0  0
    4.3526   -4.1593    4.0792 H   0  0  0  0  0  0  0  0  0  0  0  0
    2.6491   -4.8899    2.4141 H   0  0  0  0  0  0  0  0  0  0  0  0
    2.2583   -1.1836    0.8405 H   0  0  0  0  0  0  0  0  0  0  0  0
    3.8781   -0.2707    2.6683 H   0  0  0  0  0  0  0  0  0  0  0  0
    2.2780   -0.5706    3.0341 H   0  0  0  0  0  0  0  0  0  0  0  0
    4.7611   -2.1949    5.4513 H   0  0  0  0  0  0  0  0  0  0  0  0
    3.0314   -2.5482    6.8131 H   0  0  0  0  0  0  0  0  0  0  0  0
    3.5099   -4.0526    6.0341 H   0  0  0  0  0  0  0  0  0  0  0  0
    1.8547   -3.8151    6.5213 H   0  0  0  0  0  0  0  0  0  0  0  0
    1.4883   -0.7833    5.3824 H   0  0  0  0  0  0  0  0  0  0  0  0
    0.4276   -2.1626    5.6219 H   0  0  0  0  0  0  0  0  0  0  0  0
    0.6252   -1.5155    4.0182 H   0  0  0  0  0  0  0  0  0  0  0  0
    5.0583   -0.2566    0.2265 H   0  0  0  0  0  0  0  0  0  0  0  0
    4.2297    0.0060   -1.9230 H   0  0  0  0  0  0  0  0  0  0  0  0
    5.7162   -0.7918   -2.2946 H   0  0  0  0  0  0  0  0  0  0  0  0
    2.9230   -1.8472   -2.4397 H   0  0  0  0  0  0  0  0  0  0  0  0
    4.2462   -2.0262   -3.5693 H   0  0  0  0  0  0  0  0  0  0  0  0
    5.3701   -3.6263   -2.0365 H   0  0  0  0  0  0  0  0  0  0  0  0
    3.8678   -4.1652   -2.5486 H   0  0  0  0  0  0  0  0  0  0  0  0
    6.3975   -3.0318   -0.4349 H   0  0  0  0  0  0  0  0  0  0  0  0
    7.4987   -0.8845    0.9208 H   0  0  0  0  0  0  0  0  0  0  0  0
    5.9626   -0.5592    1.7959 H   0  0  0  0  0  0  0  0  0  0  0  0
  2  1  1  6
  1 26  1  0
  1 27  1  0
  1 28  1  0
 17  2  1  6
  2 21  1  0
  2  3  1  0
  3  4  2  0
  3 29  1  0
  4  5  1  0
  4 30  1  0
  5 24  1  0
  5  6  1  0
  5 31  1  1
  6 11  1  0
  6  7  1  0
  6 32  1  1
  7 16  1  0
  7  8  1  0
  7 33  1  6
  8  9  1  0
  9 10  1  0
  9 17  1  0
  9 34  1  6
 10 11  1  0
 10 35  1  0
 10 36  1  0
 11 12  1  1
 11 13  1  0
 12 37  1  0
 13 14  1  0
 13 15  1  0
 13 16  1  0
 14 38  1  0
 14 39  1  0
 14 40  1  0
 15 41  1  0
 15 42  1  0
 15 43  1  0
 17 24  1  0
 17 18  1  0
 18 19  1  0
 18 22  1  0
 18 44  1  1
 19 20  1  0
 19 45  1  0
 19 46  1  0
 20 21  1  0
 20 47  1  0
 20 48  1  0
 21 49  1  0
 21 50  1  0
 22 23  1  0
 22 24  1  0
 22 51  1  6
 23 52  1  0
 24 25  1  1
 25 53  1  0
M  END
>  <i_m_ct_stereo_status>  (257) 
1

>  <s_m_source_file>  (257) 
/var/tmp/pbs.5076255.sched01/tmpbzpkhbzu/844yn2io63.sdf

>  <i_m_source_file_index>  (257) 
27

>  <i_lp_mmshare_version>  (257) 
48012

>  <i_f3d_flags>  (257) 
0

>  <s_epik_input>  (257) 
W0NIMl0xW0NIMl1bQ0gyXVtDQEBIXTJbQ0BASF0oW09IXSlbQ0BdMyhbT0hdKVtDQEhdKFtDSF09W0NIXVtDQF0xKFtDQF0yMzQpW0NIM10pW0NAQEhdNVtDQEBIXTZPW0NASF00W0NIMl1bQ0BAXTUoW09IXSlDKE82KShbQ0gzXSlbQ0gzXQ==

>  <s_epik_cmdline>  (257) 
J2VwaWtfcHl0aG9uJywgJy1waHQnLCAnMi4wJywgJy1waCcsICc3LjAnLCAnLXRuJywgJzgnLCAnLW1hJywgJzIwMCcsICctaW1hZScsICc8aW5maWxlLm1hZT4nLCAnLW9tYWUnLCAnPG91dGZpbGUubWFlPic=

>  <r_lp_tautomer_probability>  (257) 
1

>  <r_epik_Ionization_Penalty>  (257) 
3.47383e-07

>  <r_epik_Ionization_Penalty_Charging>  (257) 
0

>  <r_epik_Ionization_Penalty_Neutral>  (257) 
3.47383e-07

>  <r_epik_State_Penalty>  (257) 
-0

>  <r_epik_Charging_Adjusted_Penalty>  (257) 
0

>  <i_epik_Tot_Q>  (257) 
0

>  <i_epik_Tot_abs_Q>  (257) 
0

>  <s_epik_Chemistry_Notes>  (257) 
This compound contains an acetal/aminal-like group ( X-CH(R)-Y where X, Y are N, S, or O) that may be acid/base labile, releasing an aldehyde.

>  <s_lp_Force_Field>  (257) 
OPLS3e

>  <r_lp_Energy>  (257) 
106.509

>  <b_lp_Chiralities_Consistent>  (257) 
1

>  <s_lp_Variant>  (257) 
78:0-1

>  <s_i_glide_gridfile>  (257) 
pfpi4k_grid

>  <i_i_glide_lignum>  (257) 
27

>  <i_i_glide_rotatable_bonds>  (257) 
3

>  <r_i_docking_score>  (257) 
-2.64962

>  <r_i_glide_ligand_efficiency>  (257) 
-0.105985

>  <r_i_glide_ligand_efficiency_sa>  (257) 
-0.309901

>  <r_i_glide_ligand_efficiency_ln>  (257) 
-0.628039

>  <r_i_glide_gscore>  (257) 
-2.64962

>  <r_i_glide_lipo>  (257) 
-0.199778

>  <r_i_glide_hbond>  (257) 
0

>  <r_i_glide_metal>  (257) 
-0

>  <r_i_glide_rewards>  (257) 
-1.03341

>  <r_i_glide_evdw>  (257) 
-20.8135

>  <r_i_glide_ecoul>  (257) 
-2.49261

>  <r_i_glide_erotb>  (257) 
0

>  <r_i_glide_esite>  (257) 
-0.00186555

>  <r_i_glide_emodel>  (257) 
-27.0181

>  <r_i_glide_energy>  (257) 
-23.3061

>  <r_i_glide_einternal>  (257) 
0.308888

>  <r_i_glide_intrahb_reward>  (257) 
-0

>  <i_i_glide_confnum>  (257) 
2

>  <i_i_glide_posenum>  (257) 
1

>  <r_i_glide_eff_state_penalty>  (257) 
0

>  <ligand_id>  (257) 
78

>  <original_smiles>  (257) 
CC12C=CC3C4C5OC(CC4(O)C(C)(C)O5)C14C(CCC2)C(O)C34O

>  <smiles>  (257) 
[H]OC1([H])C2([H])C([H])([H])C([H])([H])C([H])([H])C3(C([H])([H])[H])C([H])=C([H])C4([H])C5([H])C6([H])OC([H])(C([H])([H])C5(O[H])C(C([H])([H])[H])(C([H])([H])[H])O6)C23C14O[H]

$$$$
79:0:0
     RDKit          3D

 46 49  0  0  1  0  0  0  0  0999 V2000
    5.8138   -2.8624   -1.8929 C   0  0  0  0  0  0  0  0  0  0  0  0
    4.3385   -2.3955   -1.9140 C   0  0  2  0  0  0  0  0  0  0  0  0
    4.1541   -1.0597   -1.1893 C   0  0  0  0  0  0  0  0  0  0  0  0
    4.3930   -1.1618    0.3181 C   0  0  0  0  0  0  0  0  0  0  0  0
    4.9200   -0.2237    0.9096 O   0  0  0  0  0  0  0  0  0  0  0  0
    4.0083   -2.4818    1.0294 C   0  0  2  0  0  0  0  0  0  0  0  0
    3.0082   -3.3072    0.1815 C   0  0  2  0  0  0  0  0  0  0  0  0
    2.8182   -4.7109    0.7906 C   0  0  0  0  0  0  0  0  0  0  0  0
    2.6148   -4.6779    2.2840 C   0  0  0  0  0  0  0  0  0  0  0  0
    2.9452   -3.6394    3.0740 C   0  0  0  0  0  0  0  0  0  0  0  0
    2.5538   -3.6511    4.5450 C   0  0  0  0  0  0  0  0  0  0  0  0
    1.6074   -2.4834    4.8005 C   0  0  0  0  0  0  0  0  0  0  0  0
    0.5484   -2.6242    5.4151 O   0  0  0  0  0  0  0  0  0  0  0  0
    2.0533   -1.1201    4.2713 C   0  0  0  0  0  0  0  0  0  0  0  0
    2.5708   -1.1990    2.8137 C   0  0  0  0  0  0  0  0  0  0  0  0
    3.6010   -2.3455    2.5543 C   0  0  2  0  0  0  0  0  0  0  0  0
    4.8958   -2.0891    3.3746 C   0  0  0  0  0  0  0  0  0  0  0  0
    3.3748   -3.4525   -1.3319 C   0  0  1  0  0  0  0  0  0  0  0  0
    2.1206   -3.4212   -2.2422 C   0  0  0  0  0  0  0  0  0  0  0  0
    2.6065   -3.0531   -3.6424 C   0  0  0  0  0  0  0  0  0  0  0  0
    3.8497   -2.2499   -3.3608 C   0  0  0  0  0  0  0  0  0  0  0  0
    4.3866   -1.5385   -4.2083 O   0  0  0  0  0  0  0  0  0  0  0  0
    6.1393   -3.1694   -0.8993 H   0  0  0  0  0  0  0  0  0  0  0  0
    6.4894   -2.0751   -2.2237 H   0  0  0  0  0  0  0  0  0  0  0  0
    5.9696   -3.7124   -2.5542 H   0  0  0  0  0  0  0  0  0  0  0  0
    4.8255   -0.3028   -1.5985 H   0  0  0  0  0  0  0  0  0  0  0  0
    3.1376   -0.6980   -1.3577 H   0  0  0  0  0  0  0  0  0  0  0  0
    4.9325   -3.0587    1.0284 H   0  0  0  0  0  0  0  0  0  0  0  0
    2.0581   -2.7720    0.2561 H   0  0  0  0  0  0  0  0  0  0  0  0
    1.9538   -5.1913    0.3305 H   0  0  0  0  0  0  0  0  0  0  0  0
    3.6867   -5.3436    0.5971 H   0  0  0  0  0  0  0  0  0  0  0  0
    2.1518   -5.5534    2.7099 H   0  0  0  0  0  0  0  0  0  0  0  0
    2.0629   -4.5882    4.8073 H   0  0  0  0  0  0  0  0  0  0  0  0
    3.4270   -3.5619    5.1881 H   0  0  0  0  0  0  0  0  0  0  0  0
    1.2248   -0.4149    4.3431 H   0  0  0  0  0  0  0  0  0  0  0  0
    2.8353   -0.7446    4.9319 H   0  0  0  0  0  0  0  0  0  0  0  0
    1.7083   -1.3365    2.1610 H   0  0  0  0  0  0  0  0  0  0  0  0
    2.9832   -0.2209    2.5603 H   0  0  0  0  0  0  0  0  0  0  0  0
    5.4095   -1.1746    3.0857 H   0  0  0  0  0  0  0  0  0  0  0  0
    5.6035   -2.9088    3.2448 H   0  0  0  0  0  0  0  0  0  0  0  0
    4.7158   -1.9934    4.4444 H   0  0  0  0  0  0  0  0  0  0  0  0
    3.8906   -4.4060   -1.4770 H   0  0  0  0  0  0  0  0  0  0  0  0
    1.5509   -4.3499   -2.2288 H   0  0  0  0  0  0  0  0  0  0  0  0
    1.4204   -2.6591   -1.9248 H   0  0  0  0  0  0  0  0  0  0  0  0
    2.8683   -3.9294   -4.2293 H   0  0  0  0  0  0  0  0  0  0  0  0
    1.8784   -2.4627   -4.2010 H   0  0  0  0  0  0  0  0  0  0  0  0
  2  1  1  6
  1 23  1  0
  1 24  1  0
  1 25  1  0
  2 18  1  0
  2 21  1  0
  2  3  1  0
  3  4  1  0
  3 26  1  0
  3 27  1  0
  4  5  2  0
  4  6  1  0
  6 16  1  0
  6  7  1  0
  6 28  1  1
  7  8  1  0
  7 18  1  0
  7 29  1  6
  8  9  1  0
  8 30  1  0
  8 31  1  0
  9 10  2  0
  9 32  1  0
 10 16  1  0
 10 11  1  0
 11 12  1  0
 11 33  1  0
 11 34  1  0
 12 13  2  0
 12 14  1  0
 14 15  1  0
 14 35  1  0
 14 36  1  0
 15 16  1  0
 15 37  1  0
 15 38  1  0
 16 17  1  1
 17 39  1  0
 17 40  1  0
 17 41  1  0
 18 19  1  0
 18 42  1  1
 19 20  1  0
 19 43  1  0
 19 44  1  0
 20 21  1  0
 20 45  1  0
 20 46  1  0
 21 22  2  0
M  END
>  <i_m_ct_stereo_status>  (258) 
1

>  <s_m_source_file>  (258) 
/var/tmp/pbs.5076255.sched01/tmpbzpkhbzu/844yn2io63.sdf

>  <i_m_source_file_index>  (258) 
28

>  <i_lp_mmshare_version>  (258) 
48012

>  <i_f3d_flags>  (258) 
0

>  <s_epik_input>  (258) 
Tz1DMVtDSDJdW0NIMl1bQ0BASF0oW0NAQF0xMltDSDNdKVtDQEBIXTNbQ0BASF0oQyg9TylbQ0gyXTIpW0NAXTQoW0NIM10pQyg9W0NIXVtDSDJdMylbQ0gyXUMoPU8pW0NIMl1bQ0gyXTQ=

>  <s_epik_cmdline>  (258) 
J2VwaWtfcHl0aG9uJywgJy1waHQnLCAnMi4wJywgJy1waCcsICc3LjAnLCAnLXRuJywgJzgnLCAnLW1hJywgJzIwMCcsICctaW1hZScsICc8aW5maWxlLm1hZT4nLCAnLW9tYWUnLCAnPG91dGZpbGUubWFlPic=

>  <r_lp_tautomer_probability>  (258) 
1

>  <r_epik_Ionization_Penalty>  (258) 
9.17882e-13

>  <r_epik_Ionization_Penalty_Charging>  (258) 
0

>  <r_epik_Ionization_Penalty_Neutral>  (258) 
9.17882e-13

>  <r_epik_State_Penalty>  (258) 
-0

>  <r_epik_Charging_Adjusted_Penalty>  (258) 
0

>  <i_epik_Tot_Q>  (258) 
0

>  <i_epik_Tot_abs_Q>  (258) 
0

>  <s_lp_Force_Field>  (258) 
OPLS3e

>  <r_lp_Energy>  (258) 
22.6124

>  <b_lp_Chiralities_Consistent>  (258) 
1

>  <s_lp_Variant>  (258) 
79:0-1

>  <s_i_glide_gridfile>  (258) 
pfpi4k_grid

>  <i_i_glide_lignum>  (258) 
28

>  <i_i_glide_rotatable_bonds>  (258) 
0

>  <r_i_docking_score>  (258) 
-4.36809

>  <r_i_glide_ligand_efficiency>  (258) 
-0.19855

>  <r_i_glide_ligand_efficiency_sa>  (258) 
-0.556344

>  <r_i_glide_ligand_efficiency_ln>  (258) 
-1.06772

>  <r_i_glide_gscore>  (258) 
-4.36809

>  <r_i_glide_lipo>  (258) 
-0.641297

>  <r_i_glide_hbond>  (258) 
-0.243269

>  <r_i_glide_metal>  (258) 
-0

>  <r_i_glide_rewards>  (258) 
-1.59953

>  <r_i_glide_evdw>  (258) 
-26.1249

>  <r_i_glide_ecoul>  (258) 
-3.82679

>  <r_i_glide_erotb>  (258) 
0

>  <r_i_glide_esite>  (258) 
-0.00373251

>  <r_i_glide_emodel>  (258) 
-38.1211

>  <r_i_glide_energy>  (258) 
-29.9517

>  <r_i_glide_einternal>  (258) 
0

>  <r_i_glide_intrahb_reward>  (258) 
-0

>  <i_i_glide_confnum>  (258) 
2

>  <i_i_glide_posenum>  (258) 
32

>  <r_i_glide_eff_state_penalty>  (258) 
0

>  <ligand_id>  (258) 
79

>  <original_smiles>  (258) 
CC12CC(=O)C3C(CC=C4CC(=O)CCC43C)C1CCC2=O

>  <smiles>  (258) 
[H]C1=C2C([H])([H])C(=O)C([H])([H])C([H])([H])C2(C([H])([H])[H])C2([H])C(=O)C([H])([H])C3(C([H])([H])[H])C(=O)C([H])([H])C([H])([H])C3([H])C2([H])C1([H])[H]

$$$$
79:0:1
     RDKit          3D

 46 49  0  0  1  0  0  0  0  0999 V2000
    5.8263   -2.4662   -1.8678 C   0  0  0  0  0  0  0  0  0  0  0  0
    4.3164   -2.1544   -1.7942 C   0  0  2  0  0  0  0  0  0  0  0  0
    4.0211   -1.0580   -0.7657 C   0  0  0  0  0  0  0  0  0  0  0  0
    4.2824   -1.4954    0.6747 C   0  0  0  0  0  0  0  0  0  0  0  0
    4.7066   -0.6740    1.4837 O   0  0  0  0  0  0  0  0  0  0  0  0
    4.0461   -2.9851    1.0382 C   0  0  2  0  0  0  0  0  0  0  0  0
    3.1206   -3.6765    0.0020 C   0  0  2  0  0  0  0  0  0  0  0  0
    3.0829   -5.1976    0.2555 C   0  0  0  0  0  0  0  0  0  0  0  0
    2.9015   -5.5542    1.7046 C   0  0  0  0  0  0  0  0  0  0  0  0
    3.1392   -4.7175    2.7281 C   0  0  0  0  0  0  0  0  0  0  0  0
    2.7766   -5.1279    4.1469 C   0  0  0  0  0  0  0  0  0  0  0  0
    1.7192   -4.1596    4.6663 C   0  0  0  0  0  0  0  0  0  0  0  0
    0.6886   -4.5503    5.2125 O   0  0  0  0  0  0  0  0  0  0  0  0
    2.0152   -2.6701    4.4934 C   0  0  0  0  0  0  0  0  0  0  0  0
    2.5134   -2.3382    3.0671 C   0  0  0  0  0  0  0  0  0  0  0  0
    3.6515   -3.2719    2.5459 C   0  0  2  0  0  0  0  0  0  0  0  0
    4.9281   -3.0945    3.4146 C   0  0  0  0  0  0  0  0  0  0  0  0
    3.4747   -3.4150   -1.5001 C   0  0  1  0  0  0  0  0  0  0  0  0
    2.2135   -3.2877   -2.3896 C   0  0  0  0  0  0  0  0  0  0  0  0
    2.6281   -2.5510   -3.6491 C   0  0  0  0  0  0  0  0  0  0  0  0
    3.7912   -1.7238   -3.1720 C   0  0  0  0  0  0  0  0  0  0  0  0
    4.2542   -0.8084   -3.8467 O   0  0  0  0  0  0  0  0  0  0  0  0
    6.1955   -2.9758   -0.9774 H   0  0  0  0  0  0  0  0  0  0  0  0
    6.4007   -1.5483   -1.9699 H   0  0  0  0  0  0  0  0  0  0  0  0
    6.0651   -3.0997   -2.7215 H   0  0  0  0  0  0  0  0  0  0  0  0
    4.6173   -0.1666   -0.9715 H   0  0  0  0  0  0  0  0  0  0  0  0
    2.9765   -0.7615   -0.8422 H   0  0  0  0  0  0  0  0  0  0  0  0
    5.0215   -3.4488    0.9031 H   0  0  0  0  0  0  0  0  0  0  0  0
    2.1220   -3.2797    0.1909 H   0  0  0  0  0  0  0  0  0  0  0  0
    2.2623   -5.6376   -0.3136 H   0  0  0  0  0  0  0  0  0  0  0  0
    4.0030   -5.6745   -0.0850 H   0  0  0  0  0  0  0  0  0  0  0  0
    2.5383   -6.5532    1.8964 H   0  0  0  0  0  0  0  0  0  0  0  0
    2.3855   -6.1465    4.1669 H   0  0  0  0  0  0  0  0  0  0  0  0
    3.6470   -5.1088    4.8010 H   0  0  0  0  0  0  0  0  0  0  0  0
    1.1202   -2.0953    4.7287 H   0  0  0  0  0  0  0  0  0  0  0  0
    2.7647   -2.3893    5.2340 H   0  0  0  0  0  0  0  0  0  0  0  0
    1.6596   -2.4033    2.3933 H   0  0  0  0  0  0  0  0  0  0  0  0
    2.8197   -1.2913    3.0630 H   0  0  0  0  0  0  0  0  0  0  0  0
    5.3393   -2.0894    3.3599 H   0  0  0  0  0  0  0  0  0  0  0  0
    5.7113   -3.7810    3.0940 H   0  0  0  0  0  0  0  0  0  0  0  0
    4.7556   -3.2821    4.4722 H   0  0  0  0  0  0  0  0  0  0  0  0
    4.0744   -4.2514   -1.8750 H   0  0  0  0  0  0  0  0  0  0  0  0
    1.8076   -4.2558   -2.6426 H   0  0  0  0  0  0  0  0  0  0  0  0
    1.4233   -2.7103   -1.9177 H   0  0  0  0  0  0  0  0  0  0  0  0
    2.9767   -3.2279   -4.4288 H   0  0  0  0  0  0  0  0  0  0  0  0
    1.8395   -1.9190   -4.0634 H   0  0  0  0  0  0  0  0  0  0  0  0
  2  1  1  6
  1 23  1  0
  1 24  1  0
  1 25  1  0
  2 18  1  0
  2 21  1  0
  2  3  1  0
  3  4  1  0
  3 26  1  0
  3 27  1  0
  4  5  2  0
  4  6  1  0
  6 16  1  0
  6  7  1  0
  6 28  1  1
  7  8  1  0
  7 18  1  0
  7 29  1  6
  8  9  1  0
  8 30  1  0
  8 31  1  0
  9 10  2  0
  9 32  1  0
 10 16  1  0
 10 11  1  0
 11 12  1  0
 11 33  1  0
 11 34  1  0
 12 13  2  0
 12 14  1  0
 14 15  1  0
 14 35  1  0
 14 36  1  0
 15 16  1  0
 15 37  1  0
 15 38  1  0
 16 17  1  1
 17 39  1  0
 17 40  1  0
 17 41  1  0
 18 19  1  0
 18 42  1  6
 19 20  1  0
 19 43  1  0
 19 44  1  0
 20 21  1  0
 20 45  1  0
 20 46  1  0
 21 22  2  0
M  END
>  <i_m_ct_stereo_status>  (259) 
1

>  <s_m_source_file>  (259) 
/var/tmp/pbs.5076255.sched01/tmpbzpkhbzu/844yn2io63.sdf

>  <i_m_source_file_index>  (259) 
28

>  <i_lp_mmshare_version>  (259) 
48012

>  <i_f3d_flags>  (259) 
0

>  <s_epik_input>  (259) 
Tz1DMVtDSDJdW0NIMl1bQ0BASF0oW0NAQF0xMltDSDNdKVtDQEBIXTNbQ0BASF0oQyg9TylbQ0gyXTIpW0NAXTQoW0NIM10pQyg9W0NIXVtDSDJdMylbQ0gyXUMoPU8pW0NIMl1bQ0gyXTQ=

>  <s_epik_cmdline>  (259) 
J2VwaWtfcHl0aG9uJywgJy1waHQnLCAnMi4wJywgJy1waCcsICc3LjAnLCAnLXRuJywgJzgnLCAnLW1hJywgJzIwMCcsICctaW1hZScsICc8aW5maWxlLm1hZT4nLCAnLW9tYWUnLCAnPG91dGZpbGUubWFlPic=

>  <r_lp_tautomer_probability>  (259) 
1

>  <r_epik_Ionization_Penalty>  (259) 
9.17882e-13

>  <r_epik_Ionization_Penalty_Charging>  (259) 
0

>  <r_epik_Ionization_Penalty_Neutral>  (259) 
9.17882e-13

>  <r_epik_State_Penalty>  (259) 
-0

>  <r_epik_Charging_Adjusted_Penalty>  (259) 
0

>  <i_epik_Tot_Q>  (259) 
0

>  <i_epik_Tot_abs_Q>  (259) 
0

>  <s_lp_Force_Field>  (259) 
OPLS3e

>  <r_lp_Energy>  (259) 
22.6124

>  <b_lp_Chiralities_Consistent>  (259) 
1

>  <s_lp_Variant>  (259) 
79:0-1

>  <s_i_glide_gridfile>  (259) 
pfpi4k_grid

>  <i_i_glide_lignum>  (259) 
28

>  <i_i_glide_rotatable_bonds>  (259) 
0

>  <r_i_docking_score>  (259) 
-3.73809

>  <r_i_glide_ligand_efficiency>  (259) 
-0.169913

>  <r_i_glide_ligand_efficiency_sa>  (259) 
-0.476103

>  <r_i_glide_ligand_efficiency_ln>  (259) 
-0.913725

>  <r_i_glide_gscore>  (259) 
-3.73809

>  <r_i_glide_lipo>  (259) 
-0.56958

>  <r_i_glide_hbond>  (259) 
0

>  <r_i_glide_metal>  (259) 
-0

>  <r_i_glide_rewards>  (259) 
-1.48216

>  <r_i_glide_evdw>  (259) 
-25.7288

>  <r_i_glide_ecoul>  (259) 
-2.58698

>  <r_i_glide_erotb>  (259) 
0

>  <r_i_glide_esite>  (259) 
-0.0118559

>  <r_i_glide_emodel>  (259) 
-35.3084

>  <r_i_glide_energy>  (259) 
-28.3158

>  <r_i_glide_einternal>  (259) 
0

>  <r_i_glide_intrahb_reward>  (259) 
-0

>  <i_i_glide_confnum>  (259) 
2

>  <i_i_glide_posenum>  (259) 
2

>  <r_i_glide_eff_state_penalty>  (259) 
0

>  <ligand_id>  (259) 
79

>  <original_smiles>  (259) 
CC12CC(=O)C3C(CC=C4CC(=O)CCC43C)C1CCC2=O

>  <smiles>  (259) 
[H]C1=C2C([H])([H])C(=O)C([H])([H])C([H])([H])C2(C([H])([H])[H])C2([H])C(=O)C([H])([H])C3(C([H])([H])[H])C(=O)C([H])([H])C([H])([H])C3([H])C2([H])C1([H])[H]

$$$$
79:0:2
     RDKit          3D

 46 49  0  0  1  0  0  0  0  0999 V2000
    5.5699   -3.7074   -3.2849 C   0  0  0  0  0  0  0  0  0  0  0  0
    4.6909   -2.6505   -2.6613 C   0  0  2  0  0  0  0  0  0  0  0  0
    5.4483   -1.7213   -1.6969 C   0  0  0  0  0  0  0  0  0  0  0  0
    5.9870   -2.4412   -0.4591 C   0  0  0  0  0  0  0  0  0  0  0  0
    7.0665   -2.0991   -0.0016 O   0  0  0  0  0  0  0  0  0  0  0  0
    5.1352   -3.6087    0.1198 C   0  0  2  0  0  0  0  0  0  0  0  0
    3.6685   -3.5359   -0.3748 C   0  0  2  0  0  0  0  0  0  0  0  0
    2.8993   -4.7986    0.0632 C   0  0  0  0  0  0  0  0  0  0  0  0
    3.1423   -5.2028    1.4828 C   0  0  0  0  0  0  0  0  0  0  0  0
    4.1845   -4.7932    2.2166 C   0  0  0  0  0  0  0  0  0  0  0  0
    4.2551   -5.1366    3.6933 C   0  0  0  0  0  0  0  0  0  0  0  0
    4.1919   -3.8312    4.4986 C   0  0  0  0  0  0  0  0  0  0  0  0
    3.4566   -3.6931    5.4493 O   0  0  0  0  0  0  0  0  0  0  0  0
    5.1552   -2.7323    4.0452 C   0  0  0  0  0  0  0  0  0  0  0  0
    5.1633   -2.5356    2.5099 C   0  0  0  0  0  0  0  0  0  0  0  0
    5.2803   -3.8515    1.6762 C   0  0  2  0  0  0  0  0  0  0  0  0
    6.6452   -4.5490    1.9006 C   0  0  0  0  0  0  0  0  0  0  0  0
    3.5254   -3.3310   -1.9225 C   0  0  1  0  0  0  0  0  0  0  0  0
    2.3337   -2.5080   -2.3182 C   0  0  0  0  0  0  0  0  0  0  0  0
    2.5534   -1.8661   -3.6996 C   0  0  0  0  0  0  0  0  0  0  0  0
    4.0432   -1.8368   -3.7702 C   0  0  0  0  0  0  0  0  0  0  0  0
    4.6068   -1.1745   -4.6115 O   0  0  0  0  0  0  0  0  0  0  0  0
    5.8177   -4.4301   -2.5225 H   0  0  0  0  0  0  0  0  0  0  0  0
    6.4956   -3.2784   -3.6827 H   0  0  0  0  0  0  0  0  0  0  0  0
    5.0578   -4.2449   -4.0939 H   0  0  0  0  0  0  0  0  0  0  0  0
    6.2904   -1.2882   -2.2378 H   0  0  0  0  0  0  0  0  0  0  0  0
    4.8128   -0.8948   -1.3766 H   0  0  0  0  0  0  0  0  0  0  0  0
    5.5518   -4.4992   -0.3483 H   0  0  0  0  0  0  0  0  0  0  0  0
    3.2108   -2.6894    0.1463 H   0  0  0  0  0  0  0  0  0  0  0  0
    1.8313   -4.6553   -0.0955 H   0  0  0  0  0  0  0  0  0  0  0  0
    3.2143   -5.6475   -0.5347 H   0  0  0  0  0  0  0  0  0  0  0  0
    2.4120   -5.8736    1.9175 H   0  0  0  0  0  0  0  0  0  0  0  0
    3.4141   -5.7669    3.9815 H   0  0  0  0  0  0  0  0  0  0  0  0
    5.1642   -5.6777    3.9404 H   0  0  0  0  0  0  0  0  0  0  0  0
    4.9115   -1.8013    4.5581 H   0  0  0  0  0  0  0  0  0  0  0  0
    6.1398   -3.0242    4.4041 H   0  0  0  0  0  0  0  0  0  0  0  0
    4.2331   -2.0292    2.2450 H   0  0  0  0  0  0  0  0  0  0  0  0
    5.9644   -1.8320    2.2740 H   0  0  0  0  0  0  0  0  0  0  0  0
    7.4862   -3.9187    1.6091 H   0  0  0  0  0  0  0  0  0  0  0  0
    6.7296   -5.4915    1.3632 H   0  0  0  0  0  0  0  0  0  0  0  0
    6.8033   -4.7861    2.9482 H   0  0  0  0  0  0  0  0  0  0  0  0
    3.3782   -4.2555   -2.4243 H   0  0  0  0  0  0  0  0  0  0  0  0
    1.3720   -3.0054   -2.2288 H   0  0  0  0  0  0  0  0  0  0  0  0
    2.4427   -1.6645   -1.6677 H   0  0  0  0  0  0  0  0  0  0  0  0
    2.1143   -2.4881   -4.4748 H   0  0  0  0  0  0  0  0  0  0  0  0
    2.2047   -0.8537   -3.7488 H   0  0  0  0  0  0  0  0  0  0  0  0
  2  1  1  6
  1 23  1  0
  1 24  1  0
  1 25  1  0
  2 18  1  0
  2 21  1  0
  2  3  1  0
  3  4  1  0
  3 26  1  0
  3 27  1  0
  4  5  2  0
  4  6  1  0
  6 16  1  0
  6  7  1  0
  6 28  1  6
  7  8  1  0
  7 18  1  0
  7 29  1  1
  8  9  1  0
  8 30  1  0
  8 31  1  0
  9 10  2  0
  9 32  1  0
 10 16  1  0
 10 11  1  0
 11 12  1  0
 11 33  1  0
 11 34  1  0
 12 13  2  0
 12 14  1  0
 14 15  1  0
 14 35  1  0
 14 36  1  0
 15 16  1  0
 15 37  1  0
 15 38  1  0
 16 17  1  6
 17 39  1  0
 17 40  1  0
 17 41  1  0
 18 19  1  0
 18 42  1  6
 19 20  1  0
 19 43  1  0
 19 44  1  0
 20 21  1  0
 20 45  1  0
 20 46  1  0
 21 22  2  0
M  END
>  <i_m_ct_stereo_status>  (260) 
1

>  <s_m_source_file>  (260) 
/var/tmp/pbs.5076255.sched01/tmpbzpkhbzu/844yn2io63.sdf

>  <i_m_source_file_index>  (260) 
28

>  <i_lp_mmshare_version>  (260) 
48012

>  <i_f3d_flags>  (260) 
0

>  <s_epik_input>  (260) 
Tz1DMVtDSDJdW0NIMl1bQ0BASF0oW0NAQF0xMltDSDNdKVtDQEBIXTNbQ0BASF0oQyg9TylbQ0gyXTIpW0NAXTQoW0NIM10pQyg9W0NIXVtDSDJdMylbQ0gyXUMoPU8pW0NIMl1bQ0gyXTQ=

>  <s_epik_cmdline>  (260) 
J2VwaWtfcHl0aG9uJywgJy1waHQnLCAnMi4wJywgJy1waCcsICc3LjAnLCAnLXRuJywgJzgnLCAnLW1hJywgJzIwMCcsICctaW1hZScsICc8aW5maWxlLm1hZT4nLCAnLW9tYWUnLCAnPG91dGZpbGUubWFlPic=

>  <r_lp_tautomer_probability>  (260) 
1

>  <r_epik_Ionization_Penalty>  (260) 
9.17882e-13

>  <r_epik_Ionization_Penalty_Charging>  (260) 
0

>  <r_epik_Ionization_Penalty_Neutral>  (260) 
9.17882e-13

>  <r_epik_State_Penalty>  (260) 
-0

>  <r_epik_Charging_Adjusted_Penalty>  (260) 
0

>  <i_epik_Tot_Q>  (260) 
0

>  <i_epik_Tot_abs_Q>  (260) 
0

>  <s_lp_Force_Field>  (260) 
OPLS3e

>  <r_lp_Energy>  (260) 
22.6124

>  <b_lp_Chiralities_Consistent>  (260) 
1

>  <s_lp_Variant>  (260) 
79:0-1

>  <s_i_glide_gridfile>  (260) 
pfpi4k_grid

>  <i_i_glide_lignum>  (260) 
28

>  <i_i_glide_rotatable_bonds>  (260) 
0

>  <r_i_docking_score>  (260) 
-3.43734

>  <r_i_glide_ligand_efficiency>  (260) 
-0.156243

>  <r_i_glide_ligand_efficiency_sa>  (260) 
-0.437798

>  <r_i_glide_ligand_efficiency_ln>  (260) 
-0.840211

>  <r_i_glide_gscore>  (260) 
-3.43734

>  <r_i_glide_lipo>  (260) 
-0.662258

>  <r_i_glide_hbond>  (260) 
-0.352325

>  <r_i_glide_metal>  (260) 
-0

>  <r_i_glide_rewards>  (260) 
-1.55767

>  <r_i_glide_evdw>  (260) 
-3.59398

>  <r_i_glide_ecoul>  (260) 
-4.48083

>  <r_i_glide_erotb>  (260) 
0

>  <r_i_glide_esite>  (260) 
-0.0132593

>  <r_i_glide_emodel>  (260) 
-13.4542

>  <r_i_glide_energy>  (260) 
-8.07482

>  <r_i_glide_einternal>  (260) 
0

>  <r_i_glide_intrahb_reward>  (260) 
-0

>  <i_i_glide_confnum>  (260) 
2

>  <i_i_glide_posenum>  (260) 
23

>  <r_i_glide_eff_state_penalty>  (260) 
0

>  <ligand_id>  (260) 
79

>  <original_smiles>  (260) 
CC12CC(=O)C3C(CC=C4CC(=O)CCC43C)C1CCC2=O

>  <smiles>  (260) 
[H]C1=C2C([H])([H])C(=O)C([H])([H])C([H])([H])C2(C([H])([H])[H])C2([H])C(=O)C([H])([H])C3(C([H])([H])[H])C(=O)C([H])([H])C([H])([H])C3([H])C2([H])C1([H])[H]

$$$$
80:0:0
     RDKit          3D

 59 65  0  0  1  0  0  0  0  0999 V2000
    6.6108   -2.1731    1.0520 C   0  0  0  0  0  0  0  0  0  0  0  0
    5.1458   -1.7604    1.3678 C   0  0  0  0  0  0  0  0  0  0  0  0
    5.2113   -1.1085    2.7784 C   0  0  0  0  0  0  0  0  0  0  0  0
    4.7784   -0.6257    0.3890 C   0  0  0  0  0  0  0  0  0  0  0  0
    4.7358   -1.0877   -1.0707 C   0  0  0  0  0  0  0  0  0  0  0  0
    3.7442   -2.2364   -1.2817 C   0  0  1  0  0  0  0  0  0  0  0  0
    3.9759   -2.7578   -2.5744 O   0  0  0  0  0  0  0  0  0  0  0  0
    3.7965   -3.3830   -0.2312 C   0  0  2  0  0  0  0  0  0  0  0  0
    4.8166   -4.5031   -0.4607 C   0  0  0  0  0  0  0  0  0  0  0  0
    4.6346   -5.3095    0.8246 C   0  0  2  0  0  0  0  0  0  0  0  0
    3.3274   -6.0918    0.6540 C   0  0  2  0  0  0  0  0  0  0  0  0
    2.2910   -5.1169    0.6737 O   0  0  0  0  0  0  0  0  0  0  0  0
    2.5394   -4.0774   -0.4111 O   0  0  0  0  0  0  0  0  0  0  0  0
    2.9890   -7.2245    1.6557 C   0  0  1  0  0  0  0  0  0  0  0  0
    3.9290   -8.4662    1.5316 C   0  0  0  0  0  0  0  0  0  0  0  0
    3.4322   -9.6987    2.3299 C   0  0  1  0  0  0  0  0  0  0  0  0
    4.5154  -10.5732    2.5671 O   0  0  0  0  0  0  0  0  0  0  0  0
    2.7364   -9.2686    3.5717 C   0  0  0  0  0  0  0  0  0  0  0  0
    2.2869  -10.1942    4.4521 O   0  0  0  0  0  0  0  0  0  0  0  0
    1.6476   -9.4975    5.4335 C   0  0  0  0  0  0  0  0  0  0  0  0
    1.6651   -8.1524    5.1649 C   0  0  0  0  0  0  0  0  0  0  0  0
    2.3881   -8.0020    3.9491 C   0  0  0  0  0  0  0  0  0  0  0  0
    2.7445   -6.7853    3.1339 C   0  0  1  0  0  0  0  0  0  0  0  0
    3.9631   -6.0852    3.7659 C   0  0  0  0  0  0  0  0  0  0  0  0
    4.1093   -4.6502    3.3280 C   0  0  1  0  0  0  0  0  0  0  0  0
    5.4307   -4.2559    2.9739 O   0  0  0  0  0  0  0  0  0  0  0  0
    4.4742   -4.2601    1.9008 C   0  0  1  0  0  0  0  0  0  0  0  0
    4.0428   -2.9223    1.2621 C   0  0  1  0  0  0  0  0  0  0  0  0
    2.7010   -2.4247    1.8861 C   0  0  0  0  0  0  0  0  0  0  0  0
    7.2815   -1.3260    1.2072 H   0  0  0  0  0  0  0  0  0  0  0  0
    6.7890   -2.4704    0.0259 H   0  0  0  0  0  0  0  0  0  0  0  0
    6.9773   -2.9764    1.6852 H   0  0  0  0  0  0  0  0  0  0  0  0
    4.3271   -0.5154    3.0112 H   0  0  0  0  0  0  0  0  0  0  0  0
    6.0438   -0.4073    2.8493 H   0  0  0  0  0  0  0  0  0  0  0  0
    5.3521   -1.8375    3.5753 H   0  0  0  0  0  0  0  0  0  0  0  0
    3.8148   -0.1905    0.6483 H   0  0  0  0  0  0  0  0  0  0  0  0
    5.4941    0.1938    0.4859 H   0  0  0  0  0  0  0  0  0  0  0  0
    4.4385   -0.2511   -1.6992 H   0  0  0  0  0  0  0  0  0  0  0  0
    5.7297   -1.3578   -1.4190 H   0  0  0  0  0  0  0  0  0  0  0  0
    2.7417   -1.8091   -1.2552 H   0  0  0  0  0  0  0  0  0  0  0  0
    3.3670   -3.4723   -2.7061 H   0  0  0  0  0  0  0  0  0  0  0  0
    4.6143   -5.0728   -1.3674 H   0  0  0  0  0  0  0  0  0  0  0  0
    5.8341   -4.1625   -0.5452 H   0  0  0  0  0  0  0  0  0  0  0  0
    5.4687   -5.9767    1.0129 H   0  0  0  0  0  0  0  0  0  0  0  0
    3.3775   -6.5708   -0.3256 H   0  0  0  0  0  0  0  0  0  0  0  0
    2.0229   -7.5912    1.3127 H   0  0  0  0  0  0  0  0  0  0  0  0
    4.0973   -8.7516    0.4895 H   0  0  0  0  0  0  0  0  0  0  0  0
    4.9034   -8.1770    1.9281 H   0  0  0  0  0  0  0  0  0  0  0  0
    2.7129  -10.2491    1.7287 H   0  0  0  0  0  0  0  0  0  0  0  0
    4.5623  -11.1813    1.8332 H   0  0  0  0  0  0  0  0  0  0  0  0
    1.2431  -10.1004    6.2337 H   0  0  0  0  0  0  0  0  0  0  0  0
    1.2238   -7.3830    5.7812 H   0  0  0  0  0  0  0  0  0  0  0  0
    1.8817   -6.1178    3.1798 H   0  0  0  0  0  0  0  0  0  0  0  0
    3.8527   -6.0690    4.8522 H   0  0  0  0  0  0  0  0  0  0  0  0
    4.8809   -6.6398    3.5650 H   0  0  0  0  0  0  0  0  0  0  0  0
    3.6094   -3.9288    3.9611 H   0  0  0  0  0  0  0  0  0  0  0  0
    1.9570   -3.2131    1.9658 H   0  0  0  0  0  0  0  0  0  0  0  0
    2.2474   -1.6252    1.3027 H   0  0  0  0  0  0  0  0  0  0  0  0
    2.8230   -2.0668    2.9050 H   0  0  0  0  0  0  0  0  0  0  0  0
  1  2  1  0
  1 30  1  0
  1 31  1  0
  1 32  1  0
  2 28  1  0
  2  3  1  0
  2  4  1  0
  3 33  1  0
  3 34  1  0
  3 35  1  0
  4  5  1  0
  4 36  1  0
  4 37  1  0
  5  6  1  0
  5 38  1  0
  5 39  1  0
  6  7  1  0
  6  8  1  0
  6 40  1  6
  7 41  1  0
  8 13  1  1
  8 28  1  0
  8  9  1  0
  9 10  1  0
  9 42  1  0
  9 43  1  0
 10 27  1  0
 10 11  1  0
 10 44  1  1
 11 12  1  0
 11 14  1  0
 11 45  1  6
 12 13  1  0
 14 23  1  0
 14 15  1  0
 14 46  1  6
 15 16  1  0
 15 47  1  0
 15 48  1  0
 16 17  1  0
 16 18  1  0
 16 49  1  6
 17 50  1  0
 18 22  2  0
 18 19  1  0
 19 20  1  0
 20 21  2  0
 20 51  1  0
 21 22  1  0
 21 52  1  0
 22 23  1  0
 23 24  1  0
 23 53  1  6
 24 25  1  0
 24 54  1  0
 24 55  1  0
 25 27  1  0
 25 26  1  0
 25 56  1  1
 27 26  1  1
 27 28  1  0
 28 29  1  1
 29 57  1  0
 29 58  1  0
 29 59  1  0
M  END
>  <i_m_ct_stereo_status>  (261) 
1

>  <s_m_source_file>  (261) 
/var/tmp/pbs.5076255.sched01/tmpbzpkhbzu/844yn2io63.sdf

>  <i_m_source_file_index>  (261) 
29

>  <i_lp_mmshare_version>  (261) 
48012

>  <i_f3d_flags>  (261) 
0

>  <s_epik_input>  (261) 
W09IXVtDQEBIXTFbQ0gyXVtDSDJdQyhbQ0gzXSkoW0NIM10pW0NAXShbQ0BAXTEyMykoW0NIM10pW0NAXTQ1W0NASF0oW0NIMl0yKVtDQEhdKE9PMylbQ0BASF02W0NASF0oW0NIMl1bQ0BIXTRPNSljN2MoW0NAQEhdKFtDSDJdNilbT0hdKW9bY0hdW2NIXTc=

>  <s_epik_cmdline>  (261) 
J2VwaWtfcHl0aG9uJywgJy1waHQnLCAnMi4wJywgJy1waCcsICc3LjAnLCAnLXRuJywgJzgnLCAnLW1hJywgJzIwMCcsICctaW1hZScsICc8aW5maWxlLm1hZT4nLCAnLW9tYWUnLCAnPG91dGZpbGUubWFlPic=

>  <r_lp_tautomer_probability>  (261) 
1

>  <r_epik_Ionization_Penalty>  (261) 
2.05202e-07

>  <r_epik_Ionization_Penalty_Charging>  (261) 
0

>  <r_epik_Ionization_Penalty_Neutral>  (261) 
2.05202e-07

>  <r_epik_State_Penalty>  (261) 
-0

>  <r_epik_Charging_Adjusted_Penalty>  (261) 
0

>  <i_epik_Tot_Q>  (261) 
0

>  <i_epik_Tot_abs_Q>  (261) 
0

>  <s_lp_Force_Field>  (261) 
OPLS3e

>  <r_lp_Energy>  (261) 
64.5886

>  <b_lp_Chiralities_Consistent>  (261) 
1

>  <s_lp_Variant>  (261) 
80:0-1

>  <s_i_glide_gridfile>  (261) 
pfpi4k_grid

>  <i_i_glide_lignum>  (261) 
29

>  <i_i_glide_rotatable_bonds>  (261) 
2

>  <r_i_docking_score>  (261) 
-3.51396

>  <r_i_glide_ligand_efficiency>  (261) 
-0.121171

>  <r_i_glide_ligand_efficiency_sa>  (261) 
-0.372276

>  <r_i_glide_ligand_efficiency_ln>  (261) 
-0.804608

>  <r_i_glide_gscore>  (261) 
-3.51396

>  <r_i_glide_lipo>  (261) 
-0.531018

>  <r_i_glide_hbond>  (261) 
-0.00679761

>  <r_i_glide_metal>  (261) 
-0

>  <r_i_glide_rewards>  (261) 
-0.664904

>  <r_i_glide_evdw>  (261) 
-28.559

>  <r_i_glide_ecoul>  (261) 
-5.88861

>  <r_i_glide_erotb>  (261) 
0

>  <r_i_glide_esite>  (261) 
0

>  <r_i_glide_emodel>  (261) 
-41.5637

>  <r_i_glide_energy>  (261) 
-34.4476

>  <r_i_glide_einternal>  (261) 
1.27268

>  <r_i_glide_intrahb_reward>  (261) 
-0

>  <i_i_glide_confnum>  (261) 
1

>  <i_i_glide_posenum>  (261) 
27

>  <r_i_glide_eff_state_penalty>  (261) 
0

>  <ligand_id>  (261) 
80

>  <original_smiles>  (261) 
CC1(C)CCC(O)C23CC4C(OO2)C2CC(O)c5occc5C2CC2OC24C13C

>  <smiles>  (261) 
[H]OC1([H])c2oc([H])c([H])c2C2([H])C([H])([H])C3([H])OC34C3([H])C([H])([H])C5(OOC3([H])C2([H])C1([H])[H])C([H])(O[H])C([H])([H])C([H])([H])C(C([H])([H])[H])(C([H])([H])[H])C54C([H])([H])[H]

$$$$
80:0:1
     RDKit          3D

 59 65  0  0  1  0  0  0  0  0999 V2000
    6.3909   -1.9025    0.7391 C   0  0  0  0  0  0  0  0  0  0  0  0
    4.8881   -1.7881    1.1250 C   0  0  0  0  0  0  0  0  0  0  0  0
    4.8881   -1.0432    2.4882 C   0  0  0  0  0  0  0  0  0  0  0  0
    4.2283   -0.8248    0.1090 C   0  0  0  0  0  0  0  0  0  0  0  0
    4.1999   -1.3913   -1.3143 C   0  0  0  0  0  0  0  0  0  0  0  0
    3.4640   -2.7346   -1.3846 C   0  0  1  0  0  0  0  0  0  0  0  0
    3.7312   -3.2863   -2.6570 O   0  0  0  0  0  0  0  0  0  0  0  0
    3.8136   -3.7655   -0.2718 C   0  0  2  0  0  0  0  0  0  0  0  0
    5.0308   -4.6627   -0.5209 C   0  0  0  0  0  0  0  0  0  0  0  0
    5.1013   -5.4062    0.8067 C   0  0  2  0  0  0  0  0  0  0  0  0
    3.9848   -6.4624    0.7513 C   0  0  2  0  0  0  0  0  0  0  0  0
    2.7876   -5.6962    0.8542 O   0  0  0  0  0  0  0  0  0  0  0  0
    2.7060   -4.6934   -0.2754 O   0  0  0  0  0  0  0  0  0  0  0  0
    3.9758   -7.5573    1.8550 C   0  0  1  0  0  0  0  0  0  0  0  0
    5.1499   -8.5742    1.7431 C   0  0  0  0  0  0  0  0  0  0  0  0
    4.9849   -9.8192    2.6473 C   0  0  1  0  0  0  0  0  0  0  0  0
    6.2559  -10.3960    2.8784 O   0  0  0  0  0  0  0  0  0  0  0  0
    4.2751   -9.4642    3.9094 C   0  0  0  0  0  0  0  0  0  0  0  0
    4.0967  -10.4010    4.8764 O   0  0  0  0  0  0  0  0  0  0  0  0
    3.3748   -9.7876    5.8578 C   0  0  0  0  0  0  0  0  0  0  0  0
    3.0898   -8.4876    5.5126 C   0  0  0  0  0  0  0  0  0  0  0  0
    3.6863   -8.2786    4.2358 C   0  0  0  0  0  0  0  0  0  0  0  0
    3.7276   -7.0745    3.3252 C   0  0  1  0  0  0  0  0  0  0  0  0
    4.7948   -6.0925    3.8366 C   0  0  0  0  0  0  0  0  0  0  0  0
    4.5974   -4.6956    3.3048 C   0  0  1  0  0  0  0  0  0  0  0  0
    5.7843   -4.0623    2.8380 O   0  0  0  0  0  0  0  0  0  0  0  0
    4.7864   -4.3397    1.8454 C   0  0  1  0  0  0  0  0  0  0  0  0
    4.0494   -3.1580    1.1616 C   0  0  1  0  0  0  0  0  0  0  0  0
    2.6724   -2.9132    1.8509 C   0  0  0  0  0  0  0  0  0  0  0  0
    6.8722   -0.9251    0.7947 H   0  0  0  0  0  0  0  0  0  0  0  0
    6.5689   -2.2295   -0.2771 H   0  0  0  0  0  0  0  0  0  0  0  0
    6.9574   -2.5571    1.3942 H   0  0  0  0  0  0  0  0  0  0  0  0
    3.9096   -0.6373    2.7446 H   0  0  0  0  0  0  0  0  0  0  0  0
    5.5510   -0.1802    2.4598 H   0  0  0  0  0  0  0  0  0  0  0  0
    5.2238   -1.6687    3.3122 H   0  0  0  0  0  0  0  0  0  0  0  0
    3.2055   -0.5956    0.4080 H   0  0  0  0  0  0  0  0  0  0  0  0
    4.7424    0.1404    0.1098 H   0  0  0  0  0  0  0  0  0  0  0  0
    3.6882   -0.6838   -1.9637 H   0  0  0  0  0  0  0  0  0  0  0  0
    5.2057   -1.4696   -1.7178 H   0  0  0  0  0  0  0  0  0  0  0  0
    2.3973   -2.5301   -1.3112 H   0  0  0  0  0  0  0  0  0  0  0  0
    3.2680   -4.1148   -2.7197 H   0  0  0  0  0  0  0  0  0  0  0  0
    4.9058   -5.3285   -1.3726 H   0  0  0  0  0  0  0  0  0  0  0  0
    5.9493   -4.1263   -0.6961 H   0  0  0  0  0  0  0  0  0  0  0  0
    6.0752   -5.8543    0.9795 H   0  0  0  0  0  0  0  0  0  0  0  0
    4.0347   -6.9831   -0.2151 H   0  0  0  0  0  0  0  0  0  0  0  0
    3.0973   -8.1432    1.6150 H   0  0  0  0  0  0  0  0  0  0  0  0
    5.3186   -8.8945    0.7128 H   0  0  0  0  0  0  0  0  0  0  0  0
    6.0549   -8.0538    2.0598 H   0  0  0  0  0  0  0  0  0  0  0  0
    4.3744  -10.5557    2.1315 H   0  0  0  0  0  0  0  0  0  0  0  0
    6.7698   -9.8057    3.4100 H   0  0  0  0  0  0  0  0  0  0  0  0
    3.1434  -10.4046    6.7101 H   0  0  0  0  0  0  0  0  0  0  0  0
    2.5244   -7.7947    6.1139 H   0  0  0  0  0  0  0  0  0  0  0  0
    2.7421   -6.6119    3.4024 H   0  0  0  0  0  0  0  0  0  0  0  0
    4.7454   -6.0201    4.9229 H   0  0  0  0  0  0  0  0  0  0  0  0
    5.8001   -6.4440    3.6028 H   0  0  0  0  0  0  0  0  0  0  0  0
    3.9896   -4.0543    3.9388 H   0  0  0  0  0  0  0  0  0  0  0  0
    2.1241   -3.8345    2.0261 H   0  0  0  0  0  0  0  0  0  0  0  0
    2.0284   -2.2700    1.2585 H   0  0  0  0  0  0  0  0  0  0  0  0
    2.7717   -2.4729    2.8367 H   0  0  0  0  0  0  0  0  0  0  0  0
  1  2  1  0
  1 30  1  0
  1 31  1  0
  1 32  1  0
  2 28  1  0
  2  3  1  0
  2  4  1  0
  3 33  1  0
  3 34  1  0
  3 35  1  0
  4  5  1  0
  4 36  1  0
  4 37  1  0
  5  6  1  0
  5 38  1  0
  5 39  1  0
  6  7  1  0
  6  8  1  0
  6 40  1  6
  7 41  1  0
  8 13  1  1
  8 28  1  0
  8  9  1  0
  9 10  1  0
  9 42  1  0
  9 43  1  0
 10 27  1  0
 10 11  1  0
 10 44  1  1
 11 12  1  0
 11 14  1  0
 11 45  1  6
 12 13  1  0
 14 23  1  0
 14 15  1  0
 14 46  1  6
 15 16  1  0
 15 47  1  0
 15 48  1  0
 16 17  1  0
 16 18  1  0
 16 49  1  6
 17 50  1  0
 18 22  2  0
 18 19  1  0
 19 20  1  0
 20 21  2  0
 20 51  1  0
 21 22  1  0
 21 52  1  0
 22 23  1  0
 23 24  1  0
 23 53  1  6
 24 25  1  0
 24 54  1  0
 24 55  1  0
 25 27  1  0
 25 26  1  0
 25 56  1  1
 27 26  1  1
 27 28  1  0
 28 29  1  1
 29 57  1  0
 29 58  1  0
 29 59  1  0
M  END
>  <i_m_ct_stereo_status>  (262) 
1

>  <s_m_source_file>  (262) 
/var/tmp/pbs.5076255.sched01/tmpbzpkhbzu/844yn2io63.sdf

>  <i_m_source_file_index>  (262) 
29

>  <i_lp_mmshare_version>  (262) 
48012

>  <i_f3d_flags>  (262) 
0

>  <s_epik_input>  (262) 
W09IXVtDQEBIXTFbQ0gyXVtDSDJdQyhbQ0gzXSkoW0NIM10pW0NAXShbQ0BAXTEyMykoW0NIM10pW0NAXTQ1W0NASF0oW0NIMl0yKVtDQEhdKE9PMylbQ0BASF02W0NASF0oW0NIMl1bQ0BIXTRPNSljN2MoW0NAQEhdKFtDSDJdNilbT0hdKW9bY0hdW2NIXTc=

>  <s_epik_cmdline>  (262) 
J2VwaWtfcHl0aG9uJywgJy1waHQnLCAnMi4wJywgJy1waCcsICc3LjAnLCAnLXRuJywgJzgnLCAnLW1hJywgJzIwMCcsICctaW1hZScsICc8aW5maWxlLm1hZT4nLCAnLW9tYWUnLCAnPG91dGZpbGUubWFlPic=

>  <r_lp_tautomer_probability>  (262) 
1

>  <r_epik_Ionization_Penalty>  (262) 
2.05202e-07

>  <r_epik_Ionization_Penalty_Charging>  (262) 
0

>  <r_epik_Ionization_Penalty_Neutral>  (262) 
2.05202e-07

>  <r_epik_State_Penalty>  (262) 
-0

>  <r_epik_Charging_Adjusted_Penalty>  (262) 
0

>  <i_epik_Tot_Q>  (262) 
0

>  <i_epik_Tot_abs_Q>  (262) 
0

>  <s_lp_Force_Field>  (262) 
OPLS3e

>  <r_lp_Energy>  (262) 
64.5886

>  <b_lp_Chiralities_Consistent>  (262) 
1

>  <s_lp_Variant>  (262) 
80:0-1

>  <s_i_glide_gridfile>  (262) 
pfpi4k_grid

>  <i_i_glide_lignum>  (262) 
29

>  <i_i_glide_rotatable_bonds>  (262) 
2

>  <r_i_docking_score>  (262) 
-3.21157

>  <r_i_glide_ligand_efficiency>  (262) 
-0.110744

>  <r_i_glide_ligand_efficiency_sa>  (262) 
-0.34024

>  <r_i_glide_ligand_efficiency_ln>  (262) 
-0.735368

>  <r_i_glide_gscore>  (262) 
-3.21157

>  <r_i_glide_lipo>  (262) 
-0.481732

>  <r_i_glide_hbond>  (262) 
0

>  <r_i_glide_metal>  (262) 
-0

>  <r_i_glide_rewards>  (262) 
-0.664904

>  <r_i_glide_evdw>  (262) 
-27.6084

>  <r_i_glide_ecoul>  (262) 
-4.56343

>  <r_i_glide_erotb>  (262) 
0

>  <r_i_glide_esite>  (262) 
0

>  <r_i_glide_emodel>  (262) 
-39.1912

>  <r_i_glide_energy>  (262) 
-32.1718

>  <r_i_glide_einternal>  (262) 
0.682735

>  <r_i_glide_intrahb_reward>  (262) 
-0

>  <i_i_glide_confnum>  (262) 
2

>  <i_i_glide_posenum>  (262) 
40

>  <r_i_glide_eff_state_penalty>  (262) 
0

>  <ligand_id>  (262) 
80

>  <original_smiles>  (262) 
CC1(C)CCC(O)C23CC4C(OO2)C2CC(O)c5occc5C2CC2OC24C13C

>  <smiles>  (262) 
[H]OC1([H])c2oc([H])c([H])c2C2([H])C([H])([H])C3([H])OC34C3([H])C([H])([H])C5(OOC3([H])C2([H])C1([H])[H])C([H])(O[H])C([H])([H])C([H])([H])C(C([H])([H])[H])(C([H])([H])[H])C54C([H])([H])[H]

$$$$
80:0:2
     RDKit          3D

 59 65  0  0  1  0  0  0  0  0999 V2000
    3.9262   -9.3627    5.4525 C   0  0  0  0  0  0  0  0  0  0  0  0
    3.5292   -9.8911    4.0442 C   0  0  0  0  0  0  0  0  0  0  0  0
    4.8331  -10.5315    3.4877 C   0  0  0  0  0  0  0  0  0  0  0  0
    2.5338  -11.0595    4.2511 C   0  0  0  0  0  0  0  0  0  0  0  0
    1.2011  -10.6004    4.8436 C   0  0  0  0  0  0  0  0  0  0  0  0
    0.5100   -9.5364    3.9787 C   0  0  1  0  0  0  0  0  0  0  0  0
   -0.5838   -9.0460    4.7311 O   0  0  0  0  0  0  0  0  0  0  0  0
    1.4215   -8.3737    3.4709 C   0  0  2  0  0  0  0  0  0  0  0  0
    1.6435   -7.1765    4.3975 C   0  0  0  0  0  0  0  0  0  0  0  0
    2.6695   -6.3844    3.5877 C   0  0  2  0  0  0  0  0  0  0  0  0
    1.8723   -5.6994    2.4635 C   0  0  2  0  0  0  0  0  0  0  0  0
    1.4838   -6.7622    1.6024 O   0  0  0  0  0  0  0  0  0  0  0  0
    0.6567   -7.7703    2.3953 O   0  0  0  0  0  0  0  0  0  0  0  0
    2.6069   -4.6119    1.6319 C   0  0  1  0  0  0  0  0  0  0  0  0
    2.8857   -3.2948    2.4208 C   0  0  0  0  0  0  0  0  0  0  0  0
    3.3193   -2.1088    1.5208 C   0  0  1  0  0  0  0  0  0  0  0  0
    4.0114   -1.1564    2.2973 O   0  0  0  0  0  0  0  0  0  0  0  0
    4.1094   -2.5904    0.3620 C   0  0  0  0  0  0  0  0  0  0  0  0
    4.6690   -1.7020   -0.4963 O   0  0  0  0  0  0  0  0  0  0  0  0
    5.2595   -2.4538   -1.4672 C   0  0  0  0  0  0  0  0  0  0  0  0
    5.0652   -3.7921   -1.2349 C   0  0  0  0  0  0  0  0  0  0  0  0
    4.3308   -3.8803   -0.0215 C   0  0  0  0  0  0  0  0  0  0  0  0
    3.8166   -5.0687    0.7539 C   0  0  1  0  0  0  0  0  0  0  0  0
    4.9643   -5.6702    1.5833 C   0  0  0  0  0  0  0  0  0  0  0  0
    4.6868   -7.0849    2.0155 C   0  0  1  0  0  0  0  0  0  0  0  0
    4.9918   -7.3689    3.3768 O   0  0  0  0  0  0  0  0  0  0  0  0
    3.5975   -7.4416    3.0217 C   0  0  1  0  0  0  0  0  0  0  0  0
    2.8832   -8.8106    3.0433 C   0  0  1  0  0  0  0  0  0  0  0  0
    2.8421   -9.4138    1.6128 C   0  0  0  0  0  0  0  0  0  0  0  0
    4.3935  -10.1557    6.0384 H   0  0  0  0  0  0  0  0  0  0  0  0
    3.0869   -9.0507    6.0616 H   0  0  0  0  0  0  0  0  0  0  0  0
    4.6384   -8.5405    5.4281 H   0  0  0  0  0  0  0  0  0  0  0  0
    4.6513  -11.1911    2.6385 H   0  0  0  0  0  0  0  0  0  0  0  0
    5.3043  -11.1713    4.2352 H   0  0  0  0  0  0  0  0  0  0  0  0
    5.5811   -9.7959    3.1920 H   0  0  0  0  0  0  0  0  0  0  0  0
    2.3386  -11.5607    3.3054 H   0  0  0  0  0  0  0  0  0  0  0  0
    2.9733  -11.8292    4.8923 H   0  0  0  0  0  0  0  0  0  0  0  0
    0.5462  -11.4661    4.9381 H   0  0  0  0  0  0  0  0  0  0  0  0
    1.3426  -10.2541    5.8654 H   0  0  0  0  0  0  0  0  0  0  0  0
    0.1109  -10.0447    3.0994 H   0  0  0  0  0  0  0  0  0  0  0  0
   -1.2015   -9.7703    4.8814 H   0  0  0  0  0  0  0  0  0  0  0  0
    0.7245   -6.6232    4.5873 H   0  0  0  0  0  0  0  0  0  0  0  0
    2.0553   -7.4359    5.3580 H   0  0  0  0  0  0  0  0  0  0  0  0
    3.2060   -5.6620    4.1914 H   0  0  0  0  0  0  0  0  0  0  0  0
    0.9749   -5.2245    2.8841 H   0  0  0  0  0  0  0  0  0  0  0  0
    1.8643   -4.3200    0.8989 H   0  0  0  0  0  0  0  0  0  0  0  0
    2.0280   -2.9988    3.0321 H   0  0  0  0  0  0  0  0  0  0  0  0
    3.6994   -3.5054    3.1140 H   0  0  0  0  0  0  0  0  0  0  0  0
    2.4301   -1.6258    1.1289 H   0  0  0  0  0  0  0  0  0  0  0  0
    4.1115   -0.3770    1.7732 H   0  0  0  0  0  0  0  0  0  0  0  0
    5.7547   -1.8999   -2.2476 H   0  0  0  0  0  0  0  0  0  0  0  0
    5.4121   -4.5964   -1.8649 H   0  0  0  0  0  0  0  0  0  0  0  0
    3.4838   -5.7962    0.0091 H   0  0  0  0  0  0  0  0  0  0  0  0
    5.8768   -5.7007    0.9838 H   0  0  0  0  0  0  0  0  0  0  0  0
    5.1890   -5.0475    2.4510 H   0  0  0  0  0  0  0  0  0  0  0  0
    5.0462   -7.8485    1.3386 H   0  0  0  0  0  0  0  0  0  0  0  0
    2.5311   -8.6801    0.8778 H   0  0  0  0  0  0  0  0  0  0  0  0
    2.1529  -10.2473    1.5350 H   0  0  0  0  0  0  0  0  0  0  0  0
    3.8104   -9.7602    1.2606 H   0  0  0  0  0  0  0  0  0  0  0  0
  1  2  1  0
  1 30  1  0
  1 31  1  0
  1 32  1  0
  2 28  1  0
  2  3  1  0
  2  4  1  0
  3 33  1  0
  3 34  1  0
  3 35  1  0
  4  5  1  0
  4 36  1  0
  4 37  1  0
  5  6  1  0
  5 38  1  0
  5 39  1  0
  6  7  1  0
  6  8  1  0
  6 40  1  6
  7 41  1  0
  8 13  1  6
  8 28  1  0
  8  9  1  0
  9 10  1  0
  9 42  1  0
  9 43  1  0
 10 27  1  0
 10 11  1  0
 10 44  1  1
 11 12  1  0
 11 14  1  0
 11 45  1  1
 12 13  1  0
 14 23  1  0
 14 15  1  0
 14 46  1  6
 15 16  1  0
 15 47  1  0
 15 48  1  0
 16 17  1  0
 16 18  1  0
 16 49  1  6
 17 50  1  0
 18 22  2  0
 18 19  1  0
 19 20  1  0
 20 21  2  0
 20 51  1  0
 21 22  1  0
 21 52  1  0
 22 23  1  0
 23 24  1  0
 23 53  1  6
 24 25  1  0
 24 54  1  0
 24 55  1  0
 25 27  1  0
 25 26  1  0
 25 56  1  6
 27 26  1  1
 27 28  1  0
 28 29  1  6
 29 57  1  0
 29 58  1  0
 29 59  1  0
M  END
>  <i_m_ct_stereo_status>  (263) 
1

>  <s_m_source_file>  (263) 
/var/tmp/pbs.5076255.sched01/tmpbzpkhbzu/844yn2io63.sdf

>  <i_m_source_file_index>  (263) 
29

>  <i_lp_mmshare_version>  (263) 
48012

>  <i_f3d_flags>  (263) 
0

>  <s_epik_input>  (263) 
W09IXVtDQEBIXTFbQ0gyXVtDSDJdQyhbQ0gzXSkoW0NIM10pW0NAXShbQ0BAXTEyMykoW0NIM10pW0NAXTQ1W0NASF0oW0NIMl0yKVtDQEhdKE9PMylbQ0BASF02W0NASF0oW0NIMl1bQ0BIXTRPNSljN2MoW0NAQEhdKFtDSDJdNilbT0hdKW9bY0hdW2NIXTc=

>  <s_epik_cmdline>  (263) 
J2VwaWtfcHl0aG9uJywgJy1waHQnLCAnMi4wJywgJy1waCcsICc3LjAnLCAnLXRuJywgJzgnLCAnLW1hJywgJzIwMCcsICctaW1hZScsICc8aW5maWxlLm1hZT4nLCAnLW9tYWUnLCAnPG91dGZpbGUubWFlPic=

>  <r_lp_tautomer_probability>  (263) 
1

>  <r_epik_Ionization_Penalty>  (263) 
2.05202e-07

>  <r_epik_Ionization_Penalty_Charging>  (263) 
0

>  <r_epik_Ionization_Penalty_Neutral>  (263) 
2.05202e-07

>  <r_epik_State_Penalty>  (263) 
-0

>  <r_epik_Charging_Adjusted_Penalty>  (263) 
0

>  <i_epik_Tot_Q>  (263) 
0

>  <i_epik_Tot_abs_Q>  (263) 
0

>  <s_lp_Force_Field>  (263) 
OPLS3e

>  <r_lp_Energy>  (263) 
64.5886

>  <b_lp_Chiralities_Consistent>  (263) 
1

>  <s_lp_Variant>  (263) 
80:0-1

>  <s_i_glide_gridfile>  (263) 
pfpi4k_grid

>  <i_i_glide_lignum>  (263) 
29

>  <i_i_glide_rotatable_bonds>  (263) 
2

>  <r_i_docking_score>  (263) 
-3.07218

>  <r_i_glide_ligand_efficiency>  (263) 
-0.105937

>  <r_i_glide_ligand_efficiency_sa>  (263) 
-0.325473

>  <r_i_glide_ligand_efficiency_ln>  (263) 
-0.703452

>  <r_i_glide_gscore>  (263) 
-3.07218

>  <r_i_glide_lipo>  (263) 
-0.11413

>  <r_i_glide_hbond>  (263) 
0

>  <r_i_glide_metal>  (263) 
-0

>  <r_i_glide_rewards>  (263) 
-0.664904

>  <r_i_glide_evdw>  (263) 
-27.5403

>  <r_i_glide_ecoul>  (263) 
-6.10756

>  <r_i_glide_erotb>  (263) 
0

>  <r_i_glide_esite>  (263) 
0

>  <r_i_glide_emodel>  (263) 
-40.164

>  <r_i_glide_energy>  (263) 
-33.6479

>  <r_i_glide_einternal>  (263) 
1.01164

>  <r_i_glide_intrahb_reward>  (263) 
-0

>  <i_i_glide_confnum>  (263) 
1

>  <i_i_glide_posenum>  (263) 
30

>  <r_i_glide_eff_state_penalty>  (263) 
0

>  <ligand_id>  (263) 
80

>  <original_smiles>  (263) 
CC1(C)CCC(O)C23CC4C(OO2)C2CC(O)c5occc5C2CC2OC24C13C

>  <smiles>  (263) 
[H]OC1([H])c2oc([H])c([H])c2C2([H])C([H])([H])C3([H])OC34C3([H])C([H])([H])C5(OOC3([H])C2([H])C1([H])[H])C([H])(O[H])C([H])([H])C([H])([H])C(C([H])([H])[H])(C([H])([H])[H])C54C([H])([H])[H]

$$$$
81:0:0
     RDKit          3D

 21 23  0  0  1  0  0  0  0  0999 V2000
    6.1686   -7.6787    1.8597 F   0  0  0  0  0  0  0  0  0  0  0  0
    5.6284   -6.5015    2.1741 C   0  0  0  0  0  0  0  0  0  0  0  0
    6.3240   -5.9819    3.1854 F   0  0  0  0  0  0  0  0  0  0  0  0
    5.7170   -5.5501    0.9469 C   0  0  0  0  0  0  0  0  0  0  0  0
    4.3362   -5.3104    0.7211 N   0  0  0  0  0  0  0  0  0  0  0  0
    3.5430   -5.9105    1.5756 C   0  0  0  0  0  0  0  0  0  0  0  0
    2.2492   -5.7002    1.3942 N   0  0  0  0  0  0  0  0  0  0  0  0
    2.2159   -4.8592    0.2871 N   0  0  0  0  0  0  0  0  0  0  0  0
    3.4932   -4.6396   -0.0911 C   0  0  0  0  0  0  0  0  0  0  0  0
    3.8504   -3.7909   -1.2349 C   0  0  0  0  0  0  0  0  0  0  0  0
    2.8743   -3.0550   -1.9462 C   0  0  0  0  0  0  0  0  0  0  0  0
    3.3144   -2.3096   -3.0461 C   0  0  0  0  0  0  0  0  0  0  0  0
    4.6070   -2.2987   -3.4206 N   0  0  0  0  0  0  0  0  0  0  0  0
    5.4428   -3.0263   -2.6818 C   0  0  0  0  0  0  0  0  0  0  0  0
    5.1475   -3.7485   -1.6039 N   0  0  0  0  0  0  0  0  0  0  0  0
    4.2263   -6.6211    2.4819 O   0  0  0  0  0  0  0  0  0  0  0  0
    6.2185   -4.6082    1.1787 H   0  0  0  0  0  0  0  0  0  0  0  0
    6.1608   -6.0340    0.0766 H   0  0  0  0  0  0  0  0  0  0  0  0
    1.8253   -3.0742   -1.6871 H   0  0  0  0  0  0  0  0  0  0  0  0
    2.6311   -1.7208   -3.6438 H   0  0  0  0  0  0  0  0  0  0  0  0
    6.4763   -2.9892   -2.9726 H   0  0  0  0  0  0  0  0  0  0  0  0
  1  2  1  0
  2 16  1  0
  2  3  1  0
  2  4  1  0
  4  5  1  0
  4 17  1  0
  4 18  1  0
  5  9  1  0
  5  6  1  0
  6  7  2  0
  6 16  1  0
  7  8  1  0
  8  9  2  0
  9 10  1  0
 10 15  1  0
 10 11  2  0
 11 12  1  0
 11 19  1  0
 12 13  2  0
 12 20  1  0
 13 14  1  0
 14 15  2  0
 14 21  1  0
M  END
>  <i_m_ct_stereo_status>  (264) 
1

>  <s_m_source_file>  (264) 
/var/tmp/pbs.5076255.sched01/tmpbzpkhbzu/844yn2io63.sdf

>  <i_m_source_file_index>  (264) 
30

>  <i_lp_mmshare_version>  (264) 
48012

>  <i_f3d_flags>  (264) 
0

>  <s_epik_input>  (264) 
RkMoRikoW0NIMl0xKU9jKG4xMilubmMyLWMzW2NIXVtjSF1uW2NIXW4z

>  <s_epik_cmdline>  (264) 
J2VwaWtfcHl0aG9uJywgJy1waHQnLCAnMi4wJywgJy1waCcsICc3LjAnLCAnLXRuJywgJzgnLCAnLW1hJywgJzIwMCcsICctaW1hZScsICc8aW5maWxlLm1hZT4nLCAnLW9tYWUnLCAnPG91dGZpbGUubWFlPic=

>  <r_lp_tautomer_probability>  (264) 
1

>  <r_epik_Ionization_Penalty>  (264) 
1.79616e-06

>  <r_epik_Ionization_Penalty_Charging>  (264) 
0

>  <r_epik_Ionization_Penalty_Neutral>  (264) 
1.79616e-06

>  <r_epik_State_Penalty>  (264) 
-0

>  <r_epik_Charging_Adjusted_Penalty>  (264) 
0

>  <i_epik_Tot_Q>  (264) 
0

>  <i_epik_Tot_abs_Q>  (264) 
0

>  <s_lp_Force_Field>  (264) 
OPLS3e

>  <r_lp_Energy>  (264) 
18.571

>  <b_lp_Chiralities_Consistent>  (264) 
1

>  <s_lp_Variant>  (264) 
81:0-1

>  <s_i_glide_gridfile>  (264) 
pfpi4k_grid

>  <i_i_glide_lignum>  (264) 
30

>  <i_i_glide_rotatable_bonds>  (264) 
1

>  <r_i_docking_score>  (264) 
-3.76741

>  <r_i_glide_ligand_efficiency>  (264) 
-0.235463

>  <r_i_glide_ligand_efficiency_sa>  (264) 
-0.59333

>  <r_i_glide_ligand_efficiency_ln>  (264) 
-0.998628

>  <r_i_glide_gscore>  (264) 
-3.76741

>  <r_i_glide_lipo>  (264) 
-0.169266

>  <r_i_glide_hbond>  (264) 
0

>  <r_i_glide_metal>  (264) 
-0

>  <r_i_glide_rewards>  (264) 
-2.36006

>  <r_i_glide_evdw>  (264) 
-18.1617

>  <r_i_glide_ecoul>  (264) 
-3.6414

>  <r_i_glide_erotb>  (264) 
0.334652

>  <r_i_glide_esite>  (264) 
-0.118444

>  <r_i_glide_emodel>  (264) 
-27.707

>  <r_i_glide_energy>  (264) 
-21.8031

>  <r_i_glide_einternal>  (264) 
0.110408

>  <r_i_glide_intrahb_reward>  (264) 
-0

>  <i_i_glide_confnum>  (264) 
3

>  <i_i_glide_posenum>  (264) 
16

>  <r_i_glide_eff_state_penalty>  (264) 
0

>  <ligand_id>  (264) 
81

>  <original_smiles>  (264) 
FC1(F)Cn2c(nnc2-c2ccncn2)O1

>  <smiles>  (264) 
[H]c1nc([H])c([H])c(-c2nnc3n2C([H])([H])C(F)(F)O3)n1

$$$$
81:0:1
     RDKit          3D

 21 23  0  0  1  0  0  0  0  0999 V2000
    4.8673   -8.9064    1.3797 F   0  0  0  0  0  0  0  0  0  0  0  0
    4.4805   -7.7976    2.0076 C   0  0  0  0  0  0  0  0  0  0  0  0
    4.8886   -7.8652    3.2731 F   0  0  0  0  0  0  0  0  0  0  0  0
    5.1372   -6.5681    1.3224 C   0  0  0  0  0  0  0  0  0  0  0  0
    3.9710   -5.8766    0.8849 N   0  0  0  0  0  0  0  0  0  0  0  0
    2.8519   -6.4612    1.2284 C   0  0  0  0  0  0  0  0  0  0  0  0
    1.7442   -5.8483    0.8389 N   0  0  0  0  0  0  0  0  0  0  0  0
    2.2243   -4.7212    0.1720 N   0  0  0  0  0  0  0  0  0  0  0  0
    3.5729   -4.7721    0.2127 C   0  0  0  0  0  0  0  0  0  0  0  0
    4.4454   -3.7515   -0.3961 C   0  0  0  0  0  0  0  0  0  0  0  0
    3.9159   -2.5774   -0.9723 C   0  0  0  0  0  0  0  0  0  0  0  0
    4.8358   -1.6635   -1.5153 C   0  0  0  0  0  0  0  0  0  0  0  0
    6.1648   -1.8920   -1.4900 N   0  0  0  0  0  0  0  0  0  0  0  0
    6.5580   -3.0312   -0.9243 C   0  0  0  0  0  0  0  0  0  0  0  0
    5.7803   -3.9607   -0.3669 N   0  0  0  0  0  0  0  0  0  0  0  0
    3.0587   -7.5942    1.9097 O   0  0  0  0  0  0  0  0  0  0  0  0
    5.6976   -5.9449    2.0186 H   0  0  0  0  0  0  0  0  0  0  0  0
    5.7571   -6.8447    0.4739 H   0  0  0  0  0  0  0  0  0  0  0  0
    2.8534   -2.3683   -0.9999 H   0  0  0  0  0  0  0  0  0  0  0  0
    4.5106   -0.7381   -1.9742 H   0  0  0  0  0  0  0  0  0  0  0  0
    7.6182   -3.2058   -0.9103 H   0  0  0  0  0  0  0  0  0  0  0  0
  1  2  1  0
  2 16  1  0
  2  3  1  0
  2  4  1  0
  4  5  1  0
  4 17  1  0
  4 18  1  0
  5  9  1  0
  5  6  1  0
  6  7  2  0
  6 16  1  0
  7  8  1  0
  8  9  2  0
  9 10  1  0
 10 15  1  0
 10 11  2  0
 11 12  1  0
 11 19  1  0
 12 13  2  0
 12 20  1  0
 13 14  1  0
 14 15  2  0
 14 21  1  0
M  END
>  <i_m_ct_stereo_status>  (265) 
1

>  <s_m_source_file>  (265) 
/var/tmp/pbs.5076255.sched01/tmpbzpkhbzu/844yn2io63.sdf

>  <i_m_source_file_index>  (265) 
30

>  <i_lp_mmshare_version>  (265) 
48012

>  <i_f3d_flags>  (265) 
0

>  <s_epik_input>  (265) 
RkMoRikoW0NIMl0xKU9jKG4xMilubmMyLWMzW2NIXVtjSF1uW2NIXW4z

>  <s_epik_cmdline>  (265) 
J2VwaWtfcHl0aG9uJywgJy1waHQnLCAnMi4wJywgJy1waCcsICc3LjAnLCAnLXRuJywgJzgnLCAnLW1hJywgJzIwMCcsICctaW1hZScsICc8aW5maWxlLm1hZT4nLCAnLW9tYWUnLCAnPG91dGZpbGUubWFlPic=

>  <r_lp_tautomer_probability>  (265) 
1

>  <r_epik_Ionization_Penalty>  (265) 
1.79616e-06

>  <r_epik_Ionization_Penalty_Charging>  (265) 
0

>  <r_epik_Ionization_Penalty_Neutral>  (265) 
1.79616e-06

>  <r_epik_State_Penalty>  (265) 
-0

>  <r_epik_Charging_Adjusted_Penalty>  (265) 
0

>  <i_epik_Tot_Q>  (265) 
0

>  <i_epik_Tot_abs_Q>  (265) 
0

>  <s_lp_Force_Field>  (265) 
OPLS3e

>  <r_lp_Energy>  (265) 
18.571

>  <b_lp_Chiralities_Consistent>  (265) 
1

>  <s_lp_Variant>  (265) 
81:0-1

>  <s_i_glide_gridfile>  (265) 
pfpi4k_grid

>  <i_i_glide_lignum>  (265) 
30

>  <i_i_glide_rotatable_bonds>  (265) 
1

>  <r_i_docking_score>  (265) 
-3.68867

>  <r_i_glide_ligand_efficiency>  (265) 
-0.230542

>  <r_i_glide_ligand_efficiency_sa>  (265) 
-0.580929

>  <r_i_glide_ligand_efficiency_ln>  (265) 
-0.977755

>  <r_i_glide_gscore>  (265) 
-3.68867

>  <r_i_glide_lipo>  (265) 
-0.117107

>  <r_i_glide_hbond>  (265) 
-0.137593

>  <r_i_glide_metal>  (265) 
-0

>  <r_i_glide_rewards>  (265) 
-2.02568

>  <r_i_glide_evdw>  (265) 
-17.1728

>  <r_i_glide_ecoul>  (265) 
-4.699

>  <r_i_glide_erotb>  (265) 
0.334652

>  <r_i_glide_esite>  (265) 
-0.179451

>  <r_i_glide_emodel>  (265) 
-27.6954

>  <r_i_glide_energy>  (265) 
-21.8718

>  <r_i_glide_einternal>  (265) 
0.0677651

>  <r_i_glide_intrahb_reward>  (265) 
-0

>  <i_i_glide_confnum>  (265) 
1

>  <i_i_glide_posenum>  (265) 
6

>  <r_i_glide_eff_state_penalty>  (265) 
0

>  <ligand_id>  (265) 
81

>  <original_smiles>  (265) 
FC1(F)Cn2c(nnc2-c2ccncn2)O1

>  <smiles>  (265) 
[H]c1nc([H])c([H])c(-c2nnc3n2C([H])([H])C(F)(F)O3)n1

$$$$
81:0:2
     RDKit          3D

 21 23  0  0  1  0  0  0  0  0999 V2000
    5.3990   -3.3965    3.6608 F   0  0  0  0  0  0  0  0  0  0  0  0
    4.1950   -3.0207    3.2371 C   0  0  0  0  0  0  0  0  0  0  0  0
    3.7242   -2.1207    4.1009 F   0  0  0  0  0  0  0  0  0  0  0  0
    4.3137   -2.3873    1.8238 C   0  0  0  0  0  0  0  0  0  0  0  0
    3.5057   -3.3002    1.0831 N   0  0  0  0  0  0  0  0  0  0  0  0
    2.9877   -4.2578    1.7977 C   0  0  0  0  0  0  0  0  0  0  0  0
    2.2215   -5.1305    1.1476 N   0  0  0  0  0  0  0  0  0  0  0  0
    2.2454   -4.6429   -0.1537 N   0  0  0  0  0  0  0  0  0  0  0  0
    3.0465   -3.5508   -0.1598 C   0  0  0  0  0  0  0  0  0  0  0  0
    3.3444   -2.7717   -1.3712 C   0  0  0  0  0  0  0  0  0  0  0  0
    2.7088   -3.0548   -2.5998 C   0  0  0  0  0  0  0  0  0  0  0  0
    3.0586   -2.2562   -3.6984 C   0  0  0  0  0  0  0  0  0  0  0  0
    3.9678   -1.2747   -3.5973 N   0  0  0  0  0  0  0  0  0  0  0  0
    4.4795   -1.0681   -2.3898 C   0  0  0  0  0  0  0  0  0  0  0  0
    4.2423   -1.7654   -1.2869 N   0  0  0  0  0  0  0  0  0  0  0  0
    3.3176   -4.1512    3.0838 O   0  0  0  0  0  0  0  0  0  0  0  0
    3.8740   -1.3897    1.7762 H   0  0  0  0  0  0  0  0  0  0  0  0
    5.3344   -2.3994    1.4366 H   0  0  0  0  0  0  0  0  0  0  0  0
    1.9912   -3.8561   -2.7146 H   0  0  0  0  0  0  0  0  0  0  0  0
    2.6325   -2.4219   -4.6784 H   0  0  0  0  0  0  0  0  0  0  0  0
    5.2042   -0.2841   -2.3180 H   0  0  0  0  0  0  0  0  0  0  0  0
  1  2  1  0
  2 16  1  0
  2  3  1  0
  2  4  1  0
  4  5  1  0
  4 17  1  0
  4 18  1  0
  5  9  1  0
  5  6  1  0
  6  7  2  0
  6 16  1  0
  7  8  1  0
  8  9  2  0
  9 10  1  0
 10 15  1  0
 10 11  2  0
 11 12  1  0
 11 19  1  0
 12 13  2  0
 12 20  1  0
 13 14  1  0
 14 15  2  0
 14 21  1  0
M  END
>  <i_m_ct_stereo_status>  (266) 
1

>  <s_m_source_file>  (266) 
/var/tmp/pbs.5076255.sched01/tmpbzpkhbzu/844yn2io63.sdf

>  <i_m_source_file_index>  (266) 
30

>  <i_lp_mmshare_version>  (266) 
48012

>  <i_f3d_flags>  (266) 
0

>  <s_epik_input>  (266) 
RkMoRikoW0NIMl0xKU9jKG4xMilubmMyLWMzW2NIXVtjSF1uW2NIXW4z

>  <s_epik_cmdline>  (266) 
J2VwaWtfcHl0aG9uJywgJy1waHQnLCAnMi4wJywgJy1waCcsICc3LjAnLCAnLXRuJywgJzgnLCAnLW1hJywgJzIwMCcsICctaW1hZScsICc8aW5maWxlLm1hZT4nLCAnLW9tYWUnLCAnPG91dGZpbGUubWFlPic=

>  <r_lp_tautomer_probability>  (266) 
1

>  <r_epik_Ionization_Penalty>  (266) 
1.79616e-06

>  <r_epik_Ionization_Penalty_Charging>  (266) 
0

>  <r_epik_Ionization_Penalty_Neutral>  (266) 
1.79616e-06

>  <r_epik_State_Penalty>  (266) 
-0

>  <r_epik_Charging_Adjusted_Penalty>  (266) 
0

>  <i_epik_Tot_Q>  (266) 
0

>  <i_epik_Tot_abs_Q>  (266) 
0

>  <s_lp_Force_Field>  (266) 
OPLS3e

>  <r_lp_Energy>  (266) 
18.571

>  <b_lp_Chiralities_Consistent>  (266) 
1

>  <s_lp_Variant>  (266) 
81:0-1

>  <s_i_glide_gridfile>  (266) 
pfpi4k_grid

>  <i_i_glide_lignum>  (266) 
30

>  <i_i_glide_rotatable_bonds>  (266) 
1

>  <r_i_docking_score>  (266) 
-3.38121

>  <r_i_glide_ligand_efficiency>  (266) 
-0.211325

>  <r_i_glide_ligand_efficiency_sa>  (266) 
-0.532507

>  <r_i_glide_ligand_efficiency_ln>  (266) 
-0.896257

>  <r_i_glide_gscore>  (266) 
-3.38121

>  <r_i_glide_lipo>  (266) 
-0.232006

>  <r_i_glide_hbond>  (266) 
0

>  <r_i_glide_metal>  (266) 
-0

>  <r_i_glide_rewards>  (266) 
-1.91732

>  <r_i_glide_evdw>  (266) 
-18.5991

>  <r_i_glide_ecoul>  (266) 
-3.2695

>  <r_i_glide_erotb>  (266) 
0.334652

>  <r_i_glide_esite>  (266) 
-0.146156

>  <r_i_glide_emodel>  (266) 
-27.1789

>  <r_i_glide_energy>  (266) 
-21.8686

>  <r_i_glide_einternal>  (266) 
0.0903401

>  <r_i_glide_intrahb_reward>  (266) 
-0

>  <i_i_glide_confnum>  (266) 
1

>  <i_i_glide_posenum>  (266) 
2

>  <r_i_glide_eff_state_penalty>  (266) 
0

>  <ligand_id>  (266) 
81

>  <original_smiles>  (266) 
FC1(F)Cn2c(nnc2-c2ccncn2)O1

>  <smiles>  (266) 
[H]c1nc([H])c([H])c(-c2nnc3n2C([H])([H])C(F)(F)O3)n1

$$$$
82:0:0
     RDKit          3D

 54 59  0  0  1  0  0  0  0  0999 V2000
    2.5322  -11.9382    3.9571 C   0  0  0  0  0  0  0  0  0  0  0  0
    2.3168  -11.2978    5.2811 N   0  0  1  0  0  0  0  0  0  0  0  0
    3.6438  -10.9408    5.9465 C   0  0  0  0  0  0  0  0  0  0  0  0
    3.9457   -9.4172    6.2102 C   0  0  0  0  0  0  0  0  0  0  0  0
    2.7357   -8.6098    5.7725 C   0  0  1  0  0  0  0  0  0  0  0  0
    3.0074   -8.9581    4.3648 O   0  0  0  0  0  0  0  0  0  0  0  0
    1.9758   -8.0936    3.9981 C   0  0  1  0  0  0  0  0  0  0  0  0
    2.1910   -7.4542    2.5982 C   0  0  0  0  0  0  0  0  0  0  0  0
    1.1720   -7.1282    1.9924 O   0  0  0  0  0  0  0  0  0  0  0  0
    3.4376   -7.3005    2.0738 N   0  0  0  0  0  0  0  0  0  0  0  0
    4.7352   -7.7266    2.6389 C   0  0  0  0  0  0  0  0  0  0  0  0
    5.6877   -6.5459    2.7511 C   0  0  0  0  0  0  0  0  0  0  0  0
    5.8979   -5.9702    1.4716 O   0  0  0  0  0  0  0  0  0  0  0  0
    4.6781   -5.4807    0.9354 C   0  0  0  0  0  0  0  0  0  0  0  0
    3.6519   -6.6245    0.7744 C   0  0  0  0  0  0  0  0  0  0  0  0
    0.9898   -9.3472    4.0042 C   0  0  0  0  0  0  0  0  0  0  0  0
    1.1571  -10.2806    5.3070 C   0  0  2  0  0  0  0  0  0  0  0  0
    1.4468   -9.2573    6.3989 C   0  0  1  0  0  0  0  0  0  0  0  0
    1.6651   -9.8033    7.6915 O   0  0  0  0  0  0  0  0  0  0  0  0
    0.2472   -8.2752    6.6594 C   0  0  0  0  0  0  0  0  0  0  0  0
    0.6309   -6.8192    6.8274 C   0  0  0  0  0  0  0  0  0  0  0  0
   -0.0657   -5.9884    7.7260 C   0  0  0  0  0  0  0  0  0  0  0  0
    0.2897   -4.6306    7.8515 C   0  0  0  0  0  0  0  0  0  0  0  0
    1.3377   -4.0997    7.0712 C   0  0  0  0  0  0  0  0  0  0  0  0
    2.0427   -4.9273    6.1768 C   0  0  0  0  0  0  0  0  0  0  0  0
    1.6879   -6.2889    6.0650 C   0  0  0  0  0  0  0  0  0  0  0  0
    2.5081   -7.2232    5.2080 C   0  0  1  0  0  0  0  0  0  0  0  0
    3.0259  -11.2632    3.2495 H   0  0  0  0  0  0  0  0  0  0  0  0
    1.5844  -12.2531    3.5221 H   0  0  0  0  0  0  0  0  0  0  0  0
    3.1796  -12.8128    4.0625 H   0  0  0  0  0  0  0  0  0  0  0  0
    3.6744  -11.4634    6.9067 H   0  0  0  0  0  0  0  0  0  0  0  0
    4.4876  -11.3757    5.3963 H   0  0  0  0  0  0  0  0  0  0  0  0
    4.1734   -9.2655    7.2609 H   0  0  0  0  0  0  0  0  0  0  0  0
    4.8519   -9.1069    5.6982 H   0  0  0  0  0  0  0  0  0  0  0  0
    4.7616   -8.0137    3.6715 H   0  0  0  0  0  0  0  0  0  0  0  0
    5.1244   -8.5649    2.0587 H   0  0  0  0  0  0  0  0  0  0  0  0
    5.2875   -5.8101    3.4587 H   0  0  0  0  0  0  0  0  0  0  0  0
    6.6179   -6.9143    3.1834 H   0  0  0  0  0  0  0  0  0  0  0  0
    4.2818   -4.6964    1.5829 H   0  0  0  0  0  0  0  0  0  0  0  0
    4.9124   -5.0247   -0.0257 H   0  0  0  0  0  0  0  0  0  0  0  0
    4.0319   -7.3458    0.0528 H   0  0  0  0  0  0  0  0  0  0  0  0
    2.7435   -6.2023    0.3300 H   0  0  0  0  0  0  0  0  0  0  0  0
   -0.0398   -9.0049    3.9246 H   0  0  0  0  0  0  0  0  0  0  0  0
    1.1114   -9.9334    3.0950 H   0  0  0  0  0  0  0  0  0  0  0  0
    0.2274  -10.8391    5.4996 H   0  0  0  0  0  0  0  0  0  0  0  0
    1.4635  -10.7781    7.6828 H   0  0  0  0  0  0  0  0  0  0  0  0
   -0.4631   -8.2791    5.8365 H   0  0  0  0  0  0  0  0  0  0  0  0
   -0.3427   -8.6176    7.5100 H   0  0  0  0  0  0  0  0  0  0  0  0
   -0.8641   -6.3886    8.3237 H   0  0  0  0  0  0  0  0  0  0  0  0
   -0.2400   -4.0044    8.5438 H   0  0  0  0  0  0  0  0  0  0  0  0
    1.6105   -3.0632    7.1705 H   0  0  0  0  0  0  0  0  0  0  0  0
    2.8713   -4.5266    5.6081 H   0  0  0  0  0  0  0  0  0  0  0  0
    3.4516   -6.7350    4.9661 H   0  0  0  0  0  0  0  0  0  0  0  0
    1.9835  -12.0532    5.8911 H   0  0  0  0  0  0  0  0  0  0  0  0
  1  2  1  0
  1 28  1  0
  1 29  1  0
  1 30  1  0
  2 17  1  0
  2  3  1  0
  2 54  1  1
  3  4  1  0
  3 31  1  0
  3 32  1  0
  5  4  1  1
  4 33  1  0
  4 34  1  0
  5 18  1  0
  5 27  1  0
  5  6  1  0
  6  7  1  0
  7 27  1  0
  7  8  1  6
  7 16  1  0
  8  9  2  0
  8 10  1  0
 10 15  1  0
 10 11  1  0
 11 12  1  0
 11 35  1  0
 11 36  1  0
 12 13  1  0
 12 37  1  0
 12 38  1  0
 13 14  1  0
 14 15  1  0
 14 39  1  0
 14 40  1  0
 15 41  1  0
 15 42  1  0
 16 17  1  0
 16 43  1  0
 16 44  1  0
 17 18  1  0
 17 45  1  1
 18 19  1  1
 18 20  1  0
 19 46  1  0
 20 21  1  0
 20 47  1  0
 20 48  1  0
 21 26  2  0
 21 22  1  0
 22 23  2  0
 22 49  1  0
 23 24  1  0
 23 50  1  0
 24 25  2  0
 24 51  1  0
 25 26  1  0
 25 52  1  0
 26 27  1  0
 27 53  1  6
M  CHG  1   2   1
M  END
>  <i_m_ct_stereo_status>  (267) 
1

>  <s_m_source_file>  (267) 
/var/tmp/pbs.5076255.sched01/tmpbzpkhbzu/844yn2io63.sdf

>  <i_m_source_file_index>  (267) 
31

>  <i_lp_mmshare_version>  (267) 
48012

>  <i_f3d_flags>  (267) 
0

>  <s_epik_input>  (267) 
W2NIXTFbY0hdW2NIXVtjSF1jKFtDSDJdMiljMVtDQEBIXTNbQ0BAXShPNCkoW0NIMl1bQ0BIXShbQ0BdMihbQ0BdMzQ1KVtPSF0pTihbQ0gzXSlbQ0gyXVtDSDJdNSlDKD1PKU42W0NIMl1bQ0gyXU9bQ0gyXVtDSDJdNg==

>  <s_epik_cmdline>  (267) 
J2VwaWtfcHl0aG9uJywgJy1waHQnLCAnMi4wJywgJy1waCcsICc3LjAnLCAnLXRuJywgJzgnLCAnLW1hJywgJzIwMCcsICctaW1hZScsICc8aW5maWxlLm1hZT4nLCAnLW9tYWUnLCAnPG91dGZpbGUubWFlPic=

>  <r_epik_Ionization_Penalty>  (267) 
0.217586

>  <r_epik_Ionization_Penalty_Charging>  (267) 
0.217585

>  <r_epik_Ionization_Penalty_Neutral>  (267) 
1.47812e-06

>  <r_epik_State_Penalty>  (267) 
0.207845

>  <r_epik_Charging_Adjusted_Penalty>  (267) 
0.42543

>  <i_epik_Tot_Q>  (267) 
1

>  <i_epik_Tot_abs_Q>  (267) 
1

>  <s_lp_Force_Field>  (267) 
OPLS3e

>  <r_lp_Energy>  (267) 
138.162

>  <b_lp_Chiralities_Consistent>  (267) 
1

>  <s_lp_Variant>  (267) 
82:0-1

>  <s_i_glide_gridfile>  (267) 
pfpi4k_grid

>  <i_i_glide_lignum>  (267) 
31

>  <i_i_glide_rotatable_bonds>  (267) 
3

>  <r_i_docking_score>  (267) 
-4.3456

>  <r_i_glide_ligand_efficiency>  (267) 
-0.160948

>  <r_i_glide_ligand_efficiency_sa>  (267) 
-0.482845

>  <r_i_glide_ligand_efficiency_ln>  (267) 
-1.01159

>  <r_i_glide_gscore>  (267) 
-4.3456

>  <r_i_glide_lipo>  (267) 
-0.135408

>  <r_i_glide_hbond>  (267) 
-0.32866

>  <r_i_glide_metal>  (267) 
-0

>  <r_i_glide_rewards>  (267) 
-1.43842

>  <r_i_glide_evdw>  (267) 
-14.4578

>  <r_i_glide_ecoul>  (267) 
-12.0765

>  <r_i_glide_erotb>  (267) 
0.195866

>  <r_i_glide_esite>  (267) 
-0.104619

>  <r_i_glide_emodel>  (267) 
-36.4589

>  <r_i_glide_energy>  (267) 
-26.5342

>  <r_i_glide_einternal>  (267) 
2.66591

>  <r_i_glide_intrahb_reward>  (267) 
-0

>  <i_i_glide_confnum>  (267) 
4

>  <i_i_glide_posenum>  (267) 
2

>  <r_i_glide_eff_state_penalty>  (267) 
0

>  <ligand_id>  (267) 
82

>  <original_smiles>  (267) 
CN1CCC23OC4(C(=O)N5CCOCC5)CC1C2(O)Cc1ccccc1C43

>  <smiles>  (267) 
[H]OC12C([H])([H])c3c([H])c([H])c([H])c([H])c3C3([H])C4(C(=O)N5C([H])([H])C([H])([H])OC([H])([H])C5([H])[H])OC31C([H])([H])C([H])([H])[N+]([H])(C([H])([H])[H])C2([H])C4([H])[H]

$$$$
82:0:1
     RDKit          3D

 54 59  0  0  1  0  0  0  0  0999 V2000
    5.3102  -12.7249    3.5541 C   0  0  0  0  0  0  0  0  0  0  0  0
    3.9659  -12.3912    4.1211 N   0  0  1  0  0  0  0  0  0  0  0  0
    4.0149  -12.0513    5.6075 C   0  0  0  0  0  0  0  0  0  0  0  0
    3.4647  -10.6498    6.0803 C   0  0  0  0  0  0  0  0  0  0  0  0
    2.9191   -9.9081    4.8784 C   0  0  1  0  0  0  0  0  0  0  0  0
    4.3152   -9.7579    4.4192 O   0  0  0  0  0  0  0  0  0  0  0  0
    3.8454   -9.0415    3.3175 C   0  0  1  0  0  0  0  0  0  0  0  0
    4.8598   -8.0454    2.7452 C   0  0  0  0  0  0  0  0  0  0  0  0
    4.3596   -7.0429    2.2113 O   0  0  0  0  0  0  0  0  0  0  0  0
    6.2191   -8.2516    2.7424 N   0  0  0  0  0  0  0  0  0  0  0  0
    6.9549   -9.3958    3.3080 C   0  0  0  0  0  0  0  0  0  0  0  0
    7.9848   -8.9074    4.3254 C   0  0  0  0  0  0  0  0  0  0  0  0
    8.9213   -8.0595    3.6849 O   0  0  0  0  0  0  0  0  0  0  0  0
    8.2613   -6.9297    3.1305 C   0  0  0  0  0  0  0  0  0  0  0  0
    7.1742   -7.3384    2.1047 C   0  0  0  0  0  0  0  0  0  0  0  0
    3.7128  -10.3544    2.4549 C   0  0  0  0  0  0  0  0  0  0  0  0
    3.0446  -11.5643    3.2287 C   0  0  2  0  0  0  0  0  0  0  0  0
    1.9843  -10.8752    4.0717 C   0  0  1  0  0  0  0  0  0  0  0  0
    1.2564  -11.8231    4.8460 O   0  0  0  0  0  0  0  0  0  0  0  0
    0.8599  -10.1895    3.2190 C   0  0  0  0  0  0  0  0  0  0  0  0
    0.4747   -8.7917    3.6628 C   0  0  0  0  0  0  0  0  0  0  0  0
   -0.8635   -8.3609    3.5823 C   0  0  0  0  0  0  0  0  0  0  0  0
   -1.1864   -7.0612    4.0173 C   0  0  0  0  0  0  0  0  0  0  0  0
   -0.1937   -6.1899    4.5156 C   0  0  0  0  0  0  0  0  0  0  0  0
    1.1432   -6.6192    4.5964 C   0  0  0  0  0  0  0  0  0  0  0  0
    1.4609   -7.9271    4.1739 C   0  0  0  0  0  0  0  0  0  0  0  0
    2.8452   -8.4644    4.4123 C   0  0  1  0  0  0  0  0  0  0  0  0
    5.9877  -11.8818    3.6211 H   0  0  0  0  0  0  0  0  0  0  0  0
    5.2520  -13.0067    2.4889 H   0  0  0  0  0  0  0  0  0  0  0  0
    5.8070  -13.5206    4.1313 H   0  0  0  0  0  0  0  0  0  0  0  0
    3.4264  -12.8140    6.1043 H   0  0  0  0  0  0  0  0  0  0  0  0
    5.0158  -12.2087    6.0088 H   0  0  0  0  0  0  0  0  0  0  0  0
    2.7119  -10.7796    6.8522 H   0  0  0  0  0  0  0  0  0  0  0  0
    4.2541  -10.0965    6.5750 H   0  0  0  0  0  0  0  0  0  0  0  0
    6.4070   -9.9888    4.0049 H   0  0  0  0  0  0  0  0  0  0  0  0
    7.3627  -10.0161    2.4906 H   0  0  0  0  0  0  0  0  0  0  0  0
    7.4757   -8.3983    5.1547 H   0  0  0  0  0  0  0  0  0  0  0  0
    8.4522   -9.7908    4.7605 H   0  0  0  0  0  0  0  0  0  0  0  0
    7.8180   -6.3421    3.9362 H   0  0  0  0  0  0  0  0  0  0  0  0
    9.0348   -6.3303    2.6597 H   0  0  0  0  0  0  0  0  0  0  0  0
    7.6422   -7.8470    1.2571 H   0  0  0  0  0  0  0  0  0  0  0  0
    6.7277   -6.4241    1.6914 H   0  0  0  0  0  0  0  0  0  0  0  0
    3.1460  -10.1590    1.5541 H   0  0  0  0  0  0  0  0  0  0  0  0
    4.6749  -10.6481    2.0534 H   0  0  0  0  0  0  0  0  0  0  0  0
    2.6183  -12.2582    2.5037 H   0  0  0  0  0  0  0  0  0  0  0  0
    1.7196  -12.0128    5.6525 H   0  0  0  0  0  0  0  0  0  0  0  0
    1.1583  -10.0719    2.1804 H   0  0  0  0  0  0  0  0  0  0  0  0
   -0.0117  -10.8374    3.1658 H   0  0  0  0  0  0  0  0  0  0  0  0
   -1.6208   -9.0415    3.2231 H   0  0  0  0  0  0  0  0  0  0  0  0
   -2.2078   -6.7351    3.9709 H   0  0  0  0  0  0  0  0  0  0  0  0
   -0.4426   -5.1936    4.8501 H   0  0  0  0  0  0  0  0  0  0  0  0
    1.9124   -5.9783    5.0182 H   0  0  0  0  0  0  0  0  0  0  0  0
    3.3649   -7.7869    5.0904 H   0  0  0  0  0  0  0  0  0  0  0  0
    3.4976  -13.2953    4.1182 H   0  0  0  0  0  0  0  0  0  0  0  0
  1  2  1  0
  1 28  1  0
  1 29  1  0
  1 30  1  0
  2 17  1  0
  2  3  1  0
  2 54  1  1
  3  4  1  0
  3 31  1  0
  3 32  1  0
  5  4  1  1
  4 33  1  0
  4 34  1  0
  5 18  1  0
  5 27  1  0
  5  6  1  0
  6  7  1  0
  7 27  1  0
  7  8  1  6
  7 16  1  0
  8  9  2  0
  8 10  1  0
 10 15  1  0
 10 11  1  0
 11 12  1  0
 11 35  1  0
 11 36  1  0
 12 13  1  0
 12 37  1  0
 12 38  1  0
 13 14  1  0
 14 15  1  0
 14 39  1  0
 14 40  1  0
 15 41  1  0
 15 42  1  0
 16 17  1  0
 16 43  1  0
 16 44  1  0
 17 18  1  0
 17 45  1  6
 18 19  1  1
 18 20  1  0
 19 46  1  0
 20 21  1  0
 20 47  1  0
 20 48  1  0
 21 26  2  0
 21 22  1  0
 22 23  2  0
 22 49  1  0
 23 24  1  0
 23 50  1  0
 24 25  2  0
 24 51  1  0
 25 26  1  0
 25 52  1  0
 26 27  1  0
 27 53  1  1
M  CHG  1   2   1
M  END
>  <i_m_ct_stereo_status>  (268) 
1

>  <s_m_source_file>  (268) 
/var/tmp/pbs.5076255.sched01/tmpbzpkhbzu/844yn2io63.sdf

>  <i_m_source_file_index>  (268) 
31

>  <i_lp_mmshare_version>  (268) 
48012

>  <i_f3d_flags>  (268) 
0

>  <s_epik_input>  (268) 
W2NIXTFbY0hdW2NIXVtjSF1jKFtDSDJdMiljMVtDQEBIXTNbQ0BAXShPNCkoW0NIMl1bQ0BIXShbQ0BdMihbQ0BdMzQ1KVtPSF0pTihbQ0gzXSlbQ0gyXVtDSDJdNSlDKD1PKU42W0NIMl1bQ0gyXU9bQ0gyXVtDSDJdNg==

>  <s_epik_cmdline>  (268) 
J2VwaWtfcHl0aG9uJywgJy1waHQnLCAnMi4wJywgJy1waCcsICc3LjAnLCAnLXRuJywgJzgnLCAnLW1hJywgJzIwMCcsICctaW1hZScsICc8aW5maWxlLm1hZT4nLCAnLW9tYWUnLCAnPG91dGZpbGUubWFlPic=

>  <r_epik_Ionization_Penalty>  (268) 
0.217586

>  <r_epik_Ionization_Penalty_Charging>  (268) 
0.217585

>  <r_epik_Ionization_Penalty_Neutral>  (268) 
1.47812e-06

>  <r_epik_State_Penalty>  (268) 
0.207845

>  <r_epik_Charging_Adjusted_Penalty>  (268) 
0.42543

>  <i_epik_Tot_Q>  (268) 
1

>  <i_epik_Tot_abs_Q>  (268) 
1

>  <s_lp_Force_Field>  (268) 
OPLS3e

>  <r_lp_Energy>  (268) 
138.162

>  <b_lp_Chiralities_Consistent>  (268) 
1

>  <s_lp_Variant>  (268) 
82:0-1

>  <s_i_glide_gridfile>  (268) 
pfpi4k_grid

>  <i_i_glide_lignum>  (268) 
31

>  <i_i_glide_rotatable_bonds>  (268) 
3

>  <r_i_docking_score>  (268) 
-2.92279

>  <r_i_glide_ligand_efficiency>  (268) 
-0.108252

>  <r_i_glide_ligand_efficiency_sa>  (268) 
-0.324755

>  <r_i_glide_ligand_efficiency_ln>  (268) 
-0.680378

>  <r_i_glide_gscore>  (268) 
-2.92279

>  <r_i_glide_lipo>  (268) 
-0.149637

>  <r_i_glide_hbond>  (268) 
-0.121982

>  <r_i_glide_metal>  (268) 
-0

>  <r_i_glide_rewards>  (268) 
-0.908626

>  <r_i_glide_evdw>  (268) 
-21.3325

>  <r_i_glide_ecoul>  (268) 
-6.20208

>  <r_i_glide_erotb>  (268) 
0.279808

>  <r_i_glide_esite>  (268) 
-0.0254204

>  <r_i_glide_emodel>  (268) 
-33.7475

>  <r_i_glide_energy>  (268) 
-27.5345

>  <r_i_glide_einternal>  (268) 
1.09996

>  <r_i_glide_intrahb_reward>  (268) 
-0

>  <i_i_glide_confnum>  (268) 
3

>  <i_i_glide_posenum>  (268) 
39

>  <r_i_glide_eff_state_penalty>  (268) 
0

>  <ligand_id>  (268) 
82

>  <original_smiles>  (268) 
CN1CCC23OC4(C(=O)N5CCOCC5)CC1C2(O)Cc1ccccc1C43

>  <smiles>  (268) 
[H]OC12C([H])([H])c3c([H])c([H])c([H])c([H])c3C3([H])C4(C(=O)N5C([H])([H])C([H])([H])OC([H])([H])C5([H])[H])OC31C([H])([H])C([H])([H])[N+]([H])(C([H])([H])[H])C2([H])C4([H])[H]

$$$$
82:0:2
     RDKit          3D

 54 59  0  0  1  0  0  0  0  0999 V2000
    5.2974  -12.5970    3.5114 C   0  0  0  0  0  0  0  0  0  0  0  0
    3.9297  -12.3976    4.0691 N   0  0  1  0  0  0  0  0  0  0  0  0
    4.0072  -12.0366    5.5528 C   0  0  0  0  0  0  0  0  0  0  0  0
    3.4720  -10.6166    5.9916 C   0  0  0  0  0  0  0  0  0  0  0  0
    2.8961   -9.9085    4.7921 C   0  0  1  0  0  0  0  0  0  0  0  0
    4.3014   -9.7720    4.2635 O   0  0  0  0  0  0  0  0  0  0  0  0
    3.7554   -9.0194    3.2225 C   0  0  1  0  0  0  0  0  0  0  0  0
    4.8066   -8.0383    2.6747 C   0  0  0  0  0  0  0  0  0  0  0  0
    4.6428   -7.6787    1.5099 O   0  0  0  0  0  0  0  0  0  0  0  0
    5.8758   -7.5872    3.4160 N   0  0  0  0  0  0  0  0  0  0  0  0
    6.1956   -7.7731    4.8461 C   0  0  0  0  0  0  0  0  0  0  0  0
    7.5471   -8.4942    4.9360 C   0  0  0  0  0  0  0  0  0  0  0  0
    8.5332   -7.6362    4.3963 O   0  0  0  0  0  0  0  0  0  0  0  0
    8.2966   -7.3381    3.0267 C   0  0  0  0  0  0  0  0  0  0  0  0
    6.9013   -6.7084    2.8274 C   0  0  0  0  0  0  0  0  0  0  0  0
    3.6368  -10.3542    2.3622 C   0  0  0  0  0  0  0  0  0  0  0  0
    2.9952  -11.5918    3.1675 C   0  0  2  0  0  0  0  0  0  0  0  0
    1.9696  -10.8773    4.0364 C   0  0  1  0  0  0  0  0  0  0  0  0
    1.2375  -11.7919    4.8387 O   0  0  0  0  0  0  0  0  0  0  0  0
    0.8201  -10.1989    3.2067 C   0  0  0  0  0  0  0  0  0  0  0  0
    0.4307   -8.7969    3.6517 C   0  0  0  0  0  0  0  0  0  0  0  0
   -0.8981   -8.3646    3.5769 C   0  0  0  0  0  0  0  0  0  0  0  0
   -1.2300   -7.0695    4.0028 C   0  0  0  0  0  0  0  0  0  0  0  0
   -0.2318   -6.1968    4.4810 C   0  0  0  0  0  0  0  0  0  0  0  0
    1.1039   -6.6200    4.5539 C   0  0  0  0  0  0  0  0  0  0  0  0
    1.4274   -7.9204    4.1413 C   0  0  0  0  0  0  0  0  0  0  0  0
    2.8164   -8.4579    4.3563 C   0  0  1  0  0  0  0  0  0  0  0  0
    5.8969  -11.6928    3.5709 H   0  0  0  0  0  0  0  0  0  0  0  0
    5.2483  -12.9073    2.4689 H   0  0  0  0  0  0  0  0  0  0  0  0
    5.8343  -13.3658    4.0689 H   0  0  0  0  0  0  0  0  0  0  0  0
    3.4196  -12.7746    6.0906 H   0  0  0  0  0  0  0  0  0  0  0  0
    5.0089  -12.1606    5.9542 H   0  0  0  0  0  0  0  0  0  0  0  0
    2.7071  -10.7165    6.7692 H   0  0  0  0  0  0  0  0  0  0  0  0
    4.2664  -10.0498    6.4699 H   0  0  0  0  0  0  0  0  0  0  0  0
    6.1970   -6.7889    5.3478 H   0  0  0  0  0  0  0  0  0  0  0  0
    5.5201   -8.3814    5.4884 H   0  0  0  0  0  0  0  0  0  0  0  0
    7.7535   -8.7261    5.9731 H   0  0  0  0  0  0  0  0  0  0  0  0
    7.5330   -9.4418    4.3939 H   0  0  0  0  0  0  0  0  0  0  0  0
    9.0841   -6.6572    2.6915 H   0  0  0  0  0  0  0  0  0  0  0  0
    8.3864   -8.2516    2.4396 H   0  0  0  0  0  0  0  0  0  0  0  0
    6.7735   -6.4931    1.7726 H   0  0  0  0  0  0  0  0  0  0  0  0
    6.8587   -5.7398    3.3207 H   0  0  0  0  0  0  0  0  0  0  0  0
    3.0488  -10.1813    1.4551 H   0  0  0  0  0  0  0  0  0  0  0  0
    4.6108  -10.6232    1.9620 H   0  0  0  0  0  0  0  0  0  0  0  0
    2.5394  -12.2984    2.4906 H   0  0  0  0  0  0  0  0  0  0  0  0
    1.6956  -11.9678    5.6635 H   0  0  0  0  0  0  0  0  0  0  0  0
    1.0896  -10.0802    2.1630 H   0  0  0  0  0  0  0  0  0  0  0  0
   -0.0606  -10.8385    3.1822 H   0  0  0  0  0  0  0  0  0  0  0  0
   -1.6710   -9.0542    3.2266 H   0  0  0  0  0  0  0  0  0  0  0  0
   -2.2624   -6.7488    3.9739 H   0  0  0  0  0  0  0  0  0  0  0  0
   -0.4940   -5.1976    4.8148 H   0  0  0  0  0  0  0  0  0  0  0  0
    1.8670   -5.9573    4.9600 H   0  0  0  0  0  0  0  0  0  0  0  0
    3.3346   -7.7998    5.0330 H   0  0  0  0  0  0  0  0  0  0  0  0
    3.5108  -13.2915    4.0781 H   0  0  0  0  0  0  0  0  0  0  0  0
  1  2  1  0
  1 28  1  0
  1 29  1  0
  1 30  1  0
  2 17  1  0
  2  3  1  0
  2 54  1  1
  3  4  1  0
  3 31  1  0
  3 32  1  0
  5  4  1  1
  4 33  1  0
  4 34  1  0
  5 18  1  0
  5 27  1  0
  5  6  1  0
  6  7  1  0
  7 27  1  0
  7  8  1  6
  7 16  1  0
  8  9  2  0
  8 10  1  0
 10 15  1  0
 10 11  1  0
 11 12  1  0
 11 35  1  0
 11 36  1  0
 12 13  1  0
 12 37  1  0
 12 38  1  0
 13 14  1  0
 14 15  1  0
 14 39  1  0
 14 40  1  0
 15 41  1  0
 15 42  1  0
 16 17  1  0
 16 43  1  0
 16 44  1  0
 17 18  1  0
 17 45  1  6
 18 19  1  1
 18 20  1  0
 19 46  1  0
 20 21  1  0
 20 47  1  0
 20 48  1  0
 21 26  2  0
 21 22  1  0
 22 23  2  0
 22 49  1  0
 23 24  1  0
 23 50  1  0
 24 25  2  0
 24 51  1  0
 25 26  1  0
 25 52  1  0
 26 27  1  0
 27 53  1  1
M  CHG  1   2   1
M  END
>  <i_m_ct_stereo_status>  (269) 
1

>  <s_m_source_file>  (269) 
/var/tmp/pbs.5076255.sched01/tmpbzpkhbzu/844yn2io63.sdf

>  <i_m_source_file_index>  (269) 
31

>  <i_lp_mmshare_version>  (269) 
48012

>  <i_f3d_flags>  (269) 
0

>  <s_epik_input>  (269) 
W2NIXTFbY0hdW2NIXVtjSF1jKFtDSDJdMiljMVtDQEBIXTNbQ0BAXShPNCkoW0NIMl1bQ0BIXShbQ0BdMihbQ0BdMzQ1KVtPSF0pTihbQ0gzXSlbQ0gyXVtDSDJdNSlDKD1PKU42W0NIMl1bQ0gyXU9bQ0gyXVtDSDJdNg==

>  <s_epik_cmdline>  (269) 
J2VwaWtfcHl0aG9uJywgJy1waHQnLCAnMi4wJywgJy1waCcsICc3LjAnLCAnLXRuJywgJzgnLCAnLW1hJywgJzIwMCcsICctaW1hZScsICc8aW5maWxlLm1hZT4nLCAnLW9tYWUnLCAnPG91dGZpbGUubWFlPic=

>  <r_epik_Ionization_Penalty>  (269) 
0.217586

>  <r_epik_Ionization_Penalty_Charging>  (269) 
0.217585

>  <r_epik_Ionization_Penalty_Neutral>  (269) 
1.47812e-06

>  <r_epik_State_Penalty>  (269) 
0.207845

>  <r_epik_Charging_Adjusted_Penalty>  (269) 
0.42543

>  <i_epik_Tot_Q>  (269) 
1

>  <i_epik_Tot_abs_Q>  (269) 
1

>  <s_lp_Force_Field>  (269) 
OPLS3e

>  <r_lp_Energy>  (269) 
138.162

>  <b_lp_Chiralities_Consistent>  (269) 
1

>  <s_lp_Variant>  (269) 
82:0-1

>  <s_i_glide_gridfile>  (269) 
pfpi4k_grid

>  <i_i_glide_lignum>  (269) 
31

>  <i_i_glide_rotatable_bonds>  (269) 
3

>  <r_i_docking_score>  (269) 
-2.88969

>  <r_i_glide_ligand_efficiency>  (269) 
-0.107026

>  <r_i_glide_ligand_efficiency_sa>  (269) 
-0.321077

>  <r_i_glide_ligand_efficiency_ln>  (269) 
-0.672673

>  <r_i_glide_gscore>  (269) 
-2.88969

>  <r_i_glide_lipo>  (269) 
-0.0799597

>  <r_i_glide_hbond>  (269) 
-0.128547

>  <r_i_glide_metal>  (269) 
-0

>  <r_i_glide_rewards>  (269) 
-0.876477

>  <r_i_glide_evdw>  (269) 
-20.4495

>  <r_i_glide_ecoul>  (269) 
-6.89726

>  <r_i_glide_erotb>  (269) 
0.279808

>  <r_i_glide_esite>  (269) 
-0.027453

>  <r_i_glide_emodel>  (269) 
-33.8095

>  <r_i_glide_energy>  (269) 
-27.3468

>  <r_i_glide_einternal>  (269) 
1.84228

>  <r_i_glide_intrahb_reward>  (269) 
-0

>  <i_i_glide_confnum>  (269) 
2

>  <i_i_glide_posenum>  (269) 
19

>  <r_i_glide_eff_state_penalty>  (269) 
0

>  <ligand_id>  (269) 
82

>  <original_smiles>  (269) 
CN1CCC23OC4(C(=O)N5CCOCC5)CC1C2(O)Cc1ccccc1C43

>  <smiles>  (269) 
[H]OC12C([H])([H])c3c([H])c([H])c([H])c([H])c3C3([H])C4(C(=O)N5C([H])([H])C([H])([H])OC([H])([H])C5([H])[H])OC31C([H])([H])C([H])([H])[N+]([H])(C([H])([H])[H])C2([H])C4([H])[H]

$$$$
82:1:0
     RDKit          3D

 53 58  0  0  1  0  0  0  0  0999 V2000
    7.9029   -6.7465    1.0346 C   0  0  0  0  0  0  0  0  0  0  0  0
    6.9339   -7.2650    1.9791 N   0  0  0  0  0  0  0  0  0  0  0  0
    6.7435   -6.3733    3.1869 C   0  0  0  0  0  0  0  0  0  0  0  0
    5.3912   -6.4704    3.9939 C   0  0  0  0  0  0  0  0  0  0  0  0
    4.3418   -7.0487    3.0545 C   0  0  1  0  0  0  0  0  0  0  0  0
    4.5176   -5.8630    2.1817 O   0  0  0  0  0  0  0  0  0  0  0  0
    3.5740   -6.4164    1.3135 C   0  0  1  0  0  0  0  0  0  0  0  0
    2.8132   -5.3509    0.4945 C   0  0  0  0  0  0  0  0  0  0  0  0
    1.6124   -5.6084    0.2874 O   0  0  0  0  0  0  0  0  0  0  0  0
    3.4107   -4.2518    0.0176 N   0  0  0  0  0  0  0  0  0  0  0  0
    2.7016   -3.2275   -0.7914 C   0  0  0  0  0  0  0  0  0  0  0  0
    3.4318   -2.9821   -2.1269 C   0  0  0  0  0  0  0  0  0  0  0  0
    4.7999   -2.6657   -1.9024 O   0  0  0  0  0  0  0  0  0  0  0  0
    5.4657   -3.7018   -1.1976 C   0  0  0  0  0  0  0  0  0  0  0  0
    4.8345   -3.8763    0.1875 C   0  0  0  0  0  0  0  0  0  0  0  0
    4.7136   -7.1600    0.4796 C   0  0  0  0  0  0  0  0  0  0  0  0
    5.7399   -7.9598    1.3866 C   0  0  2  0  0  0  0  0  0  0  0  0
    4.8666   -8.4456    2.5208 C   0  0  1  0  0  0  0  0  0  0  0  0
    5.5995   -9.1829    3.4935 O   0  0  0  0  0  0  0  0  0  0  0  0
    3.7860   -9.4740    2.0419 C   0  0  0  0  0  0  0  0  0  0  0  0
    2.4377   -9.2833    2.6830 C   0  0  0  0  0  0  0  0  0  0  0  0
    1.6602  -10.4144    3.0318 C   0  0  0  0  0  0  0  0  0  0  0  0
    0.4045  -10.2209    3.6408 C   0  0  0  0  0  0  0  0  0  0  0  0
   -0.0798   -8.9250    3.8954 C   0  0  0  0  0  0  0  0  0  0  0  0
    0.7040   -7.8021    3.5505 C   0  0  0  0  0  0  0  0  0  0  0  0
    1.9616   -7.9914    2.9364 C   0  0  0  0  0  0  0  0  0  0  0  0
    2.8854   -6.8132    2.6994 C   0  0  1  0  0  0  0  0  0  0  0  0
    8.8327   -6.4834    1.5417 H   0  0  0  0  0  0  0  0  0  0  0  0
    7.5355   -5.8474    0.5359 H   0  0  0  0  0  0  0  0  0  0  0  0
    8.1645   -7.4847    0.2731 H   0  0  0  0  0  0  0  0  0  0  0  0
    7.5620   -6.5612    3.8864 H   0  0  0  0  0  0  0  0  0  0  0  0
    6.8727   -5.3325    2.8726 H   0  0  0  0  0  0  0  0  0  0  0  0
    5.5171   -7.1033    4.8714 H   0  0  0  0  0  0  0  0  0  0  0  0
    5.1018   -5.4908    4.3768 H   0  0  0  0  0  0  0  0  0  0  0  0
    1.6638   -3.4889   -1.0175 H   0  0  0  0  0  0  0  0  0  0  0  0
    2.6506   -2.3088   -0.2083 H   0  0  0  0  0  0  0  0  0  0  0  0
    3.3624   -3.8570   -2.7692 H   0  0  0  0  0  0  0  0  0  0  0  0
    2.9753   -2.1456   -2.6592 H   0  0  0  0  0  0  0  0  0  0  0  0
    5.4107   -4.6250   -1.7667 H   0  0  0  0  0  0  0  0  0  0  0  0
    6.5186   -3.4663   -1.0885 H   0  0  0  0  0  0  0  0  0  0  0  0
    4.8926   -2.9466    0.7730 H   0  0  0  0  0  0  0  0  0  0  0  0
    5.4645   -4.6022    0.6793 H   0  0  0  0  0  0  0  0  0  0  0  0
    4.2338   -7.8440   -0.2182 H   0  0  0  0  0  0  0  0  0  0  0  0
    5.2639   -6.4701   -0.1519 H   0  0  0  0  0  0  0  0  0  0  0  0
    6.1095   -8.8115    0.8136 H   0  0  0  0  0  0  0  0  0  0  0  0
    5.8559   -9.9949    3.0941 H   0  0  0  0  0  0  0  0  0  0  0  0
    3.5757   -9.3845    0.9835 H   0  0  0  0  0  0  0  0  0  0  0  0
    4.1436  -10.4955    2.1285 H   0  0  0  0  0  0  0  0  0  0  0  0
    2.0419  -11.4091    2.8543 H   0  0  0  0  0  0  0  0  0  0  0  0
   -0.1844  -11.0837    3.9302 H   0  0  0  0  0  0  0  0  0  0  0  0
   -1.0361   -8.8048    4.3830 H   0  0  0  0  0  0  0  0  0  0  0  0
    0.3570   -6.8119    3.7965 H   0  0  0  0  0  0  0  0  0  0  0  0
    2.4762   -5.9491    3.2300 H   0  0  0  0  0  0  0  0  0  0  0  0
  1  2  1  0
  1 28  1  0
  1 29  1  0
  1 30  1  0
  2 17  1  0
  2  3  1  0
  3  4  1  0
  3 31  1  0
  3 32  1  0
  5  4  1  1
  4 33  1  0
  4 34  1  0
  5 18  1  0
  5 27  1  0
  5  6  1  0
  6  7  1  0
  7 27  1  0
  7  8  1  6
  7 16  1  0
  8  9  2  0
  8 10  1  0
 10 15  1  0
 10 11  1  0
 11 12  1  0
 11 35  1  0
 11 36  1  0
 12 13  1  0
 12 37  1  0
 12 38  1  0
 13 14  1  0
 14 15  1  0
 14 39  1  0
 14 40  1  0
 15 41  1  0
 15 42  1  0
 16 17  1  0
 16 43  1  0
 16 44  1  0
 17 18  1  0
 17 45  1  6
 18 19  1  1
 18 20  1  0
 19 46  1  0
 20 21  1  0
 20 47  1  0
 20 48  1  0
 21 26  2  0
 21 22  1  0
 22 23  2  0
 22 49  1  0
 23 24  1  0
 23 50  1  0
 24 25  2  0
 24 51  1  0
 25 26  1  0
 25 52  1  0
 26 27  1  0
 27 53  1  1
M  END
>  <i_m_ct_stereo_status>  (270) 
1

>  <s_m_source_file>  (270) 
/var/tmp/pbs.5076255.sched01/tmpbzpkhbzu/844yn2io63.sdf

>  <i_m_source_file_index>  (270) 
32

>  <i_lp_mmshare_version>  (270) 
48012

>  <i_f3d_flags>  (270) 
0

>  <s_epik_input>  (270) 
W2NIXTFbY0hdW2NIXVtjSF1jKFtDSDJdMiljMVtDQEBIXTNbQ0BAXShPNCkoW0NIMl1bQ0BIXShbQ0BdMihbQ0BdMzQ1KVtPSF0pTihbQ0gzXSlbQ0gyXVtDSDJdNSlDKD1PKU42W0NIMl1bQ0gyXU9bQ0gyXVtDSDJdNg==

>  <s_epik_cmdline>  (270) 
J2VwaWtfcHl0aG9uJywgJy1waHQnLCAnMi4wJywgJy1waCcsICc3LjAnLCAnLXRuJywgJzgnLCAnLW1hJywgJzIwMCcsICctaW1hZScsICc8aW5maWxlLm1hZT4nLCAnLW9tYWUnLCAnPG91dGZpbGUubWFlPic=

>  <r_epik_Ionization_Penalty>  (270) 
0.698983

>  <r_epik_Ionization_Penalty_Charging>  (270) 
0

>  <r_epik_Ionization_Penalty_Neutral>  (270) 
0.698983

>  <r_epik_State_Penalty>  (270) 
0.721536

>  <r_epik_Charging_Adjusted_Penalty>  (270) 
0.721536

>  <i_epik_Tot_Q>  (270) 
0

>  <i_epik_Tot_abs_Q>  (270) 
0

>  <s_lp_Force_Field>  (270) 
OPLS3e

>  <r_lp_Energy>  (270) 
131.442

>  <b_lp_Chiralities_Consistent>  (270) 
1

>  <s_lp_Variant>  (270) 
82:0-2

>  <s_i_glide_gridfile>  (270) 
pfpi4k_grid

>  <i_i_glide_lignum>  (270) 
32

>  <i_i_glide_rotatable_bonds>  (270) 
3

>  <r_i_docking_score>  (270) 
-3.08431

>  <r_i_glide_ligand_efficiency>  (270) 
-0.114234

>  <r_i_glide_ligand_efficiency_sa>  (270) 
-0.342701

>  <r_i_glide_ligand_efficiency_ln>  (270) 
-0.717977

>  <r_i_glide_gscore>  (270) 
-3.08431

>  <r_i_glide_lipo>  (270) 
-0.467898

>  <r_i_glide_hbond>  (270) 
-0.124614

>  <r_i_glide_metal>  (270) 
-0

>  <r_i_glide_rewards>  (270) 
-0.883349

>  <r_i_glide_evdw>  (270) 
-25.4109

>  <r_i_glide_ecoul>  (270) 
-3.76322

>  <r_i_glide_erotb>  (270) 
0.28117

>  <r_i_glide_esite>  (270) 
-0.0545904

>  <r_i_glide_emodel>  (270) 
-34.0433

>  <r_i_glide_energy>  (270) 
-29.1742

>  <r_i_glide_einternal>  (270) 
1.63887

>  <r_i_glide_intrahb_reward>  (270) 
-0

>  <i_i_glide_confnum>  (270) 
6

>  <i_i_glide_posenum>  (270) 
19

>  <r_i_glide_eff_state_penalty>  (270) 
0

>  <ligand_id>  (270) 
82

>  <original_smiles>  (270) 
CN1CCC23OC4(C(=O)N5CCOCC5)CC1C2(O)Cc1ccccc1C43

>  <smiles>  (270) 
[H]OC12C([H])([H])c3c([H])c([H])c([H])c([H])c3C3([H])C4(C(=O)N5C([H])([H])C([H])([H])OC([H])([H])C5([H])[H])OC31C([H])([H])C([H])([H])N(C([H])([H])[H])C2([H])C4([H])[H]

$$$$
82:1:1
     RDKit          3D

 53 58  0  0  1  0  0  0  0  0999 V2000
    7.8476   -6.9947    1.2591 C   0  0  0  0  0  0  0  0  0  0  0  0
    6.7612   -7.4025    2.1356 N   0  0  0  0  0  0  0  0  0  0  0  0
    6.6083   -6.5308    3.3457 C   0  0  0  0  0  0  0  0  0  0  0  0
    5.1997   -6.4729    4.0687 C   0  0  0  0  0  0  0  0  0  0  0  0
    4.1373   -6.8975    3.0580 C   0  0  1  0  0  0  0  0  0  0  0  0
    4.5225   -5.7016    2.2580 O   0  0  0  0  0  0  0  0  0  0  0  0
    3.5983   -6.0944    1.3050 C   0  0  1  0  0  0  0  0  0  0  0  0
    3.0333   -4.9297    0.4684 C   0  0  0  0  0  0  0  0  0  0  0  0
    1.8744   -5.0876    0.0765 O   0  0  0  0  0  0  0  0  0  0  0  0
    3.7790   -3.8390    0.1391 N   0  0  0  0  0  0  0  0  0  0  0  0
    5.1383   -3.4932    0.6184 C   0  0  0  0  0  0  0  0  0  0  0  0
    6.0728   -3.2883   -0.5673 C   0  0  0  0  0  0  0  0  0  0  0  0
    5.5986   -2.2391   -1.3883 O   0  0  0  0  0  0  0  0  0  0  0  0
    4.3051   -2.5346   -1.8986 C   0  0  0  0  0  0  0  0  0  0  0  0
    3.2889   -2.7686   -0.7576 C   0  0  0  0  0  0  0  0  0  0  0  0
    4.6967   -6.9201    0.5198 C   0  0  0  0  0  0  0  0  0  0  0  0
    5.5305   -7.9037    1.4424 C   0  0  2  0  0  0  0  0  0  0  0  0
    4.5223   -8.3153    2.4908 C   0  0  1  0  0  0  0  0  0  0  0  0
    5.0871   -9.1753    3.4680 O   0  0  0  0  0  0  0  0  0  0  0  0
    3.3504   -9.1693    1.9042 C   0  0  0  0  0  0  0  0  0  0  0  0
    1.9871   -8.8243    2.4729 C   0  0  0  0  0  0  0  0  0  0  0  0
    1.0490   -9.8350    2.7372 C   0  0  0  0  0  0  0  0  0  0  0  0
   -0.2075   -9.4850    3.2690 C   0  0  0  0  0  0  0  0  0  0  0  0
   -0.5276   -8.1404    3.5391 C   0  0  0  0  0  0  0  0  0  0  0  0
    0.4173   -7.1275    3.2843 C   0  0  0  0  0  0  0  0  0  0  0  0
    1.6688   -7.4786    2.7449 C   0  0  0  0  0  0  0  0  0  0  0  0
    2.7552   -6.4426    2.6171 C   0  0  1  0  0  0  0  0  0  0  0  0
    8.7673   -6.8803    1.8299 H   0  0  0  0  0  0  0  0  0  0  0  0
    7.6380   -6.0404    0.7770 H   0  0  0  0  0  0  0  0  0  0  0  0
    8.0405   -7.7385    0.4846 H   0  0  0  0  0  0  0  0  0  0  0  0
    7.3412   -6.8464    4.0884 H   0  0  0  0  0  0  0  0  0  0  0  0
    6.9004   -5.5095    3.0899 H   0  0  0  0  0  0  0  0  0  0  0  0
    5.1944   -7.1253    4.9392 H   0  0  0  0  0  0  0  0  0  0  0  0
    5.0223   -5.4730    4.4567 H   0  0  0  0  0  0  0  0  0  0  0  0
    5.0761   -2.6170    1.2769 H   0  0  0  0  0  0  0  0  0  0  0  0
    5.6915   -4.2583    1.1541 H   0  0  0  0  0  0  0  0  0  0  0  0
    7.0635   -3.0753   -0.1788 H   0  0  0  0  0  0  0  0  0  0  0  0
    6.1480   -4.2193   -1.1297 H   0  0  0  0  0  0  0  0  0  0  0  0
    4.0060   -1.6944   -2.5250 H   0  0  0  0  0  0  0  0  0  0  0  0
    4.3618   -3.4153   -2.5392 H   0  0  0  0  0  0  0  0  0  0  0  0
    2.3163   -2.9762   -1.2019 H   0  0  0  0  0  0  0  0  0  0  0  0
    3.1521   -1.8451   -0.1950 H   0  0  0  0  0  0  0  0  0  0  0  0
    4.2284   -7.4925   -0.2753 H   0  0  0  0  0  0  0  0  0  0  0  0
    5.3769   -6.2590   -0.0068 H   0  0  0  0  0  0  0  0  0  0  0  0
    5.8148   -8.7675    0.8457 H   0  0  0  0  0  0  0  0  0  0  0  0
    4.3919   -9.4288    4.0564 H   0  0  0  0  0  0  0  0  0  0  0  0
    3.2327   -9.0043    0.8384 H   0  0  0  0  0  0  0  0  0  0  0  0
    3.5644  -10.2342    1.9781 H   0  0  0  0  0  0  0  0  0  0  0  0
    1.3053  -10.8711    2.5399 H   0  0  0  0  0  0  0  0  0  0  0  0
   -0.9253  -10.2620    3.4699 H   0  0  0  0  0  0  0  0  0  0  0  0
   -1.4909   -7.8976    3.9657 H   0  0  0  0  0  0  0  0  0  0  0  0
    0.2052   -6.0989    3.5457 H   0  0  0  0  0  0  0  0  0  0  0  0
    2.4341   -5.5406    3.1360 H   0  0  0  0  0  0  0  0  0  0  0  0
  1  2  1  0
  1 28  1  0
  1 29  1  0
  1 30  1  0
  2 17  1  0
  2  3  1  0
  3  4  1  0
  3 31  1  0
  3 32  1  0
  5  4  1  1
  4 33  1  0
  4 34  1  0
  5 18  1  0
  5 27  1  0
  5  6  1  0
  6  7  1  0
  7 27  1  0
  7  8  1  6
  7 16  1  0
  8  9  2  0
  8 10  1  0
 10 15  1  0
 10 11  1  0
 11 12  1  0
 11 35  1  0
 11 36  1  0
 12 13  1  0
 12 37  1  0
 12 38  1  0
 13 14  1  0
 14 15  1  0
 14 39  1  0
 14 40  1  0
 15 41  1  0
 15 42  1  0
 16 17  1  0
 16 43  1  0
 16 44  1  0
 17 18  1  0
 17 45  1  6
 18 19  1  1
 18 20  1  0
 19 46  1  0
 20 21  1  0
 20 47  1  0
 20 48  1  0
 21 26  2  0
 21 22  1  0
 22 23  2  0
 22 49  1  0
 23 24  1  0
 23 50  1  0
 24 25  2  0
 24 51  1  0
 25 26  1  0
 25 52  1  0
 26 27  1  0
 27 53  1  1
M  END
>  <i_m_ct_stereo_status>  (271) 
1

>  <s_m_source_file>  (271) 
/var/tmp/pbs.5076255.sched01/tmpbzpkhbzu/844yn2io63.sdf

>  <i_m_source_file_index>  (271) 
32

>  <i_lp_mmshare_version>  (271) 
48012

>  <i_f3d_flags>  (271) 
0

>  <s_epik_input>  (271) 
W2NIXTFbY0hdW2NIXVtjSF1jKFtDSDJdMiljMVtDQEBIXTNbQ0BAXShPNCkoW0NIMl1bQ0BIXShbQ0BdMihbQ0BdMzQ1KVtPSF0pTihbQ0gzXSlbQ0gyXVtDSDJdNSlDKD1PKU42W0NIMl1bQ0gyXU9bQ0gyXVtDSDJdNg==

>  <s_epik_cmdline>  (271) 
J2VwaWtfcHl0aG9uJywgJy1waHQnLCAnMi4wJywgJy1waCcsICc3LjAnLCAnLXRuJywgJzgnLCAnLW1hJywgJzIwMCcsICctaW1hZScsICc8aW5maWxlLm1hZT4nLCAnLW9tYWUnLCAnPG91dGZpbGUubWFlPic=

>  <r_epik_Ionization_Penalty>  (271) 
0.698983

>  <r_epik_Ionization_Penalty_Charging>  (271) 
0

>  <r_epik_Ionization_Penalty_Neutral>  (271) 
0.698983

>  <r_epik_State_Penalty>  (271) 
0.721536

>  <r_epik_Charging_Adjusted_Penalty>  (271) 
0.721536

>  <i_epik_Tot_Q>  (271) 
0

>  <i_epik_Tot_abs_Q>  (271) 
0

>  <s_lp_Force_Field>  (271) 
OPLS3e

>  <r_lp_Energy>  (271) 
131.442

>  <b_lp_Chiralities_Consistent>  (271) 
1

>  <s_lp_Variant>  (271) 
82:0-2

>  <s_i_glide_gridfile>  (271) 
pfpi4k_grid

>  <i_i_glide_lignum>  (271) 
32

>  <i_i_glide_rotatable_bonds>  (271) 
3

>  <r_i_docking_score>  (271) 
-2.84963

>  <r_i_glide_ligand_efficiency>  (271) 
-0.105542

>  <r_i_glide_ligand_efficiency_sa>  (271) 
-0.316625

>  <r_i_glide_ligand_efficiency_ln>  (271) 
-0.663346

>  <r_i_glide_gscore>  (271) 
-2.84963

>  <r_i_glide_lipo>  (271) 
-0.47471

>  <r_i_glide_hbond>  (271) 
-0.0633234

>  <r_i_glide_metal>  (271) 
-0

>  <r_i_glide_rewards>  (271) 
-0.883349

>  <r_i_glide_evdw>  (271) 
-25.2273

>  <r_i_glide_ecoul>  (271) 
-2.82424

>  <r_i_glide_erotb>  (271) 
0.28117

>  <r_i_glide_esite>  (271) 
-0.0244137

>  <r_i_glide_emodel>  (271) 
-32.7665

>  <r_i_glide_energy>  (271) 
-28.0515

>  <r_i_glide_einternal>  (271) 
1.01753

>  <r_i_glide_intrahb_reward>  (271) 
-0

>  <i_i_glide_confnum>  (271) 
2

>  <i_i_glide_posenum>  (271) 
37

>  <r_i_glide_eff_state_penalty>  (271) 
0

>  <ligand_id>  (271) 
82

>  <original_smiles>  (271) 
CN1CCC23OC4(C(=O)N5CCOCC5)CC1C2(O)Cc1ccccc1C43

>  <smiles>  (271) 
[H]OC12C([H])([H])c3c([H])c([H])c([H])c([H])c3C3([H])C4(C(=O)N5C([H])([H])C([H])([H])OC([H])([H])C5([H])[H])OC31C([H])([H])C([H])([H])N(C([H])([H])[H])C2([H])C4([H])[H]

$$$$
82:1:2
     RDKit          3D

 53 58  0  0  1  0  0  0  0  0999 V2000
    7.8504   -7.2208    1.2621 C   0  0  0  0  0  0  0  0  0  0  0  0
    6.7535   -7.5965    2.1418 N   0  0  0  0  0  0  0  0  0  0  0  0
    6.6182   -6.6936    3.3328 C   0  0  0  0  0  0  0  0  0  0  0  0
    5.2104   -6.5863    4.0473 C   0  0  0  0  0  0  0  0  0  0  0  0
    4.1549   -6.9784    3.0326 C   0  0  1  0  0  0  0  0  0  0  0  0
    4.5739   -5.8110    2.1897 O   0  0  0  0  0  0  0  0  0  0  0  0
    3.6260   -6.2093    1.2501 C   0  0  1  0  0  0  0  0  0  0  0  0
    3.0819   -5.0482    0.4118 C   0  0  0  0  0  0  0  0  0  0  0  0
    1.8832   -5.0984    0.1551 O   0  0  0  0  0  0  0  0  0  0  0  0
    3.8989   -4.0739   -0.0698 N   0  0  0  0  0  0  0  0  0  0  0  0
    5.3450   -3.9061    0.1968 C   0  0  0  0  0  0  0  0  0  0  0  0
    5.5902   -2.4785    0.7146 C   0  0  0  0  0  0  0  0  0  0  0  0
    5.1577   -1.5244   -0.2445 O   0  0  0  0  0  0  0  0  0  0  0  0
    3.7625   -1.6347   -0.4986 C   0  0  0  0  0  0  0  0  0  0  0  0
    3.4193   -3.0415   -1.0232 C   0  0  0  0  0  0  0  0  0  0  0  0
    4.7236   -7.0945    0.5017 C   0  0  0  0  0  0  0  0  0  0  0  0
    5.5256   -8.0739    1.4428 C   0  0  2  0  0  0  0  0  0  0  0  0
    4.4914   -8.4419    2.5029 C   0  0  1  0  0  0  0  0  0  0  0  0
    5.0310   -9.2898    3.5040 O   0  0  0  0  0  0  0  0  0  0  0  0
    3.3020   -9.2743    1.9182 C   0  0  0  0  0  0  0  0  0  0  0  0
    1.9522   -8.8869    2.4691 C   0  0  0  0  0  0  0  0  0  0  0  0
    0.9939   -9.8709    2.7455 C   0  0  0  0  0  0  0  0  0  0  0  0
   -0.2533   -9.4904    3.2689 C   0  0  0  0  0  0  0  0  0  0  0  0
   -0.5538   -8.1358    3.5145 C   0  0  0  0  0  0  0  0  0  0  0  0
    0.4123   -7.1516    3.2451 C   0  0  0  0  0  0  0  0  0  0  0  0
    1.6628   -7.5336    2.7191 C   0  0  0  0  0  0  0  0  0  0  0  0
    2.7751   -6.5181    2.5805 C   0  0  1  0  0  0  0  0  0  0  0  0
    8.7693   -7.1061    1.8367 H   0  0  0  0  0  0  0  0  0  0  0  0
    7.6620   -6.2680    0.7610 H   0  0  0  0  0  0  0  0  0  0  0  0
    8.0391   -7.9796    0.4965 H   0  0  0  0  0  0  0  0  0  0  0  0
    7.3358   -7.0089    4.0855 H   0  0  0  0  0  0  0  0  0  0  0  0
    6.9316   -5.6827    3.0512 H   0  0  0  0  0  0  0  0  0  0  0  0
    5.1772   -7.2352    4.9157 H   0  0  0  0  0  0  0  0  0  0  0  0
    5.0517   -5.5822    4.4187 H   0  0  0  0  0  0  0  0  0  0  0  0
    5.7947   -4.5389    0.9448 H   0  0  0  0  0  0  0  0  0  0  0  0
    5.8779   -4.0734   -0.7591 H   0  0  0  0  0  0  0  0  0  0  0  0
    5.0636   -2.3303    1.6542 H   0  0  0  0  0  0  0  0  0  0  0  0
    6.6492   -2.3602    0.9213 H   0  0  0  0  0  0  0  0  0  0  0  0
    3.2010   -1.4224    0.4121 H   0  0  0  0  0  0  0  0  0  0  0  0
    3.4935   -0.8728   -1.2283 H   0  0  0  0  0  0  0  0  0  0  0  0
    3.8978   -3.2025   -1.9896 H   0  0  0  0  0  0  0  0  0  0  0  0
    2.3493   -3.0839   -1.2298 H   0  0  0  0  0  0  0  0  0  0  0  0
    4.2735   -7.6825   -0.2853 H   0  0  0  0  0  0  0  0  0  0  0  0
    5.4260   -6.4764   -0.0379 H   0  0  0  0  0  0  0  0  0  0  0  0
    5.7836   -8.9500    0.8607 H   0  0  0  0  0  0  0  0  0  0  0  0
    5.1722  -10.1347    3.1025 H   0  0  0  0  0  0  0  0  0  0  0  0
    3.1974   -9.1311    0.8515 H   0  0  0  0  0  0  0  0  0  0  0  0
    3.4872  -10.3398    2.0214 H   0  0  0  0  0  0  0  0  0  0  0  0
    1.2230  -10.9200    2.5691 H   0  0  0  0  0  0  0  0  0  0  0  0
   -0.9747  -10.2611    3.4824 H   0  0  0  0  0  0  0  0  0  0  0  0
   -1.5139   -7.8695    3.9348 H   0  0  0  0  0  0  0  0  0  0  0  0
    0.2184   -6.1113    3.4921 H   0  0  0  0  0  0  0  0  0  0  0  0
    2.4705   -5.6092    3.0937 H   0  0  0  0  0  0  0  0  0  0  0  0
  1  2  1  0
  1 28  1  0
  1 29  1  0
  1 30  1  0
  2 17  1  0
  2  3  1  0
  3  4  1  0
  3 31  1  0
  3 32  1  0
  5  4  1  1
  4 33  1  0
  4 34  1  0
  5 18  1  0
  5 27  1  0
  5  6  1  0
  6  7  1  0
  7 27  1  0
  7  8  1  6
  7 16  1  0
  8  9  2  0
  8 10  1  0
 10 15  1  0
 10 11  1  0
 11 12  1  0
 11 35  1  0
 11 36  1  0
 12 13  1  0
 12 37  1  0
 12 38  1  0
 13 14  1  0
 14 15  1  0
 14 39  1  0
 14 40  1  0
 15 41  1  0
 15 42  1  0
 16 17  1  0
 16 43  1  0
 16 44  1  0
 17 18  1  0
 17 45  1  6
 18 19  1  1
 18 20  1  0
 19 46  1  0
 20 21  1  0
 20 47  1  0
 20 48  1  0
 21 26  2  0
 21 22  1  0
 22 23  2  0
 22 49  1  0
 23 24  1  0
 23 50  1  0
 24 25  2  0
 24 51  1  0
 25 26  1  0
 25 52  1  0
 26 27  1  0
 27 53  1  1
M  END
>  <i_m_ct_stereo_status>  (272) 
1

>  <s_m_source_file>  (272) 
/var/tmp/pbs.5076255.sched01/tmpbzpkhbzu/844yn2io63.sdf

>  <i_m_source_file_index>  (272) 
32

>  <i_lp_mmshare_version>  (272) 
48012

>  <i_f3d_flags>  (272) 
0

>  <s_epik_input>  (272) 
W2NIXTFbY0hdW2NIXVtjSF1jKFtDSDJdMiljMVtDQEBIXTNbQ0BAXShPNCkoW0NIMl1bQ0BIXShbQ0BdMihbQ0BdMzQ1KVtPSF0pTihbQ0gzXSlbQ0gyXVtDSDJdNSlDKD1PKU42W0NIMl1bQ0gyXU9bQ0gyXVtDSDJdNg==

>  <s_epik_cmdline>  (272) 
J2VwaWtfcHl0aG9uJywgJy1waHQnLCAnMi4wJywgJy1waCcsICc3LjAnLCAnLXRuJywgJzgnLCAnLW1hJywgJzIwMCcsICctaW1hZScsICc8aW5maWxlLm1hZT4nLCAnLW9tYWUnLCAnPG91dGZpbGUubWFlPic=

>  <r_epik_Ionization_Penalty>  (272) 
0.698983

>  <r_epik_Ionization_Penalty_Charging>  (272) 
0

>  <r_epik_Ionization_Penalty_Neutral>  (272) 
0.698983

>  <r_epik_State_Penalty>  (272) 
0.721536

>  <r_epik_Charging_Adjusted_Penalty>  (272) 
0.721536

>  <i_epik_Tot_Q>  (272) 
0

>  <i_epik_Tot_abs_Q>  (272) 
0

>  <s_lp_Force_Field>  (272) 
OPLS3e

>  <r_lp_Energy>  (272) 
131.442

>  <b_lp_Chiralities_Consistent>  (272) 
1

>  <s_lp_Variant>  (272) 
82:0-2

>  <s_i_glide_gridfile>  (272) 
pfpi4k_grid

>  <i_i_glide_lignum>  (272) 
32

>  <i_i_glide_rotatable_bonds>  (272) 
3

>  <r_i_docking_score>  (272) 
-2.79914

>  <r_i_glide_ligand_efficiency>  (272) 
-0.103672

>  <r_i_glide_ligand_efficiency_sa>  (272) 
-0.311016

>  <r_i_glide_ligand_efficiency_ln>  (272) 
-0.651594

>  <r_i_glide_gscore>  (272) 
-2.79914

>  <r_i_glide_lipo>  (272) 
-0.464105

>  <r_i_glide_hbond>  (272) 
-0.0668898

>  <r_i_glide_metal>  (272) 
-0

>  <r_i_glide_rewards>  (272) 
-0.883349

>  <r_i_glide_evdw>  (272) 
-24.7533

>  <r_i_glide_ecoul>  (272) 
-2.64595

>  <r_i_glide_erotb>  (272) 
0.28117

>  <r_i_glide_esite>  (272) 
-0.0314116

>  <r_i_glide_emodel>  (272) 
-31.8289

>  <r_i_glide_energy>  (272) 
-27.3992

>  <r_i_glide_einternal>  (272) 
1.38064

>  <r_i_glide_intrahb_reward>  (272) 
-0

>  <i_i_glide_confnum>  (272) 
4

>  <i_i_glide_posenum>  (272) 
26

>  <r_i_glide_eff_state_penalty>  (272) 
0

>  <ligand_id>  (272) 
82

>  <original_smiles>  (272) 
CN1CCC23OC4(C(=O)N5CCOCC5)CC1C2(O)Cc1ccccc1C43

>  <smiles>  (272) 
[H]OC12C([H])([H])c3c([H])c([H])c([H])c([H])c3C3([H])C4(C(=O)N5C([H])([H])C([H])([H])OC([H])([H])C5([H])[H])OC31C([H])([H])C([H])([H])N(C([H])([H])[H])C2([H])C4([H])[H]

$$$$
84:0:0
     RDKit          3D

 22 24  0  0  1  0  0  0  0  0999 V2000
    4.6304   -7.8989    0.5681 O   0  0  0  0  0  0  0  0  0  0  0  0
    4.2607   -6.8524    1.1033 C   0  0  0  0  0  0  0  0  0  0  0  0
    3.0191   -6.6255    1.8292 C   0  0  0  0  0  0  0  0  0  0  0  0
    2.0906   -7.5936    2.0133 C   0  0  0  0  0  0  0  0  0  0  0  0
    0.8490   -7.5142    2.7937 C   0  0  0  0  0  0  0  0  0  0  0  0
   -0.2305   -8.3658    2.4833 C   0  0  0  0  0  0  0  0  0  0  0  0
   -1.4230   -8.2603    3.2249 C   0  0  0  0  0  0  0  0  0  0  0  0
   -1.6032   -7.3514    4.2062 N   0  0  0  0  0  0  0  0  0  0  0  0
   -0.5625   -6.5607    4.5275 C   0  0  0  0  0  0  0  0  0  0  0  0
    0.6631   -6.5884    3.8442 C   0  0  0  0  0  0  0  0  0  0  0  0
    3.0472   -4.9056    2.3262 S   0  0  0  0  0  0  0  0  0  0  0  0
    4.6167   -4.6493    1.6032 C   0  0  0  0  0  0  0  0  0  0  0  0
    5.4115   -3.5883    1.5092 N   0  0  0  0  0  0  0  0  0  0  0  0
    6.4468   -4.1518    0.7947 C   0  0  0  0  0  0  0  0  0  0  0  0
    6.3169   -5.4468    0.4834 N   0  0  0  0  0  0  0  0  0  0  0  0
    5.1151   -5.7157    1.0239 N   0  0  0  0  0  0  0  0  0  0  0  0
    2.2976   -8.5741    1.6038 H   0  0  0  0  0  0  0  0  0  0  0  0
   -0.1411   -9.1053    1.6995 H   0  0  0  0  0  0  0  0  0  0  0  0
   -2.2643   -8.9076    3.0099 H   0  0  0  0  0  0  0  0  0  0  0  0
   -0.7078   -5.8610    5.3417 H   0  0  0  0  0  0  0  0  0  0  0  0
    1.4498   -5.9249    4.1713 H   0  0  0  0  0  0  0  0  0  0  0  0
    7.3181   -3.5865    0.4882 H   0  0  0  0  0  0  0  0  0  0  0  0
  1  2  2  0
  2 16  1  0
  2  3  1  0
  3  4  2  3
  3 11  1  0
  4  5  1  0
  4 17  1  0
  5 10  1  0
  5  6  2  0
  6  7  1  0
  6 18  1  0
  7  8  2  0
  7 19  1  0
  8  9  1  0
  9 10  2  0
  9 20  1  0
 10 21  1  0
 11 12  1  0
 12 16  1  0
 12 13  2  0
 13 14  1  0
 14 15  2  0
 14 22  1  0
 15 16  1  0
M  END
>  <i_m_ct_stereo_status>  (273) 
1

>  <s_m_source_file>  (273) 
/var/tmp/pbs.5076255.sched01/tmpbzpkhbzu/844yn2io63.sdf

>  <i_m_source_file_index>  (273) 
34

>  <i_lp_mmshare_version>  (273) 
48012

>  <i_f3d_flags>  (273) 
0

>  <s_epik_input>  (273) 
bjFbY0hdbm4oYzEyKWMoPU8pL2MoczIpPVtDSF0vYzNbY0hdW2NIXW5bY0hdW2NIXTM=

>  <s_epik_cmdline>  (273) 
J2VwaWtfcHl0aG9uJywgJy1waHQnLCAnMi4wJywgJy1waCcsICc3LjAnLCAnLXRuJywgJzgnLCAnLW1hJywgJzIwMCcsICctaW1hZScsICc8aW5maWxlLm1hZT4nLCAnLW9tYWUnLCAnPG91dGZpbGUubWFlPic=

>  <r_epik_Ionization_Penalty>  (273) 
0.000924362

>  <r_epik_Ionization_Penalty_Charging>  (273) 
0

>  <r_epik_Ionization_Penalty_Neutral>  (273) 
0.000924362

>  <r_epik_State_Penalty>  (273) 
0.000599378

>  <r_epik_Charging_Adjusted_Penalty>  (273) 
0.000599378

>  <i_epik_Tot_Q>  (273) 
0

>  <i_epik_Tot_abs_Q>  (273) 
0

>  <s_lp_Force_Field>  (273) 
OPLS3e

>  <r_lp_Energy>  (273) 
19.569

>  <b_lp_Chiralities_Consistent>  (273) 
1

>  <s_lp_Variant>  (273) 
84:0-1

>  <s_i_glide_gridfile>  (273) 
pfpi4k_grid

>  <i_i_glide_lignum>  (273) 
34

>  <i_i_glide_rotatable_bonds>  (273) 
1

>  <r_i_docking_score>  (273) 
-3.58359

>  <r_i_glide_ligand_efficiency>  (273) 
-0.223975

>  <r_i_glide_ligand_efficiency_sa>  (273) 
-0.564381

>  <r_i_glide_ligand_efficiency_ln>  (273) 
-0.949903

>  <r_i_glide_gscore>  (273) 
-3.58359

>  <r_i_glide_lipo>  (273) 
-0.124996

>  <r_i_glide_hbond>  (273) 
0

>  <r_i_glide_metal>  (273) 
-0

>  <r_i_glide_rewards>  (273) 
-2.12296

>  <r_i_glide_evdw>  (273) 
-19.1878

>  <r_i_glide_ecoul>  (273) 
-2.50828

>  <r_i_glide_erotb>  (273) 
0

>  <r_i_glide_esite>  (273) 
0

>  <r_i_glide_emodel>  (273) 
-26.4132

>  <r_i_glide_energy>  (273) 
-21.6961

>  <r_i_glide_einternal>  (273) 
1.75523

>  <r_i_glide_intrahb_reward>  (273) 
-0

>  <i_i_glide_confnum>  (273) 
2

>  <i_i_glide_posenum>  (273) 
19

>  <r_i_glide_eff_state_penalty>  (273) 
0

>  <ligand_id>  (273) 
84

>  <original_smiles>  (273) 
O=c1c(=Cc2ccncc2)sc2ncnn12

>  <smiles>  (273) 
[H]C(c1c([H])c([H])nc([H])c1[H])=c1sc2nc([H])nn2c1=O

$$$$
84:0:1
     RDKit          3D

 22 24  0  0  1  0  0  0  0  0999 V2000
    4.9464   -4.5413   -0.6969 O   0  0  0  0  0  0  0  0  0  0  0  0
    4.4296   -3.8419    0.1743 C   0  0  0  0  0  0  0  0  0  0  0  0
    3.3525   -4.2011    1.0896 C   0  0  0  0  0  0  0  0  0  0  0  0
    2.7380   -5.4002    1.0404 C   0  0  0  0  0  0  0  0  0  0  0  0
    1.6617   -5.9455    1.8756 C   0  0  0  0  0  0  0  0  0  0  0  0
    1.3690   -5.5425    3.1966 C   0  0  0  0  0  0  0  0  0  0  0  0
    0.2892   -6.1578    3.8667 C   0  0  0  0  0  0  0  0  0  0  0  0
   -0.5231   -7.0698    3.2855 N   0  0  0  0  0  0  0  0  0  0  0  0
   -0.2316   -7.4603    2.0253 C   0  0  0  0  0  0  0  0  0  0  0  0
    0.8250   -6.9086    1.2825 C   0  0  0  0  0  0  0  0  0  0  0  0
    3.0608   -2.7713    2.1212 S   0  0  0  0  0  0  0  0  0  0  0  0
    4.3230   -1.8658    1.3169 C   0  0  0  0  0  0  0  0  0  0  0  0
    4.8218   -0.6453    1.4873 N   0  0  0  0  0  0  0  0  0  0  0  0
    5.7799   -0.6528    0.4991 C   0  0  0  0  0  0  0  0  0  0  0  0
    5.8920   -1.7743   -0.2172 N   0  0  0  0  0  0  0  0  0  0  0  0
    4.9271   -2.5236    0.3549 N   0  0  0  0  0  0  0  0  0  0  0  0
    3.0955   -6.1025    0.2964 H   0  0  0  0  0  0  0  0  0  0  0  0
    1.9634   -4.7996    3.7085 H   0  0  0  0  0  0  0  0  0  0  0  0
    0.0402   -5.8950    4.8863 H   0  0  0  0  0  0  0  0  0  0  0  0
   -0.8682   -8.2167    1.5818 H   0  0  0  0  0  0  0  0  0  0  0  0
    1.0041   -7.2389    0.2712 H   0  0  0  0  0  0  0  0  0  0  0  0
    6.4228    0.1944    0.3102 H   0  0  0  0  0  0  0  0  0  0  0  0
  1  2  2  0
  2 16  1  0
  2  3  1  0
  3  4  2  3
  3 11  1  0
  4  5  1  0
  4 17  1  0
  5 10  1  0
  5  6  2  0
  6  7  1  0
  6 18  1  0
  7  8  2  0
  7 19  1  0
  8  9  1  0
  9 10  2  0
  9 20  1  0
 10 21  1  0
 11 12  1  0
 12 16  1  0
 12 13  2  0
 13 14  1  0
 14 15  2  0
 14 22  1  0
 15 16  1  0
M  END
>  <i_m_ct_stereo_status>  (274) 
1

>  <s_m_source_file>  (274) 
/var/tmp/pbs.5076255.sched01/tmpbzpkhbzu/844yn2io63.sdf

>  <i_m_source_file_index>  (274) 
34

>  <i_lp_mmshare_version>  (274) 
48012

>  <i_f3d_flags>  (274) 
0

>  <s_epik_input>  (274) 
bjFbY0hdbm4oYzEyKWMoPU8pL2MoczIpPVtDSF0vYzNbY0hdW2NIXW5bY0hdW2NIXTM=

>  <s_epik_cmdline>  (274) 
J2VwaWtfcHl0aG9uJywgJy1waHQnLCAnMi4wJywgJy1waCcsICc3LjAnLCAnLXRuJywgJzgnLCAnLW1hJywgJzIwMCcsICctaW1hZScsICc8aW5maWxlLm1hZT4nLCAnLW9tYWUnLCAnPG91dGZpbGUubWFlPic=

>  <r_epik_Ionization_Penalty>  (274) 
0.000924362

>  <r_epik_Ionization_Penalty_Charging>  (274) 
0

>  <r_epik_Ionization_Penalty_Neutral>  (274) 
0.000924362

>  <r_epik_State_Penalty>  (274) 
0.000599378

>  <r_epik_Charging_Adjusted_Penalty>  (274) 
0.000599378

>  <i_epik_Tot_Q>  (274) 
0

>  <i_epik_Tot_abs_Q>  (274) 
0

>  <s_lp_Force_Field>  (274) 
OPLS3e

>  <r_lp_Energy>  (274) 
19.569

>  <b_lp_Chiralities_Consistent>  (274) 
1

>  <s_lp_Variant>  (274) 
84:0-1

>  <s_i_glide_gridfile>  (274) 
pfpi4k_grid

>  <i_i_glide_lignum>  (274) 
34

>  <i_i_glide_rotatable_bonds>  (274) 
1

>  <r_i_docking_score>  (274) 
-3.48004

>  <r_i_glide_ligand_efficiency>  (274) 
-0.217503

>  <r_i_glide_ligand_efficiency_sa>  (274) 
-0.548072

>  <r_i_glide_ligand_efficiency_ln>  (274) 
-0.922455

>  <r_i_glide_gscore>  (274) 
-3.48004

>  <r_i_glide_lipo>  (274) 
-0.0245563

>  <r_i_glide_hbond>  (274) 
-0.060736

>  <r_i_glide_metal>  (274) 
-0

>  <r_i_glide_rewards>  (274) 
-2.04016

>  <r_i_glide_evdw>  (274) 
-20.0471

>  <r_i_glide_ecoul>  (274) 
-2.34821

>  <r_i_glide_erotb>  (274) 
0

>  <r_i_glide_esite>  (274) 
0

>  <r_i_glide_emodel>  (274) 
-27.2921

>  <r_i_glide_energy>  (274) 
-22.3953

>  <r_i_glide_einternal>  (274) 
0.8663

>  <r_i_glide_intrahb_reward>  (274) 
-0

>  <i_i_glide_confnum>  (274) 
1

>  <i_i_glide_posenum>  (274) 
14

>  <r_i_glide_eff_state_penalty>  (274) 
0

>  <ligand_id>  (274) 
84

>  <original_smiles>  (274) 
O=c1c(=Cc2ccncc2)sc2ncnn12

>  <smiles>  (274) 
[H]C(c1c([H])c([H])nc([H])c1[H])=c1sc2nc([H])nn2c1=O

$$$$
84:0:2
     RDKit          3D

 22 24  0  0  1  0  0  0  0  0999 V2000
    1.0336   -2.4070    3.2893 O   0  0  0  0  0  0  0  0  0  0  0  0
    1.5361   -1.4302    2.7332 C   0  0  0  0  0  0  0  0  0  0  0  0
    1.1194   -0.0399    2.8393 C   0  0  0  0  0  0  0  0  0  0  0  0
    0.0548    0.3335    3.5757 C   0  0  0  0  0  0  0  0  0  0  0  0
   -0.5124    1.6668    3.8202 C   0  0  0  0  0  0  0  0  0  0  0  0
    0.0443    2.8893    3.3907 C   0  0  0  0  0  0  0  0  0  0  0  0
   -0.6263    4.0910    3.6797 C   0  0  0  0  0  0  0  0  0  0  0  0
   -1.7868    4.1461    4.3703 N   0  0  0  0  0  0  0  0  0  0  0  0
   -2.3171    2.9735    4.7812 C   0  0  0  0  0  0  0  0  0  0  0  0
   -1.7225    1.7234    4.5353 C   0  0  0  0  0  0  0  0  0  0  0  0
    2.2633    0.9052    1.8517 S   0  0  0  0  0  0  0  0  0  0  0  0
    3.1397   -0.5256    1.3794 C   0  0  0  0  0  0  0  0  0  0  0  0
    4.2174   -0.7251    0.6269 N   0  0  0  0  0  0  0  0  0  0  0  0
    4.3117   -2.0951    0.7364 C   0  0  0  0  0  0  0  0  0  0  0  0
    3.4003   -2.6983    1.5096 N   0  0  0  0  0  0  0  0  0  0  0  0
    2.6656   -1.6353    1.8949 N   0  0  0  0  0  0  0  0  0  0  0  0
   -0.4748   -0.4605    4.0871 H   0  0  0  0  0  0  0  0  0  0  0  0
    0.9582    2.9555    2.8239 H   0  0  0  0  0  0  0  0  0  0  0  0
   -0.2180    5.0383    3.3560 H   0  0  0  0  0  0  0  0  0  0  0  0
   -3.2482    3.0249    5.3318 H   0  0  0  0  0  0  0  0  0  0  0  0
   -2.1925    0.8133    4.8758 H   0  0  0  0  0  0  0  0  0  0  0  0
    5.0881   -2.6626    0.2408 H   0  0  0  0  0  0  0  0  0  0  0  0
  1  2  2  0
  2 16  1  0
  2  3  1  0
  3  4  2  3
  3 11  1  0
  4  5  1  0
  4 17  1  0
  5 10  1  0
  5  6  2  0
  6  7  1  0
  6 18  1  0
  7  8  2  0
  7 19  1  0
  8  9  1  0
  9 10  2  0
  9 20  1  0
 10 21  1  0
 11 12  1  0
 12 16  1  0
 12 13  2  0
 13 14  1  0
 14 15  2  0
 14 22  1  0
 15 16  1  0
M  END
>  <i_m_ct_stereo_status>  (275) 
1

>  <s_m_source_file>  (275) 
/var/tmp/pbs.5076255.sched01/tmpbzpkhbzu/844yn2io63.sdf

>  <i_m_source_file_index>  (275) 
34

>  <i_lp_mmshare_version>  (275) 
48012

>  <i_f3d_flags>  (275) 
0

>  <s_epik_input>  (275) 
bjFbY0hdbm4oYzEyKWMoPU8pL2MoczIpPVtDSF0vYzNbY0hdW2NIXW5bY0hdW2NIXTM=

>  <s_epik_cmdline>  (275) 
J2VwaWtfcHl0aG9uJywgJy1waHQnLCAnMi4wJywgJy1waCcsICc3LjAnLCAnLXRuJywgJzgnLCAnLW1hJywgJzIwMCcsICctaW1hZScsICc8aW5maWxlLm1hZT4nLCAnLW9tYWUnLCAnPG91dGZpbGUubWFlPic=

>  <r_epik_Ionization_Penalty>  (275) 
0.000924362

>  <r_epik_Ionization_Penalty_Charging>  (275) 
0

>  <r_epik_Ionization_Penalty_Neutral>  (275) 
0.000924362

>  <r_epik_State_Penalty>  (275) 
0.000599378

>  <r_epik_Charging_Adjusted_Penalty>  (275) 
0.000599378

>  <i_epik_Tot_Q>  (275) 
0

>  <i_epik_Tot_abs_Q>  (275) 
0

>  <s_lp_Force_Field>  (275) 
OPLS3e

>  <r_lp_Energy>  (275) 
19.569

>  <b_lp_Chiralities_Consistent>  (275) 
1

>  <s_lp_Variant>  (275) 
84:0-1

>  <s_i_glide_gridfile>  (275) 
pfpi4k_grid

>  <i_i_glide_lignum>  (275) 
34

>  <i_i_glide_rotatable_bonds>  (275) 
1

>  <r_i_docking_score>  (275) 
-3.20059

>  <r_i_glide_ligand_efficiency>  (275) 
-0.200037

>  <r_i_glide_ligand_efficiency_sa>  (275) 
-0.504062

>  <r_i_glide_ligand_efficiency_ln>  (275) 
-0.848381

>  <r_i_glide_gscore>  (275) 
-3.20059

>  <r_i_glide_lipo>  (275) 
0

>  <r_i_glide_hbond>  (275) 
-0.0313349

>  <r_i_glide_metal>  (275) 
-0

>  <r_i_glide_rewards>  (275) 
-1.83923

>  <r_i_glide_evdw>  (275) 
-19.0435

>  <r_i_glide_ecoul>  (275) 
-2.02882

>  <r_i_glide_erotb>  (275) 
0

>  <r_i_glide_esite>  (275) 
-0.0735322

>  <r_i_glide_emodel>  (275) 
-26.0815

>  <r_i_glide_energy>  (275) 
-21.0723

>  <r_i_glide_einternal>  (275) 
0.0249078

>  <r_i_glide_intrahb_reward>  (275) 
-0

>  <i_i_glide_confnum>  (275) 
1

>  <i_i_glide_posenum>  (275) 
1

>  <r_i_glide_eff_state_penalty>  (275) 
0

>  <ligand_id>  (275) 
84

>  <original_smiles>  (275) 
O=c1c(=Cc2ccncc2)sc2ncnn12

>  <smiles>  (275) 
[H]C(c1c([H])c([H])nc([H])c1[H])=c1sc2nc([H])nn2c1=O

$$$$
84:1:0
     RDKit          3D

 22 24  0  0  1  0  0  0  0  0999 V2000
    1.1173   -6.2007    0.9295 O   0  0  0  0  0  0  0  0  0  0  0  0
    2.3411   -6.0718    0.8697 C   0  0  0  0  0  0  0  0  0  0  0  0
    3.4154   -6.9654    1.3187 C   0  0  0  0  0  0  0  0  0  0  0  0
    3.3931   -8.1648    1.9354 C   0  0  0  0  0  0  0  0  0  0  0  0
    2.3521   -9.0809    2.4408 C   0  0  0  0  0  0  0  0  0  0  0  0
    0.9511   -8.8816    2.4808 C   0  0  0  0  0  0  0  0  0  0  0  0
    0.1341   -9.9025    3.0086 C   0  0  0  0  0  0  0  0  0  0  0  0
    0.6153  -11.0658    3.4856 N   0  0  0  0  0  0  0  0  0  0  0  0
    1.9431  -11.2588    3.4590 C   0  0  0  0  0  0  0  0  0  0  0  0
    2.8393  -10.3048    2.9493 C   0  0  0  0  0  0  0  0  0  0  0  0
    4.9494   -6.1842    0.8638 S   0  0  0  0  0  0  0  0  0  0  0  0
    4.1327   -4.8261    0.1560 C   0  0  0  0  0  0  0  0  0  0  0  0
    4.5664   -3.7231   -0.4386 N   0  0  0  0  0  0  0  0  0  0  0  0
    3.3517   -3.1401   -0.7309 C   0  0  0  0  0  0  0  0  0  0  0  0
    2.2611   -3.8203   -0.3523 N   0  0  0  0  0  0  0  0  0  0  0  0
    2.8258   -4.8949    0.2277 N   0  0  0  0  0  0  0  0  0  0  0  0
    4.3894   -8.5518    2.1099 H   0  0  0  0  0  0  0  0  0  0  0  0
    0.4545   -7.9977    2.1307 H   0  0  0  0  0  0  0  0  0  0  0  0
   -0.9393   -9.7858    3.0508 H   0  0  0  0  0  0  0  0  0  0  0  0
    2.3151  -12.1959    3.8478 H   0  0  0  0  0  0  0  0  0  0  0  0
    3.8973  -10.5240    2.9401 H   0  0  0  0  0  0  0  0  0  0  0  0
    3.2739   -2.1826   -1.2286 H   0  0  0  0  0  0  0  0  0  0  0  0
  1  2  2  0
  2 16  1  0
  2  3  1  0
  3  4  2  3
  3 11  1  0
  4  5  1  0
  4 17  1  0
  5 10  1  0
  5  6  2  0
  6  7  1  0
  6 18  1  0
  7  8  2  0
  7 19  1  0
  8  9  1  0
  9 10  2  0
  9 20  1  0
 10 21  1  0
 11 12  1  0
 12 16  1  0
 12 13  2  0
 13 14  1  0
 14 15  2  0
 14 22  1  0
 15 16  1  0
M  END
>  <i_m_ct_stereo_status>  (276) 
1

>  <s_m_source_file>  (276) 
/var/tmp/pbs.5076255.sched01/tmpbzpkhbzu/844yn2io63.sdf

>  <i_m_source_file_index>  (276) 
35

>  <i_lp_mmshare_version>  (276) 
48012

>  <i_f3d_flags>  (276) 
0

>  <s_epik_input>  (276) 
bjFbY0hdbm4oYzEyKWMoPU8pL2MoczIpPVtDSF0vYzNbY0hdW2NIXW5bY0hdW2NIXTM=

>  <s_epik_cmdline>  (276) 
J2VwaWtfcHl0aG9uJywgJy1waHQnLCAnMi4wJywgJy1waCcsICc3LjAnLCAnLXRuJywgJzgnLCAnLW1hJywgJzIwMCcsICctaW1hZScsICc8aW5maWxlLm1hZT4nLCAnLW9tYWUnLCAnPG91dGZpbGUubWFlPic=

>  <r_epik_Ionization_Penalty>  (276) 
0.000924362

>  <r_epik_Ionization_Penalty_Charging>  (276) 
0

>  <r_epik_Ionization_Penalty_Neutral>  (276) 
0.000924362

>  <r_epik_State_Penalty>  (276) 
0.000599378

>  <r_epik_Charging_Adjusted_Penalty>  (276) 
0.000599378

>  <i_epik_Tot_Q>  (276) 
0

>  <i_epik_Tot_abs_Q>  (276) 
0

>  <s_lp_Force_Field>  (276) 
OPLS3e

>  <r_lp_Energy>  (276) 
28.7708

>  <b_lp_Chiralities_Consistent>  (276) 
1

>  <s_lp_Variant>  (276) 
84:0-2

>  <s_i_glide_gridfile>  (276) 
pfpi4k_grid

>  <i_i_glide_lignum>  (276) 
35

>  <i_i_glide_rotatable_bonds>  (276) 
1

>  <r_i_docking_score>  (276) 
-3.96117

>  <r_i_glide_ligand_efficiency>  (276) 
-0.247573

>  <r_i_glide_ligand_efficiency_sa>  (276) 
-0.623845

>  <r_i_glide_ligand_efficiency_ln>  (276) 
-1.04999

>  <r_i_glide_gscore>  (276) 
-3.96117

>  <r_i_glide_lipo>  (276) 
-0.315474

>  <r_i_glide_hbond>  (276) 
-0.16

>  <r_i_glide_metal>  (276) 
-0

>  <r_i_glide_rewards>  (276) 
-1.85496

>  <r_i_glide_evdw>  (276) 
-21.0948

>  <r_i_glide_ecoul>  (276) 
-3.57022

>  <r_i_glide_erotb>  (276) 
0

>  <r_i_glide_esite>  (276) 
-0.0404638

>  <r_i_glide_emodel>  (276) 
-31.0188

>  <r_i_glide_energy>  (276) 
-24.665

>  <r_i_glide_einternal>  (276) 
0.0470807

>  <r_i_glide_intrahb_reward>  (276) 
-0

>  <i_i_glide_confnum>  (276) 
1

>  <i_i_glide_posenum>  (276) 
1

>  <r_i_glide_eff_state_penalty>  (276) 
0

>  <ligand_id>  (276) 
84

>  <original_smiles>  (276) 
O=c1c(=Cc2ccncc2)sc2ncnn12

>  <smiles>  (276) 
[H]C(c1c([H])c([H])nc([H])c1[H])=c1sc2nc([H])nn2c1=O

$$$$
84:1:1
     RDKit          3D

 22 24  0  0  1  0  0  0  0  0999 V2000
    1.5121   -5.7034    0.3351 O   0  0  0  0  0  0  0  0  0  0  0  0
    2.7364   -5.6768    0.5235 C   0  0  0  0  0  0  0  0  0  0  0  0
    3.6162   -6.7097    1.1349 C   0  0  0  0  0  0  0  0  0  0  0  0
    3.3348   -7.8873    1.7637 C   0  0  0  0  0  0  0  0  0  0  0  0
    2.0452   -8.5272    2.1560 C   0  0  0  0  0  0  0  0  0  0  0  0
    2.0743   -9.8930    2.5283 C   0  0  0  0  0  0  0  0  0  0  0  0
    0.8663  -10.5373    2.9012 C   0  0  0  0  0  0  0  0  0  0  0  0
   -0.3347   -9.9124    2.8590 N   0  0  0  0  0  0  0  0  0  0  0  0
   -0.3631   -8.6143    2.5156 C   0  0  0  0  0  0  0  0  0  0  0  0
    0.7848   -7.8627    2.2121 C   0  0  0  0  0  0  0  0  0  0  0  0
    5.2811   -6.0978    0.8857 S   0  0  0  0  0  0  0  0  0  0  0  0
    4.7534   -4.6268    0.0949 C   0  0  0  0  0  0  0  0  0  0  0  0
    5.3952   -3.6032   -0.4741 N   0  0  0  0  0  0  0  0  0  0  0  0
    4.3059   -2.8494   -0.8929 C   0  0  0  0  0  0  0  0  0  0  0  0
    3.1020   -3.3708   -0.6131 N   0  0  0  0  0  0  0  0  0  0  0  0
    3.4443   -4.5212    0.0140 N   0  0  0  0  0  0  0  0  0  0  0  0
    4.1919   -8.4879    2.0819 H   0  0  0  0  0  0  0  0  0  0  0  0
    3.0240  -10.4229    2.5439 H   0  0  0  0  0  0  0  0  0  0  0  0
    0.8387  -11.5781    3.2289 H   0  0  0  0  0  0  0  0  0  0  0  0
   -1.3291   -8.1334    2.5265 H   0  0  0  0  0  0  0  0  0  0  0  0
    0.6208   -6.8055    2.0739 H   0  0  0  0  0  0  0  0  0  0  0  0
    4.4134   -1.8899   -1.4054 H   0  0  0  0  0  0  0  0  0  0  0  0
  1  2  2  0
  2 16  1  0
  2  3  1  0
  3  4  2  3
  3 11  1  0
  4  5  1  0
  4 17  1  0
  5 10  1  0
  5  6  2  0
  6  7  1  0
  6 18  1  0
  7  8  2  0
  7 19  1  0
  8  9  1  0
  9 10  2  0
  9 20  1  0
 10 21  1  0
 11 12  1  0
 12 16  1  0
 12 13  2  0
 13 14  1  0
 14 15  2  0
 14 22  1  0
 15 16  1  0
M  END
>  <i_m_ct_stereo_status>  (277) 
1

>  <s_m_source_file>  (277) 
/var/tmp/pbs.5076255.sched01/tmpbzpkhbzu/844yn2io63.sdf

>  <i_m_source_file_index>  (277) 
35

>  <i_lp_mmshare_version>  (277) 
48012

>  <i_f3d_flags>  (277) 
0

>  <s_epik_input>  (277) 
bjFbY0hdbm4oYzEyKWMoPU8pL2MoczIpPVtDSF0vYzNbY0hdW2NIXW5bY0hdW2NIXTM=

>  <s_epik_cmdline>  (277) 
J2VwaWtfcHl0aG9uJywgJy1waHQnLCAnMi4wJywgJy1waCcsICc3LjAnLCAnLXRuJywgJzgnLCAnLW1hJywgJzIwMCcsICctaW1hZScsICc8aW5maWxlLm1hZT4nLCAnLW9tYWUnLCAnPG91dGZpbGUubWFlPic=

>  <r_epik_Ionization_Penalty>  (277) 
0.000924362

>  <r_epik_Ionization_Penalty_Charging>  (277) 
0

>  <r_epik_Ionization_Penalty_Neutral>  (277) 
0.000924362

>  <r_epik_State_Penalty>  (277) 
0.000599378

>  <r_epik_Charging_Adjusted_Penalty>  (277) 
0.000599378

>  <i_epik_Tot_Q>  (277) 
0

>  <i_epik_Tot_abs_Q>  (277) 
0

>  <s_lp_Force_Field>  (277) 
OPLS3e

>  <r_lp_Energy>  (277) 
28.7708

>  <b_lp_Chiralities_Consistent>  (277) 
1

>  <s_lp_Variant>  (277) 
84:0-2

>  <s_i_glide_gridfile>  (277) 
pfpi4k_grid

>  <i_i_glide_lignum>  (277) 
35

>  <i_i_glide_rotatable_bonds>  (277) 
1

>  <r_i_docking_score>  (277) 
-3.80488

>  <r_i_glide_ligand_efficiency>  (277) 
-0.237805

>  <r_i_glide_ligand_efficiency_sa>  (277) 
-0.599231

>  <r_i_glide_ligand_efficiency_ln>  (277) 
-1.00856

>  <r_i_glide_gscore>  (277) 
-3.80488

>  <r_i_glide_lipo>  (277) 
-0.377172

>  <r_i_glide_hbond>  (277) 
-0.137213

>  <r_i_glide_metal>  (277) 
-0

>  <r_i_glide_rewards>  (277) 
-1.87911

>  <r_i_glide_evdw>  (277) 
-21.3482

>  <r_i_glide_ecoul>  (277) 
-2.10135

>  <r_i_glide_erotb>  (277) 
0

>  <r_i_glide_esite>  (277) 
-0.0287716

>  <r_i_glide_emodel>  (277) 
-28.4583

>  <r_i_glide_energy>  (277) 
-23.4496

>  <r_i_glide_einternal>  (277) 
1.12947

>  <r_i_glide_intrahb_reward>  (277) 
-0

>  <i_i_glide_confnum>  (277) 
2

>  <i_i_glide_posenum>  (277) 
30

>  <r_i_glide_eff_state_penalty>  (277) 
0

>  <ligand_id>  (277) 
84

>  <original_smiles>  (277) 
O=c1c(=Cc2ccncc2)sc2ncnn12

>  <smiles>  (277) 
[H]C(c1c([H])c([H])nc([H])c1[H])=c1sc2nc([H])nn2c1=O

$$$$
84:1:2
     RDKit          3D

 22 24  0  0  1  0  0  0  0  0999 V2000
    1.4145   -3.9031   -1.4579 O   0  0  0  0  0  0  0  0  0  0  0  0
    2.5486   -3.4359   -1.2945 C   0  0  0  0  0  0  0  0  0  0  0  0
    3.4499   -3.5148   -0.1373 C   0  0  0  0  0  0  0  0  0  0  0  0
    3.3476   -4.1684    1.0516 C   0  0  0  0  0  0  0  0  0  0  0  0
    2.3501   -5.1409    1.5471 C   0  0  0  0  0  0  0  0  0  0  0  0
    2.1372   -5.2595    2.9412 C   0  0  0  0  0  0  0  0  0  0  0  0
    1.1840   -6.1917    3.4100 C   0  0  0  0  0  0  0  0  0  0  0  0
    0.4224   -6.9537    2.5915 N   0  0  0  0  0  0  0  0  0  0  0  0
    0.6522   -6.8641    1.2690 C   0  0  0  0  0  0  0  0  0  0  0  0
    1.5855   -5.9709    0.7105 C   0  0  0  0  0  0  0  0  0  0  0  0
    4.8323   -2.4674   -0.5339 S   0  0  0  0  0  0  0  0  0  0  0  0
    4.1732   -2.0401   -2.0794 C   0  0  0  0  0  0  0  0  0  0  0  0
    4.6066   -1.2259   -3.0394 N   0  0  0  0  0  0  0  0  0  0  0  0
    3.5766   -1.3899   -3.9378 C   0  0  0  0  0  0  0  0  0  0  0  0
    2.6201   -2.2568   -3.5974 N   0  0  0  0  0  0  0  0  0  0  0  0
    3.0377   -2.6233   -2.3637 N   0  0  0  0  0  0  0  0  0  0  0  0
    4.1796   -4.0241    1.7305 H   0  0  0  0  0  0  0  0  0  0  0  0
    2.7069   -4.6680    3.6464 H   0  0  0  0  0  0  0  0  0  0  0  0
    1.0114   -6.3294    4.4759 H   0  0  0  0  0  0  0  0  0  0  0  0
    0.0617   -7.4948    0.6287 H   0  0  0  0  0  0  0  0  0  0  0  0
    1.7332   -5.9812   -0.3545 H   0  0  0  0  0  0  0  0  0  0  0  0
    3.5650   -0.8877   -4.8985 H   0  0  0  0  0  0  0  0  0  0  0  0
  1  2  2  0
  2 16  1  0
  2  3  1  0
  3  4  2  3
  3 11  1  0
  4  5  1  0
  4 17  1  0
  5 10  1  0
  5  6  2  0
  6  7  1  0
  6 18  1  0
  7  8  2  0
  7 19  1  0
  8  9  1  0
  9 10  2  0
  9 20  1  0
 10 21  1  0
 11 12  1  0
 12 16  1  0
 12 13  2  0
 13 14  1  0
 14 15  2  0
 14 22  1  0
 15 16  1  0
M  END
>  <i_m_ct_stereo_status>  (278) 
1

>  <s_m_source_file>  (278) 
/var/tmp/pbs.5076255.sched01/tmpbzpkhbzu/844yn2io63.sdf

>  <i_m_source_file_index>  (278) 
35

>  <i_lp_mmshare_version>  (278) 
48012

>  <i_f3d_flags>  (278) 
0

>  <s_epik_input>  (278) 
bjFbY0hdbm4oYzEyKWMoPU8pL2MoczIpPVtDSF0vYzNbY0hdW2NIXW5bY0hdW2NIXTM=

>  <s_epik_cmdline>  (278) 
J2VwaWtfcHl0aG9uJywgJy1waHQnLCAnMi4wJywgJy1waCcsICc3LjAnLCAnLXRuJywgJzgnLCAnLW1hJywgJzIwMCcsICctaW1hZScsICc8aW5maWxlLm1hZT4nLCAnLW9tYWUnLCAnPG91dGZpbGUubWFlPic=

>  <r_epik_Ionization_Penalty>  (278) 
0.000924362

>  <r_epik_Ionization_Penalty_Charging>  (278) 
0

>  <r_epik_Ionization_Penalty_Neutral>  (278) 
0.000924362

>  <r_epik_State_Penalty>  (278) 
0.000599378

>  <r_epik_Charging_Adjusted_Penalty>  (278) 
0.000599378

>  <i_epik_Tot_Q>  (278) 
0

>  <i_epik_Tot_abs_Q>  (278) 
0

>  <s_lp_Force_Field>  (278) 
OPLS3e

>  <r_lp_Energy>  (278) 
28.7708

>  <b_lp_Chiralities_Consistent>  (278) 
1

>  <s_lp_Variant>  (278) 
84:0-2

>  <s_i_glide_gridfile>  (278) 
pfpi4k_grid

>  <i_i_glide_lignum>  (278) 
35

>  <i_i_glide_rotatable_bonds>  (278) 
1

>  <r_i_docking_score>  (278) 
-3.47454

>  <r_i_glide_ligand_efficiency>  (278) 
-0.217159

>  <r_i_glide_ligand_efficiency_sa>  (278) 
-0.547206

>  <r_i_glide_ligand_efficiency_ln>  (278) 
-0.920997

>  <r_i_glide_gscore>  (278) 
-3.47454

>  <r_i_glide_lipo>  (278) 
-0.0657224

>  <r_i_glide_hbond>  (278) 
-0.0154405

>  <r_i_glide_metal>  (278) 
-0

>  <r_i_glide_rewards>  (278) 
-1.95998

>  <r_i_glide_evdw>  (278) 
-23.2856

>  <r_i_glide_ecoul>  (278) 
-1.44596

>  <r_i_glide_erotb>  (278) 
0

>  <r_i_glide_esite>  (278) 
-0.0522232

>  <r_i_glide_emodel>  (278) 
-29.2285

>  <r_i_glide_energy>  (278) 
-24.7316

>  <r_i_glide_einternal>  (278) 
1.8929

>  <r_i_glide_intrahb_reward>  (278) 
-0

>  <i_i_glide_confnum>  (278) 
1

>  <i_i_glide_posenum>  (278) 
36

>  <r_i_glide_eff_state_penalty>  (278) 
0

>  <ligand_id>  (278) 
84

>  <original_smiles>  (278) 
O=c1c(=Cc2ccncc2)sc2ncnn12

>  <smiles>  (278) 
[H]C(c1c([H])c([H])nc([H])c1[H])=c1sc2nc([H])nn2c1=O

$$$$
85:0:0
     RDKit          3D

 42 46  0  0  1  0  0  0  0  0999 V2000
   -5.3075   -4.2997   -4.7888 C   0  0  0  0  0  0  0  0  0  0  0  0
   -6.1421   -5.3757   -5.3740 C   0  0  0  0  0  0  0  0  0  0  0  0
   -5.7928   -6.6794   -5.3417 C   0  0  0  0  0  0  0  0  0  0  0  0
   -6.7136   -7.7177   -5.9328 C   0  0  2  0  0  0  0  0  0  0  0  0
   -6.1844   -9.0649   -6.4362 C   0  0  0  0  0  0  0  0  0  0  0  0
   -7.4661   -9.5604   -7.1502 C   0  0  2  0  0  0  0  0  0  0  0  0
   -7.4125  -10.6423   -8.2713 C   0  0  1  0  0  0  0  0  0  0  0  0
   -7.4243  -11.9703   -7.5372 C   0  0  0  0  0  0  0  0  0  0  0  0
   -8.9660  -11.9513   -7.1464 C   0  0  0  0  0  0  0  0  0  0  0  0
   -9.6476  -11.0493   -8.1919 C   0  0  0  0  0  0  0  0  0  0  0  0
   -8.6888  -10.8570   -9.0675 C   0  0  0  0  0  0  0  0  0  0  0  0
   -8.8635  -10.5741  -10.5469 C   0  0  0  0  0  0  0  0  0  0  0  0
  -10.2853   -9.7508   -7.9252 C   0  0  0  0  0  0  0  0  0  0  0  0
   -9.5820   -8.5731   -7.9308 C   0  0  0  0  0  0  0  0  0  0  0  0
   -8.0349   -8.3857   -7.8743 C   0  0  2  0  0  0  0  0  0  0  0  0
   -7.3355   -8.5394   -9.1288 O   0  0  0  0  0  0  0  0  0  0  0  0
   -6.5598   -9.8798   -9.0536 O   0  0  0  0  0  0  0  0  0  0  0  0
   -7.4560   -7.1516   -7.1404 C   0  0  1  0  0  0  0  0  0  0  0  0
   -8.2728   -5.9134   -6.7180 C   0  0  0  0  0  0  0  0  0  0  0  0
   -7.3645   -4.8340   -6.1019 C   0  0  0  0  0  0  0  0  0  0  0  0
   -4.9760   -3.6550   -5.6096 H   0  0  0  0  0  0  0  0  0  0  0  0
   -4.4030   -4.7013   -4.3700 H   0  0  0  0  0  0  0  0  0  0  0  0
   -5.8038   -3.6977   -4.0172 H   0  0  0  0  0  0  0  0  0  0  0  0
   -4.8936   -7.0310   -4.8417 H   0  0  0  0  0  0  0  0  0  0  0  0
   -7.3971   -7.9056   -5.1239 H   0  0  0  0  0  0  0  0  0  0  0  0
   -5.3393   -8.9423   -7.1173 H   0  0  0  0  0  0  0  0  0  0  0  0
   -5.9025   -9.7100   -5.6101 H   0  0  0  0  0  0  0  0  0  0  0  0
   -8.1375   -9.8107   -6.3339 H   0  0  0  0  0  0  0  0  0  0  0  0
   -7.2216  -12.7829   -8.2359 H   0  0  0  0  0  0  0  0  0  0  0  0
   -6.7359  -12.0566   -6.7007 H   0  0  0  0  0  0  0  0  0  0  0  0
   -9.3853  -12.9518   -7.2580 H   0  0  0  0  0  0  0  0  0  0  0  0
   -9.1760  -11.6281   -6.1307 H   0  0  0  0  0  0  0  0  0  0  0  0
   -8.5489  -11.4872  -11.0527 H   0  0  0  0  0  0  0  0  0  0  0  0
   -8.2738   -9.7474  -10.9418 H   0  0  0  0  0  0  0  0  0  0  0  0
   -9.9162  -10.4252  -10.8013 H   0  0  0  0  0  0  0  0  0  0  0  0
  -11.3674   -9.6921   -7.8868 H   0  0  0  0  0  0  0  0  0  0  0  0
  -10.1103   -7.6546   -7.8049 H   0  0  0  0  0  0  0  0  0  0  0  0
   -6.6958   -6.7752   -7.8196 H   0  0  0  0  0  0  0  0  0  0  0  0
   -8.8727   -5.4900   -7.5241 H   0  0  0  0  0  0  0  0  0  0  0  0
   -8.9119   -6.1782   -5.8918 H   0  0  0  0  0  0  0  0  0  0  0  0
   -7.9142   -4.1970   -5.4109 H   0  0  0  0  0  0  0  0  0  0  0  0
   -6.9948   -4.1806   -6.8883 H   0  0  0  0  0  0  0  0  0  0  0  0
  1  2  1  0
  1 21  1  0
  1 22  1  0
  1 23  1  0
  2 20  1  0
  2  3  2  0
  3  4  1  0
  3 24  1  0
  4 18  1  0
  4  5  1  0
  4 25  1  1
  5  6  1  0
  5 26  1  0
  5 27  1  0
  6 15  1  0
  6  7  1  0
  6 28  1  1
  7 11  1  0
  7 17  1  6
  7  8  1  0
  8  9  1  0
  8 29  1  0
  8 30  1  0
  9 10  1  0
  9 31  1  0
  9 32  1  0
 10 11  2  0
 10 13  1  0
 11 12  1  0
 12 33  1  0
 12 34  1  0
 12 35  1  0
 13 14  2  0
 13 36  1  0
 14 15  1  0
 14 37  1  0
 15 16  1  6
 15 18  1  0
 16 17  1  0
 18 19  1  0
 18 38  1  6
 19 20  1  0
 19 39  1  0
 19 40  1  0
 20 41  1  0
 20 42  1  0
M  END
>  <i_m_ct_stereo_status>  (279) 
1

>  <s_m_source_file>  (279) 
/var/tmp/pbs.5076255.sched01/tmpbzpkhbzu/844yn2io63.sdf

>  <i_m_source_file_index>  (279) 
36

>  <i_lp_mmshare_version>  (279) 
48012

>  <i_f3d_flags>  (279) 
0

>  <s_epik_input>  (279) 
W0NIMl0xW0NIMl1DKFtDSDNdKT1bQ0hdW0NASF0oW0NIMl0yKVtDQEhdMVtDQF0oW0NASF0yQzM0NSkoT081KVtDSF09W0NIXUMoW0NIMl1bQ0gyXTMpPUM0W0NIM10=

>  <s_epik_cmdline>  (279) 
J2VwaWtfcHl0aG9uJywgJy1waHQnLCAnMi4wJywgJy1waCcsICc3LjAnLCAnLXRuJywgJzgnLCAnLW1hJywgJzIwMCcsICctaW1hZScsICc8aW5maWxlLm1hZT4nLCAnLW9tYWUnLCAnPG91dGZpbGUubWFlPic=

>  <r_lp_tautomer_probability>  (279) 
1

>  <r_epik_Ionization_Penalty>  (279) 
0

>  <r_epik_Ionization_Penalty_Charging>  (279) 
0

>  <r_epik_Ionization_Penalty_Neutral>  (279) 
0

>  <r_epik_State_Penalty>  (279) 
-0

>  <r_epik_Charging_Adjusted_Penalty>  (279) 
0

>  <i_epik_Tot_Q>  (279) 
0

>  <i_epik_Tot_abs_Q>  (279) 
0

>  <s_lp_Force_Field>  (279) 
OPLS3e

>  <r_lp_Energy>  (279) 
130.862

>  <b_lp_Chiralities_Consistent>  (279) 
1

>  <s_lp_Variant>  (279) 
85:0-1

>  <s_i_glide_gridfile>  (279) 
pfpi4k_grid

>  <i_i_glide_lignum>  (279) 
36

>  <i_i_glide_rotatable_bonds>  (279) 
0

>  <r_i_docking_score>  (279) 
-4.74879

>  <r_i_glide_ligand_efficiency>  (279) 
-0.237439

>  <r_i_glide_ligand_efficiency_sa>  (279) 
-0.644509

>  <r_i_glide_ligand_efficiency_ln>  (279) 
-1.18846

>  <r_i_glide_gscore>  (279) 
-4.74879

>  <r_i_glide_lipo>  (279) 
-2.27139

>  <r_i_glide_hbond>  (279) 
0

>  <r_i_glide_metal>  (279) 
-0

>  <r_i_glide_rewards>  (279) 
-1.56569

>  <r_i_glide_evdw>  (279) 
-19.3016

>  <r_i_glide_ecoul>  (279) 
0.35579

>  <r_i_glide_erotb>  (279) 
0

>  <r_i_glide_esite>  (279) 
0

>  <r_i_glide_emodel>  (279) 
-21.687

>  <r_i_glide_energy>  (279) 
-18.9458

>  <r_i_glide_einternal>  (279) 
0

>  <r_i_glide_intrahb_reward>  (279) 
-0

>  <i_i_glide_confnum>  (279) 
1

>  <i_i_glide_posenum>  (279) 
1

>  <r_i_glide_eff_state_penalty>  (279) 
0

>  <ligand_id>  (279) 
85

>  <original_smiles>  (279) 
CC1=CC2CC3C45CCC(=C4C)C=CC3(OO5)C2CC1

>  <smiles>  (279) 
[H]C1=C([H])C23OOC4(C(C([H])([H])[H])=C1C([H])([H])C4([H])[H])C2([H])C([H])([H])C1([H])C([H])=C(C([H])([H])[H])C([H])([H])C([H])([H])C13[H]

$$$$
87:0:0
     RDKit          3D

 42 45  0  0  1  0  0  0  0  0999 V2000
    4.6815   -1.1122   -1.6305 C   0  0  0  0  0  0  0  0  0  0  0  0
    4.8308   -1.6066   -0.1771 C   0  0  2  0  0  0  0  0  0  0  0  0
    4.8196   -0.3820    0.7740 C   0  0  0  0  0  0  0  0  0  0  0  0
    5.1189   -0.8552    2.2231 C   0  0  0  0  0  0  0  0  0  0  0  0
    4.9468   -2.4005    2.2982 C   0  0  2  0  0  0  0  0  0  0  0  0
    6.0539   -3.0653    1.3555 C   0  0  2  0  0  0  0  0  0  0  0  0
    6.2441   -2.1781    0.1091 C   0  0  0  0  0  0  0  0  0  0  0  0
    5.6169   -4.4095    0.7302 C   0  0  1  0  0  0  0  0  0  0  0  0
    5.5972   -5.3843    1.7509 O   0  0  0  0  0  0  0  0  0  0  0  0
    4.2895   -4.1648   -0.0918 C   0  0  1  0  0  0  0  0  0  0  0  0
    4.6133   -4.2585   -1.4703 O   0  0  0  0  0  0  0  0  0  0  0  0
    3.1692   -5.1991    0.0982 C   0  0  0  0  0  0  0  0  0  0  0  0
    2.7271   -5.3551    1.5510 C   0  0  0  0  0  0  0  0  0  0  0  0
    2.8643   -4.0765    2.4036 C   0  0  1  0  0  0  0  0  0  0  0  0
    3.4530   -4.4288    3.6396 O   0  0  0  0  0  0  0  0  0  0  0  0
    3.4897   -2.7434    1.7823 C   0  0  1  0  0  0  0  0  0  0  0  0
    2.3854   -1.7103    2.1763 C   0  0  0  0  0  0  0  0  0  0  0  0
    3.7399   -2.7302    0.2249 C   0  0  1  0  0  0  0  0  0  0  0  0
    3.6882   -0.6858   -1.7871 H   0  0  0  0  0  0  0  0  0  0  0  0
    4.8192   -1.9137   -2.3561 H   0  0  0  0  0  0  0  0  0  0  0  0
    5.4134   -0.3378   -1.8574 H   0  0  0  0  0  0  0  0  0  0  0  0
    5.5875    0.3339    0.4839 H   0  0  0  0  0  0  0  0  0  0  0  0
    3.8991    0.1870    0.6704 H   0  0  0  0  0  0  0  0  0  0  0  0
    6.1421   -0.5943    2.4929 H   0  0  0  0  0  0  0  0  0  0  0  0
    4.4863   -0.3312    2.9353 H   0  0  0  0  0  0  0  0  0  0  0  0
    5.0961   -2.7060    3.3316 H   0  0  0  0  0  0  0  0  0  0  0  0
    7.0055   -3.1767    1.8691 H   0  0  0  0  0  0  0  0  0  0  0  0
    6.6403   -2.7324   -0.7426 H   0  0  0  0  0  0  0  0  0  0  0  0
    6.9806   -1.3977    0.3054 H   0  0  0  0  0  0  0  0  0  0  0  0
    6.3980   -4.7706    0.0555 H   0  0  0  0  0  0  0  0  0  0  0  0
    5.4340   -6.2250    1.3467 H   0  0  0  0  0  0  0  0  0  0  0  0
    3.9882   -4.8474   -1.8882 H   0  0  0  0  0  0  0  0  0  0  0  0
    2.3052   -4.8729   -0.4852 H   0  0  0  0  0  0  0  0  0  0  0  0
    3.4593   -6.1741   -0.3013 H   0  0  0  0  0  0  0  0  0  0  0  0
    1.6929   -5.7034    1.5775 H   0  0  0  0  0  0  0  0  0  0  0  0
    3.2727   -6.1827    2.0083 H   0  0  0  0  0  0  0  0  0  0  0  0
    1.8317   -3.8910    2.7003 H   0  0  0  0  0  0  0  0  0  0  0  0
    4.3436   -4.7062    3.4648 H   0  0  0  0  0  0  0  0  0  0  0  0
    1.4159   -2.0189    1.7837 H   0  0  0  0  0  0  0  0  0  0  0  0
    2.4882   -0.7032    1.8004 H   0  0  0  0  0  0  0  0  0  0  0  0
    2.2919   -1.6337    3.2602 H   0  0  0  0  0  0  0  0  0  0  0  0
    2.7998   -2.5474   -0.3030 H   0  0  0  0  0  0  0  0  0  0  0  0
  2  1  1  6
  1 19  1  0
  1 20  1  0
  1 21  1  0
  2  7  1  0
  2 18  1  0
  2  3  1  0
  3  4  1  0
  3 22  1  0
  3 23  1  0
  4  5  1  0
  4 24  1  0
  4 25  1  0
  5 16  1  0
  5  6  1  0
  5 26  1  1
  6  7  1  0
  6  8  1  0
  6 27  1  1
  7 28  1  0
  7 29  1  0
  8  9  1  0
  8 10  1  0
  8 30  1  6
  9 31  1  0
 10 18  1  0
 10 11  1  6
 10 12  1  0
 11 32  1  0
 12 13  1  0
 12 33  1  0
 12 34  1  0
 13 14  1  0
 13 35  1  0
 13 36  1  0
 14 15  1  0
 14 16  1  0
 14 37  1  1
 15 38  1  0
 16 17  1  6
 16 18  1  0
 17 39  1  0
 17 40  1  0
 17 41  1  0
 18 42  1  6
M  END
>  <i_m_ct_stereo_status>  (280) 
1

>  <s_m_source_file>  (280) 
/var/tmp/pbs.5076255.sched01/tmpbzpkhbzu/844yn2io63.sdf

>  <i_m_source_file_index>  (280) 
38

>  <i_lp_mmshare_version>  (280) 
48012

>  <i_f3d_flags>  (280) 
0

>  <s_epik_input>  (280) 
W0NIM11bQ0BdMTJbQ0BIXTNbQ0BAXTQoW09IXSlbQ0BIXShbT0hdKVtDQEBIXShbQ0gyXTIpW0NAQEhdKFtDSDJdW0NIMl0xKVtDQF0zKFtDSDNdKVtDQEhdKFtPSF0pW0NIMl1bQ0gyXTQ=

>  <s_epik_cmdline>  (280) 
J2VwaWtfcHl0aG9uJywgJy1waHQnLCAnMi4wJywgJy1waCcsICc3LjAnLCAnLXRuJywgJzgnLCAnLW1hJywgJzIwMCcsICctaW1hZScsICc8aW5maWxlLm1hZT4nLCAnLW9tYWUnLCAnPG91dGZpbGUubWFlPic=

>  <r_lp_tautomer_probability>  (280) 
1

>  <r_epik_Ionization_Penalty>  (280) 
2.88136e-06

>  <r_epik_Ionization_Penalty_Charging>  (280) 
0

>  <r_epik_Ionization_Penalty_Neutral>  (280) 
2.88136e-06

>  <r_epik_State_Penalty>  (280) 
-0

>  <r_epik_Charging_Adjusted_Penalty>  (280) 
0

>  <i_epik_Tot_Q>  (280) 
0

>  <i_epik_Tot_abs_Q>  (280) 
0

>  <s_lp_Force_Field>  (280) 
OPLS3e

>  <r_lp_Energy>  (280) 
91.8738

>  <b_lp_Chiralities_Consistent>  (280) 
1

>  <s_lp_Variant>  (280) 
87:0-1

>  <s_i_glide_gridfile>  (280) 
pfpi4k_grid

>  <i_i_glide_lignum>  (280) 
38

>  <i_i_glide_rotatable_bonds>  (280) 
3

>  <r_i_docking_score>  (280) 
-4.69455

>  <r_i_glide_ligand_efficiency>  (280) 
-0.260808

>  <r_i_glide_ligand_efficiency_sa>  (280) 
-0.68351

>  <r_i_glide_ligand_efficiency_ln>  (280) 
-1.20671

>  <r_i_glide_gscore>  (280) 
-4.69455

>  <r_i_glide_lipo>  (280) 
-0.529943

>  <r_i_glide_hbond>  (280) 
-0.32

>  <r_i_glide_metal>  (280) 
-0

>  <r_i_glide_rewards>  (280) 
-2.18853

>  <r_i_glide_evdw>  (280) 
-19.3532

>  <r_i_glide_ecoul>  (280) 
-4.58944

>  <r_i_glide_erotb>  (280) 
0

>  <r_i_glide_esite>  (280) 
0

>  <r_i_glide_emodel>  (280) 
-34.867

>  <r_i_glide_energy>  (280) 
-23.9426

>  <r_i_glide_einternal>  (280) 
1.57139

>  <r_i_glide_intrahb_reward>  (280) 
-0.5

>  <i_i_glide_confnum>  (280) 
1

>  <i_i_glide_posenum>  (280) 
33

>  <r_i_glide_eff_state_penalty>  (280) 
0

>  <ligand_id>  (280) 
87

>  <original_smiles>  (280) 
CC12CCC3C(C1)C(O)C1(O)CCC(O)C3(C)C21

>  <smiles>  (280) 
[H]OC1([H])C2([H])C([H])([H])C3(C([H])([H])[H])C([H])([H])C([H])([H])C2([H])C2(C([H])([H])[H])C([H])(O[H])C([H])([H])C([H])([H])C1(O[H])C32[H]

$$$$
87:0:1
     RDKit          3D

 42 45  0  0  1  0  0  0  0  0999 V2000
    4.9462   -0.8896   -1.8642 C   0  0  0  0  0  0  0  0  0  0  0  0
    5.2056   -1.5056   -0.4755 C   0  0  2  0  0  0  0  0  0  0  0  0
    5.6812   -0.4035    0.4980 C   0  0  0  0  0  0  0  0  0  0  0  0
    6.0858   -1.0561    1.8468 C   0  0  0  0  0  0  0  0  0  0  0  0
    5.5220   -2.4991    1.9076 C   0  0  2  0  0  0  0  0  0  0  0  0
    6.2281   -3.3479    0.7546 C   0  0  2  0  0  0  0  0  0  0  0  0
    6.4365   -2.4424   -0.4761 C   0  0  0  0  0  0  0  0  0  0  0  0
    5.3356   -4.4703    0.1710 C   0  0  1  0  0  0  0  0  0  0  0  0
    5.2365   -5.4975    1.1345 O   0  0  0  0  0  0  0  0  0  0  0  0
    4.0006   -3.8146   -0.3665 C   0  0  1  0  0  0  0  0  0  0  0  0
    4.0333   -3.8555   -1.7773 O   0  0  0  0  0  0  0  0  0  0  0  0
    2.6892   -4.5204    0.0079 C   0  0  0  0  0  0  0  0  0  0  0  0
    2.5002   -4.6873    1.5076 C   0  0  0  0  0  0  0  0  0  0  0  0
    3.1156   -3.5615    2.3573 C   0  0  1  0  0  0  0  0  0  0  0  0
    3.7960   -4.1606    3.4431 O   0  0  0  0  0  0  0  0  0  0  0  0
    3.9640   -2.3944    1.6700 C   0  0  1  0  0  0  0  0  0  0  0  0
    3.2690   -1.1434    2.3025 C   0  0  0  0  0  0  0  0  0  0  0  0
    3.9356   -2.3217    0.0956 C   0  0  1  0  0  0  0  0  0  0  0  0
    4.0909   -0.2254   -1.8204 H   0  0  0  0  0  0  0  0  0  0  0  0
    4.7388   -1.6297   -2.6304 H   0  0  0  0  0  0  0  0  0  0  0  0
    5.7956   -0.3009   -2.1920 H   0  0  0  0  0  0  0  0  0  0  0  0
    6.5499    0.1183    0.0942 H   0  0  0  0  0  0  0  0  0  0  0  0
    4.9435    0.3910    0.5916 H   0  0  0  0  0  0  0  0  0  0  0  0
    7.1698   -1.0626    1.9108 H   0  0  0  0  0  0  0  0  0  0  0  0
    5.7564   -0.4473    2.6900 H   0  0  0  0  0  0  0  0  0  0  0  0
    5.7649   -2.9160    2.8866 H   0  0  0  0  0  0  0  0  0  0  0  0
    7.1914   -3.7445    1.0883 H   0  0  0  0  0  0  0  0  0  0  0  0
    6.5165   -3.0059   -1.4075 H   0  0  0  0  0  0  0  0  0  0  0  0
    7.3801   -1.9020   -0.3947 H   0  0  0  0  0  0  0  0  0  0  0  0
    5.8441   -4.9572   -0.6595 H   0  0  0  0  0  0  0  0  0  0  0  0
    4.7900   -6.2275    0.7347 H   0  0  0  0  0  0  0  0  0  0  0  0
    3.8212   -4.7497   -2.0547 H   0  0  0  0  0  0  0  0  0  0  0  0
    1.8676   -3.9207   -0.3968 H   0  0  0  0  0  0  0  0  0  0  0  0
    2.6124   -5.4989   -0.4604 H   0  0  0  0  0  0  0  0  0  0  0  0
    1.4380   -4.7618    1.7349 H   0  0  0  0  0  0  0  0  0  0  0  0
    2.8806   -5.6618    1.8159 H   0  0  0  0  0  0  0  0  0  0  0  0
    2.2359   -3.1360    2.8443 H   0  0  0  0  0  0  0  0  0  0  0  0
    4.5291   -4.6407    3.0848 H   0  0  0  0  0  0  0  0  0  0  0  0
    2.1987   -1.1484    2.0926 H   0  0  0  0  0  0  0  0  0  0  0  0
    3.5791   -0.1697    1.9542 H   0  0  0  0  0  0  0  0  0  0  0  0
    3.3925   -1.1377    3.3850 H   0  0  0  0  0  0  0  0  0  0  0  0
    3.0068   -1.8492   -0.2381 H   0  0  0  0  0  0  0  0  0  0  0  0
  2  1  1  6
  1 19  1  0
  1 20  1  0
  1 21  1  0
  2  7  1  0
  2 18  1  0
  2  3  1  0
  3  4  1  0
  3 22  1  0
  3 23  1  0
  4  5  1  0
  4 24  1  0
  4 25  1  0
  5 16  1  0
  5  6  1  0
  5 26  1  1
  6  7  1  0
  6  8  1  0
  6 27  1  1
  7 28  1  0
  7 29  1  0
  8  9  1  0
  8 10  1  0
  8 30  1  6
  9 31  1  0
 10 18  1  0
 10 11  1  6
 10 12  1  0
 11 32  1  0
 12 13  1  0
 12 33  1  0
 12 34  1  0
 13 14  1  0
 13 35  1  0
 13 36  1  0
 14 15  1  0
 14 16  1  0
 14 37  1  1
 15 38  1  0
 16 17  1  1
 16 18  1  0
 17 39  1  0
 17 40  1  0
 17 41  1  0
 18 42  1  1
M  END
>  <i_m_ct_stereo_status>  (281) 
1

>  <s_m_source_file>  (281) 
/var/tmp/pbs.5076255.sched01/tmpbzpkhbzu/844yn2io63.sdf

>  <i_m_source_file_index>  (281) 
38

>  <i_lp_mmshare_version>  (281) 
48012

>  <i_f3d_flags>  (281) 
0

>  <s_epik_input>  (281) 
W0NIM11bQ0BdMTJbQ0BIXTNbQ0BAXTQoW09IXSlbQ0BIXShbT0hdKVtDQEBIXShbQ0gyXTIpW0NAQEhdKFtDSDJdW0NIMl0xKVtDQF0zKFtDSDNdKVtDQEhdKFtPSF0pW0NIMl1bQ0gyXTQ=

>  <s_epik_cmdline>  (281) 
J2VwaWtfcHl0aG9uJywgJy1waHQnLCAnMi4wJywgJy1waCcsICc3LjAnLCAnLXRuJywgJzgnLCAnLW1hJywgJzIwMCcsICctaW1hZScsICc8aW5maWxlLm1hZT4nLCAnLW9tYWUnLCAnPG91dGZpbGUubWFlPic=

>  <r_lp_tautomer_probability>  (281) 
1

>  <r_epik_Ionization_Penalty>  (281) 
2.88136e-06

>  <r_epik_Ionization_Penalty_Charging>  (281) 
0

>  <r_epik_Ionization_Penalty_Neutral>  (281) 
2.88136e-06

>  <r_epik_State_Penalty>  (281) 
-0

>  <r_epik_Charging_Adjusted_Penalty>  (281) 
0

>  <i_epik_Tot_Q>  (281) 
0

>  <i_epik_Tot_abs_Q>  (281) 
0

>  <s_lp_Force_Field>  (281) 
OPLS3e

>  <r_lp_Energy>  (281) 
91.8738

>  <b_lp_Chiralities_Consistent>  (281) 
1

>  <s_lp_Variant>  (281) 
87:0-1

>  <s_i_glide_gridfile>  (281) 
pfpi4k_grid

>  <i_i_glide_lignum>  (281) 
38

>  <i_i_glide_rotatable_bonds>  (281) 
3

>  <r_i_docking_score>  (281) 
-4.50657

>  <r_i_glide_ligand_efficiency>  (281) 
-0.250365

>  <r_i_glide_ligand_efficiency_sa>  (281) 
-0.656143

>  <r_i_glide_ligand_efficiency_ln>  (281) 
-1.15839

>  <r_i_glide_gscore>  (281) 
-4.50657

>  <r_i_glide_lipo>  (281) 
-0.46492

>  <r_i_glide_hbond>  (281) 
-0.32

>  <r_i_glide_metal>  (281) 
-0

>  <r_i_glide_rewards>  (281) 
-2.18853

>  <r_i_glide_evdw>  (281) 
-16.1336

>  <r_i_glide_ecoul>  (281) 
-4.843

>  <r_i_glide_erotb>  (281) 
0

>  <r_i_glide_esite>  (281) 
0

>  <r_i_glide_emodel>  (281) 
-32.2762

>  <r_i_glide_energy>  (281) 
-20.9765

>  <r_i_glide_einternal>  (281) 
0.536928

>  <r_i_glide_intrahb_reward>  (281) 
-0.5

>  <i_i_glide_confnum>  (281) 
1

>  <i_i_glide_posenum>  (281) 
3

>  <r_i_glide_eff_state_penalty>  (281) 
0

>  <ligand_id>  (281) 
87

>  <original_smiles>  (281) 
CC12CCC3C(C1)C(O)C1(O)CCC(O)C3(C)C21

>  <smiles>  (281) 
[H]OC1([H])C2([H])C([H])([H])C3(C([H])([H])[H])C([H])([H])C([H])([H])C2([H])C2(C([H])([H])[H])C([H])(O[H])C([H])([H])C([H])([H])C1(O[H])C32[H]

$$$$
87:0:2
     RDKit          3D

 42 45  0  0  1  0  0  0  0  0999 V2000
    2.9580   -2.9394   -2.2042 C   0  0  0  0  0  0  0  0  0  0  0  0
    3.9900   -2.8144   -1.0674 C   0  0  2  0  0  0  0  0  0  0  0  0
    4.8831   -1.5760   -1.3462 C   0  0  0  0  0  0  0  0  0  0  0  0
    6.0239   -1.5250   -0.2899 C   0  0  0  0  0  0  0  0  0  0  0  0
    5.6751   -2.4743    0.8900 C   0  0  2  0  0  0  0  0  0  0  0  0
    5.6429   -3.9679    0.3160 C   0  0  2  0  0  0  0  0  0  0  0  0
    5.0480   -3.9463   -1.1081 C   0  0  0  0  0  0  0  0  0  0  0  0
    4.6538   -4.8938    1.0641 C   0  0  1  0  0  0  0  0  0  0  0  0
    5.2124   -5.1342    2.3404 O   0  0  0  0  0  0  0  0  0  0  0  0
    3.2045   -4.2541    0.9771 C   0  0  1  0  0  0  0  0  0  0  0  0
    2.3966   -5.0277    0.0993 O   0  0  0  0  0  0  0  0  0  0  0  0
    2.3896   -4.2401    2.2797 C   0  0  0  0  0  0  0  0  0  0  0  0
    3.0869   -3.5204    3.4256 C   0  0  0  0  0  0  0  0  0  0  0  0
    4.0116   -2.3645    2.9881 C   0  0  1  0  0  0  0  0  0  0  0  0
    5.2176   -2.4789    3.7098 O   0  0  0  0  0  0  0  0  0  0  0  0
    4.2530   -2.0457    1.4398 C   0  0  1  0  0  0  0  0  0  0  0  0
    3.9737   -0.5073    1.4306 C   0  0  0  0  0  0  0  0  0  0  0  0
    3.3261   -2.7953    0.4088 C   0  0  1  0  0  0  0  0  0  0  0  0
    2.2515   -2.1092   -2.1845 H   0  0  0  0  0  0  0  0  0  0  0  0
    2.3682   -3.8543   -2.1419 H   0  0  0  0  0  0  0  0  0  0  0  0
    3.4423   -2.9386   -3.1796 H   0  0  0  0  0  0  0  0  0  0  0  0
    5.3246   -1.6387   -2.3412 H   0  0  0  0  0  0  0  0  0  0  0  0
    4.2871   -0.6666   -1.4033 H   0  0  0  0  0  0  0  0  0  0  0  0
    6.9577   -1.8615   -0.7378 H   0  0  0  0  0  0  0  0  0  0  0  0
    6.2017   -0.5039    0.0427 H   0  0  0  0  0  0  0  0  0  0  0  0
    6.4534   -2.3734    1.6424 H   0  0  0  0  0  0  0  0  0  0  0  0
    6.6446   -4.4005    0.2883 H   0  0  0  0  0  0  0  0  0  0  0  0
    4.6140   -4.9037   -1.3964 H   0  0  0  0  0  0  0  0  0  0  0  0
    5.8272   -3.7647   -1.8500 H   0  0  0  0  0  0  0  0  0  0  0  0
    4.6334   -5.8813    0.5968 H   0  0  0  0  0  0  0  0  0  0  0  0
    5.9651   -5.7048    2.2436 H   0  0  0  0  0  0  0  0  0  0  0  0
    2.8301   -5.0827   -0.7449 H   0  0  0  0  0  0  0  0  0  0  0  0
    1.4542   -3.7128    2.0885 H   0  0  0  0  0  0  0  0  0  0  0  0
    2.1177   -5.2518    2.5897 H   0  0  0  0  0  0  0  0  0  0  0  0
    2.3339   -3.1355    4.1142 H   0  0  0  0  0  0  0  0  0  0  0  0
    3.6318   -4.2489    4.0268 H   0  0  0  0  0  0  0  0  0  0  0  0
    3.5512   -1.5025    3.4772 H   0  0  0  0  0  0  0  0  0  0  0  0
    5.6351   -3.2855    3.4279 H   0  0  0  0  0  0  0  0  0  0  0  0
    2.9788   -0.2930    1.8244 H   0  0  0  0  0  0  0  0  0  0  0  0
    3.9712   -0.0045    0.4763 H   0  0  0  0  0  0  0  0  0  0  0  0
    4.6907    0.0224    2.0574 H   0  0  0  0  0  0  0  0  0  0  0  0
    2.3457   -2.3105    0.3789 H   0  0  0  0  0  0  0  0  0  0  0  0
  2  1  1  6
  1 19  1  0
  1 20  1  0
  1 21  1  0
  2  7  1  0
  2 18  1  0
  2  3  1  0
  3  4  1  0
  3 22  1  0
  3 23  1  0
  4  5  1  0
  4 24  1  0
  4 25  1  0
  5 16  1  0
  5  6  1  0
  5 26  1  1
  6  7  1  0
  6  8  1  0
  6 27  1  6
  7 28  1  0
  7 29  1  0
  8  9  1  0
  8 10  1  0
  8 30  1  6
  9 31  1  0
 10 18  1  0
 10 11  1  6
 10 12  1  0
 11 32  1  0
 12 13  1  0
 12 33  1  0
 12 34  1  0
 13 14  1  0
 13 35  1  0
 13 36  1  0
 14 15  1  0
 14 16  1  0
 14 37  1  1
 15 38  1  0
 16 17  1  1
 16 18  1  0
 17 39  1  0
 17 40  1  0
 17 41  1  0
 18 42  1  6
M  END
>  <i_m_ct_stereo_status>  (282) 
1

>  <s_m_source_file>  (282) 
/var/tmp/pbs.5076255.sched01/tmpbzpkhbzu/844yn2io63.sdf

>  <i_m_source_file_index>  (282) 
38

>  <i_lp_mmshare_version>  (282) 
48012

>  <i_f3d_flags>  (282) 
0

>  <s_epik_input>  (282) 
W0NIM11bQ0BdMTJbQ0BIXTNbQ0BAXTQoW09IXSlbQ0BIXShbT0hdKVtDQEBIXShbQ0gyXTIpW0NAQEhdKFtDSDJdW0NIMl0xKVtDQF0zKFtDSDNdKVtDQEhdKFtPSF0pW0NIMl1bQ0gyXTQ=

>  <s_epik_cmdline>  (282) 
J2VwaWtfcHl0aG9uJywgJy1waHQnLCAnMi4wJywgJy1waCcsICc3LjAnLCAnLXRuJywgJzgnLCAnLW1hJywgJzIwMCcsICctaW1hZScsICc8aW5maWxlLm1hZT4nLCAnLW9tYWUnLCAnPG91dGZpbGUubWFlPic=

>  <r_lp_tautomer_probability>  (282) 
1

>  <r_epik_Ionization_Penalty>  (282) 
2.88136e-06

>  <r_epik_Ionization_Penalty_Charging>  (282) 
0

>  <r_epik_Ionization_Penalty_Neutral>  (282) 
2.88136e-06

>  <r_epik_State_Penalty>  (282) 
-0

>  <r_epik_Charging_Adjusted_Penalty>  (282) 
0

>  <i_epik_Tot_Q>  (282) 
0

>  <i_epik_Tot_abs_Q>  (282) 
0

>  <s_lp_Force_Field>  (282) 
OPLS3e

>  <r_lp_Energy>  (282) 
91.8738

>  <b_lp_Chiralities_Consistent>  (282) 
1

>  <s_lp_Variant>  (282) 
87:0-1

>  <s_i_glide_gridfile>  (282) 
pfpi4k_grid

>  <i_i_glide_lignum>  (282) 
38

>  <i_i_glide_rotatable_bonds>  (282) 
3

>  <r_i_docking_score>  (282) 
-4.22675

>  <r_i_glide_ligand_efficiency>  (282) 
-0.234819

>  <r_i_glide_ligand_efficiency_sa>  (282) 
-0.6154

>  <r_i_glide_ligand_efficiency_ln>  (282) 
-1.08646

>  <r_i_glide_gscore>  (282) 
-4.22675

>  <r_i_glide_lipo>  (282) 
-0.240672

>  <r_i_glide_hbond>  (282) 
-0.225918

>  <r_i_glide_metal>  (282) 
-0

>  <r_i_glide_rewards>  (282) 
-2.18853

>  <r_i_glide_evdw>  (282) 
-19.8997

>  <r_i_glide_ecoul>  (282) 
-3.84428

>  <r_i_glide_erotb>  (282) 
0

>  <r_i_glide_esite>  (282) 
0

>  <r_i_glide_emodel>  (282) 
-34.7262

>  <r_i_glide_energy>  (282) 
-23.744

>  <r_i_glide_einternal>  (282) 
0.348901

>  <r_i_glide_intrahb_reward>  (282) 
-0.5

>  <i_i_glide_confnum>  (282) 
1

>  <i_i_glide_posenum>  (282) 
29

>  <r_i_glide_eff_state_penalty>  (282) 
0

>  <ligand_id>  (282) 
87

>  <original_smiles>  (282) 
CC12CCC3C(C1)C(O)C1(O)CCC(O)C3(C)C21

>  <smiles>  (282) 
[H]OC1([H])C2([H])C([H])([H])C3(C([H])([H])[H])C([H])([H])C([H])([H])C2([H])C2(C([H])([H])[H])C([H])(O[H])C([H])([H])C([H])([H])C1(O[H])C32[H]

$$$$
88:0:0
     RDKit          3D

 55 60  0  0  1  0  0  0  0  0999 V2000
    4.9149   -4.2430   -0.8573 C   0  0  0  0  0  0  0  0  0  0  0  0
    5.2171   -3.3524    0.3634 C   0  0  2  0  0  0  0  0  0  0  0  0
    6.3490   -3.9346    1.2345 C   0  0  0  0  0  0  0  0  0  0  0  0
    5.8329   -5.1167    2.0720 C   0  0  0  0  0  0  0  0  0  0  0  0
    4.6778   -4.7136    3.0173 C   0  0  2  0  0  0  0  0  0  0  0  0
    3.9282   -5.9176    3.6152 C   0  0  0  0  0  0  0  0  0  0  0  0
    2.5748   -5.9825    3.7075 C   0  0  0  0  0  0  0  0  0  0  0  0
    1.6959   -4.7995    3.3185 C   0  0  0  0  0  0  0  0  0  0  0  0
    2.4681   -3.4803    3.2023 C   0  0  0  0  0  0  0  0  0  0  0  0
    3.7164   -3.7044    2.3773 C   0  0  0  0  0  0  0  0  0  0  0  0
    3.9606   -3.1226    1.1827 C   0  0  0  0  0  0  0  0  0  0  0  0
    3.1741   -2.0051    0.5265 C   0  0  0  0  0  0  0  0  0  0  0  0
    4.2518   -1.0489   -0.0051 C   0  0  0  0  0  0  0  0  0  0  0  0
    5.4889   -1.9294   -0.1161 C   0  0  0  0  0  0  0  0  0  0  0  0
    6.5704   -1.5434   -0.5561 O   0  0  0  0  0  0  0  0  0  0  0  0
    1.8326   -7.2097    4.2678 C   0  0  2  0  0  0  0  0  0  0  0  0
    2.7378   -8.4628    4.3112 C   0  0  1  0  0  0  0  0  0  0  0  0
    2.8957   -9.1017    2.9132 C   0  0  0  0  0  0  0  0  0  0  0  0
    1.5404   -9.4443    2.2981 C   0  0  0  0  0  0  0  0  0  0  0  0
    0.6398   -8.2038    2.2412 C   0  0  0  0  0  0  0  0  0  0  0  0
    0.4952   -7.5703    3.6092 C   0  0  1  0  0  0  0  0  0  0  0  0
   -0.6835   -7.9176    4.4780 C   0  0  0  0  0  0  0  0  0  0  0  0
   -0.6046   -6.6640    3.7746 O   0  0  0  0  0  0  0  0  0  0  0  0
    4.0852   -8.1119    4.9436 C   0  0  0  0  0  0  0  0  0  0  0  0
    4.8273   -7.0489    4.1189 C   0  0  0  0  0  0  0  0  0  0  0  0
    4.1958   -3.7746   -1.5278 H   0  0  0  0  0  0  0  0  0  0  0  0
    4.5029   -5.2090   -0.5691 H   0  0  0  0  0  0  0  0  0  0  0  0
    5.8098   -4.4239   -1.4453 H   0  0  0  0  0  0  0  0  0  0  0  0
    7.1901   -4.2473    0.6144 H   0  0  0  0  0  0  0  0  0  0  0  0
    6.7354   -3.1622    1.9003 H   0  0  0  0  0  0  0  0  0  0  0  0
    5.4939   -5.9078    1.4030 H   0  0  0  0  0  0  0  0  0  0  0  0
    6.6595   -5.5367    2.6478 H   0  0  0  0  0  0  0  0  0  0  0  0
    5.1234   -4.1875    3.8608 H   0  0  0  0  0  0  0  0  0  0  0  0
    1.2327   -5.0328    2.3596 H   0  0  0  0  0  0  0  0  0  0  0  0
    0.9017   -4.6660    4.0517 H   0  0  0  0  0  0  0  0  0  0  0  0
    1.8265   -2.6995    2.7952 H   0  0  0  0  0  0  0  0  0  0  0  0
    2.7794   -3.1364    4.1905 H   0  0  0  0  0  0  0  0  0  0  0  0
    2.6146   -2.4195   -0.3141 H   0  0  0  0  0  0  0  0  0  0  0  0
    2.4739   -1.4930    1.1817 H   0  0  0  0  0  0  0  0  0  0  0  0
    3.9892   -0.6128   -0.9686 H   0  0  0  0  0  0  0  0  0  0  0  0
    4.4483   -0.2357    0.6974 H   0  0  0  0  0  0  0  0  0  0  0  0
    1.6013   -6.9361    5.2939 H   0  0  0  0  0  0  0  0  0  0  0  0
    2.2588   -9.2034    4.9519 H   0  0  0  0  0  0  0  0  0  0  0  0
    3.4048   -8.4161    2.2324 H   0  0  0  0  0  0  0  0  0  0  0  0
    3.5094  -10.0039    2.9705 H   0  0  0  0  0  0  0  0  0  0  0  0
    1.6918   -9.8473    1.2971 H   0  0  0  0  0  0  0  0  0  0  0  0
    1.0562  -10.2278    2.8842 H   0  0  0  0  0  0  0  0  0  0  0  0
    1.0382   -7.4661    1.5444 H   0  0  0  0  0  0  0  0  0  0  0  0
   -0.3476   -8.4936    1.8754 H   0  0  0  0  0  0  0  0  0  0  0  0
   -1.4252   -8.6190    4.1012 H   0  0  0  0  0  0  0  0  0  0  0  0
   -0.5858   -7.8464    5.5594 H   0  0  0  0  0  0  0  0  0  0  0  0
    3.9146   -7.7322    5.9502 H   0  0  0  0  0  0  0  0  0  0  0  0
    4.7024   -9.0046    5.0561 H   0  0  0  0  0  0  0  0  0  0  0  0
    5.2894   -7.5237    3.2530 H   0  0  0  0  0  0  0  0  0  0  0  0
    5.6338   -6.6294    4.7198 H   0  0  0  0  0  0  0  0  0  0  0  0
  2  1  1  6
  1 26  1  0
  1 27  1  0
  1 28  1  0
  2 11  1  0
  2 14  1  0
  2  3  1  0
  3  4  1  0
  3 29  1  0
  3 30  1  0
  4  5  1  0
  4 31  1  0
  4 32  1  0
  5 10  1  0
  5  6  1  0
  5 33  1  1
  6 25  1  0
  6  7  2  0
  7  8  1  0
  7 16  1  0
  8  9  1  0
  8 34  1  0
  8 35  1  0
  9 10  1  0
  9 36  1  0
  9 37  1  0
 10 11  2  0
 11 12  1  0
 12 13  1  0
 12 38  1  0
 12 39  1  0
 13 14  1  0
 13 40  1  0
 13 41  1  0
 14 15  2  0
 16 21  1  0
 16 17  1  0
 16 42  1  1
 17 18  1  0
 17 24  1  0
 17 43  1  1
 18 19  1  0
 18 44  1  0
 18 45  1  0
 19 20  1  0
 19 46  1  0
 19 47  1  0
 20 21  1  0
 20 48  1  0
 20 49  1  0
 21 23  1  6
 21 22  1  0
 22 23  1  0
 22 50  1  0
 22 51  1  0
 24 25  1  0
 24 52  1  0
 24 53  1  0
 25 54  1  0
 25 55  1  0
M  END
>  <i_m_ct_stereo_status>  (283) 
1

>  <s_m_source_file>  (283) 
/var/tmp/pbs.5076255.sched01/tmpbzpkhbzu/844yn2io63.sdf

>  <i_m_source_file_index>  (283) 
39

>  <i_lp_mmshare_version>  (283) 
48012

>  <i_f3d_flags>  (283) 
0

>  <s_epik_input>  (283) 
W0NIMl0xW0NIMl1DKD1PKVtDQEBdKFtDSDNdKShbQ0gyXVtDSDJdMilDMT1DKFtDSDJdW0NIMl0zKVtDQEhdMkMoPUMzW0NASF00W0NAXTU2W0NIMl1PNilbQ0gyXVtDSDJdW0NAQEhdNFtDSDJdW0NIMl1bQ0gyXTU=

>  <s_epik_cmdline>  (283) 
J2VwaWtfcHl0aG9uJywgJy1waHQnLCAnMi4wJywgJy1waCcsICc3LjAnLCAnLXRuJywgJzgnLCAnLW1hJywgJzIwMCcsICctaW1hZScsICc8aW5maWxlLm1hZT4nLCAnLW9tYWUnLCAnPG91dGZpbGUubWFlPic=

>  <r_lp_tautomer_probability>  (283) 
1

>  <r_epik_Ionization_Penalty>  (283) 
3.11183e-11

>  <r_epik_Ionization_Penalty_Charging>  (283) 
0

>  <r_epik_Ionization_Penalty_Neutral>  (283) 
3.11183e-11

>  <r_epik_State_Penalty>  (283) 
-0

>  <r_epik_Charging_Adjusted_Penalty>  (283) 
0

>  <i_epik_Tot_Q>  (283) 
0

>  <i_epik_Tot_abs_Q>  (283) 
0

>  <s_lp_Force_Field>  (283) 
OPLS3e

>  <r_lp_Energy>  (283) 
32.8772

>  <b_lp_Chiralities_Consistent>  (283) 
1

>  <s_lp_Variant>  (283) 
88:0-1

>  <s_i_glide_gridfile>  (283) 
pfpi4k_grid

>  <i_i_glide_lignum>  (283) 
39

>  <i_i_glide_rotatable_bonds>  (283) 
0

>  <r_i_docking_score>  (283) 
-3.30362

>  <r_i_glide_ligand_efficiency>  (283) 
-0.132145

>  <r_i_glide_ligand_efficiency_sa>  (283) 
-0.386394

>  <r_i_glide_ligand_efficiency_ln>  (283) 
-0.783058

>  <r_i_glide_gscore>  (283) 
-3.30362

>  <r_i_glide_lipo>  (283) 
-0.258416

>  <r_i_glide_hbond>  (283) 
-0.201837

>  <r_i_glide_metal>  (283) 
-0

>  <r_i_glide_rewards>  (283) 
-1.10125

>  <r_i_glide_evdw>  (283) 
-22.2964

>  <r_i_glide_ecoul>  (283) 
-4.14092

>  <r_i_glide_erotb>  (283) 
0

>  <r_i_glide_esite>  (283) 
-0.00616016

>  <r_i_glide_emodel>  (283) 
-32.5091

>  <r_i_glide_energy>  (283) 
-26.4373

>  <r_i_glide_einternal>  (283) 
0

>  <r_i_glide_intrahb_reward>  (283) 
-0

>  <i_i_glide_confnum>  (283) 
1

>  <i_i_glide_posenum>  (283) 
16

>  <r_i_glide_eff_state_penalty>  (283) 
0

>  <ligand_id>  (283) 
88

>  <original_smiles>  (283) 
CC12CCC3C4=C(CCC3=C1CCC2=O)C1C(CCCC12CO2)CC4

>  <smiles>  (283) 
[H]C([H])([H])C12C(=O)C([H])([H])C([H])([H])C1=C1C([H])([H])C([H])([H])C3=C(C([H])([H])C([H])([H])C4([H])C([H])([H])C([H])([H])C([H])([H])C5(OC5([H])[H])C34[H])C1([H])C([H])([H])C2([H])[H]

$$$$
88:0:1
     RDKit          3D

 55 60  0  0  1  0  0  0  0  0999 V2000
    3.2323   -3.2323   -1.0774 C   0  0  0  0  0  0  0  0  0  0  0  0
    4.5057   -3.0610   -0.2284 C   0  0  2  0  0  0  0  0  0  0  0  0
    5.5001   -4.2086   -0.4699 C   0  0  0  0  0  0  0  0  0  0  0  0
    5.0405   -5.4840    0.2519 C   0  0  0  0  0  0  0  0  0  0  0  0
    4.9265   -5.2917    1.7794 C   0  0  2  0  0  0  0  0  0  0  0  0
    4.1674   -6.4325    2.4820 C   0  0  0  0  0  0  0  0  0  0  0  0
    3.2360   -6.2207    3.4459 C   0  0  0  0  0  0  0  0  0  0  0  0
    2.9521   -4.8200    3.9818 C   0  0  0  0  0  0  0  0  0  0  0  0
    4.0426   -3.8021    3.6309 C   0  0  0  0  0  0  0  0  0  0  0  0
    4.3693   -3.9136    2.1585 C   0  0  0  0  0  0  0  0  0  0  0  0
    4.1637   -2.9344    1.2452 C   0  0  0  0  0  0  0  0  0  0  0  0
    3.7672   -1.4924    1.5084 C   0  0  0  0  0  0  0  0  0  0  0  0
    4.6876   -0.6770    0.5843 C   0  0  0  0  0  0  0  0  0  0  0  0
    5.0940   -1.6802   -0.4893 C   0  0  0  0  0  0  0  0  0  0  0  0
    5.8243   -1.4140   -1.4434 O   0  0  0  0  0  0  0  0  0  0  0  0
    2.4516   -7.3649    4.1152 C   0  0  2  0  0  0  0  0  0  0  0  0
    2.5315   -8.6762    3.3041 C   0  0  1  0  0  0  0  0  0  0  0  0
    1.5874   -8.6446    2.0807 C   0  0  0  0  0  0  0  0  0  0  0  0
    0.1370   -8.3581    2.4856 C   0  0  0  0  0  0  0  0  0  0  0  0
    0.0529   -7.0562    3.2880 C   0  0  0  0  0  0  0  0  0  0  0  0
    0.9886   -7.0858    4.4800 C   0  0  1  0  0  0  0  0  0  0  0  0
    0.4736   -7.5081    5.8302 C   0  0  0  0  0  0  0  0  0  0  0  0
    0.7216   -6.1283    5.5098 O   0  0  0  0  0  0  0  0  0  0  0  0
    3.9840   -8.9609    2.9113 C   0  0  0  0  0  0  0  0  0  0  0  0
    4.5518   -7.8429    2.0242 C   0  0  0  0  0  0  0  0  0  0  0  0
    2.6016   -2.3517   -0.9930 H   0  0  0  0  0  0  0  0  0  0  0  0
    2.6413   -4.0928   -0.7655 H   0  0  0  0  0  0  0  0  0  0  0  0
    3.4625   -3.3544   -2.1356 H   0  0  0  0  0  0  0  0  0  0  0  0
    5.6004   -4.3963   -1.5394 H   0  0  0  0  0  0  0  0  0  0  0  0
    6.4951   -3.9324   -0.1164 H   0  0  0  0  0  0  0  0  0  0  0  0
    4.0796   -5.8021   -0.1524 H   0  0  0  0  0  0  0  0  0  0  0  0
    5.7477   -6.2829    0.0409 H   0  0  0  0  0  0  0  0  0  0  0  0
    5.9396   -5.3144    2.1811 H   0  0  0  0  0  0  0  0  0  0  0  0
    2.0009   -4.4883    3.5643 H   0  0  0  0  0  0  0  0  0  0  0  0
    2.8497   -4.8494    5.0647 H   0  0  0  0  0  0  0  0  0  0  0  0
    3.7361   -2.7982    3.9183 H   0  0  0  0  0  0  0  0  0  0  0  0
    4.9549   -4.0172    4.1909 H   0  0  0  0  0  0  0  0  0  0  0  0
    2.7272   -1.3567    1.2017 H   0  0  0  0  0  0  0  0  0  0  0  0
    3.8625   -1.1826    2.5477 H   0  0  0  0  0  0  0  0  0  0  0  0
    4.1959    0.1946    0.1570 H   0  0  0  0  0  0  0  0  0  0  0  0
    5.5810   -0.3397    1.1112 H   0  0  0  0  0  0  0  0  0  0  0  0
    2.9676   -7.5307    5.0567 H   0  0  0  0  0  0  0  0  0  0  0  0
    2.1997   -9.4929    3.9450 H   0  0  0  0  0  0  0  0  0  0  0  0
    1.8995   -7.8679    1.3784 H   0  0  0  0  0  0  0  0  0  0  0  0
    1.6411   -9.5965    1.5471 H   0  0  0  0  0  0  0  0  0  0  0  0
   -0.4940   -8.2912    1.6004 H   0  0  0  0  0  0  0  0  0  0  0  0
   -0.2439   -9.1875    3.0825 H   0  0  0  0  0  0  0  0  0  0  0  0
    0.3017   -6.1977    2.6629 H   0  0  0  0  0  0  0  0  0  0  0  0
   -0.9713   -6.9182    3.6425 H   0  0  0  0  0  0  0  0  0  0  0  0
   -0.5746   -7.7835    5.9149 H   0  0  0  0  0  0  0  0  0  0  0  0
    1.1528   -7.9272    6.5684 H   0  0  0  0  0  0  0  0  0  0  0  0
    4.5838   -9.0414    3.8191 H   0  0  0  0  0  0  0  0  0  0  0  0
    4.0660   -9.9280    2.4115 H   0  0  0  0  0  0  0  0  0  0  0  0
    4.1894   -7.9802    1.0055 H   0  0  0  0  0  0  0  0  0  0  0  0
    5.6364   -7.9346    1.9890 H   0  0  0  0  0  0  0  0  0  0  0  0
  2  1  1  6
  1 26  1  0
  1 27  1  0
  1 28  1  0
  2 11  1  0
  2 14  1  0
  2  3  1  0
  3  4  1  0
  3 29  1  0
  3 30  1  0
  4  5  1  0
  4 31  1  0
  4 32  1  0
  5 10  1  0
  5  6  1  0
  5 33  1  1
  6 25  1  0
  6  7  2  0
  7  8  1  0
  7 16  1  0
  8  9  1  0
  8 34  1  0
  8 35  1  0
  9 10  1  0
  9 36  1  0
  9 37  1  0
 10 11  2  0
 11 12  1  0
 12 13  1  0
 12 38  1  0
 12 39  1  0
 13 14  1  0
 13 40  1  0
 13 41  1  0
 14 15  2  0
 16 21  1  0
 16 17  1  0
 16 42  1  1
 17 18  1  0
 17 24  1  0
 17 43  1  1
 18 19  1  0
 18 44  1  0
 18 45  1  0
 19 20  1  0
 19 46  1  0
 19 47  1  0
 20 21  1  0
 20 48  1  0
 20 49  1  0
 21 23  1  1
 21 22  1  0
 22 23  1  0
 22 50  1  0
 22 51  1  0
 24 25  1  0
 24 52  1  0
 24 53  1  0
 25 54  1  0
 25 55  1  0
M  END
>  <i_m_ct_stereo_status>  (284) 
1

>  <s_m_source_file>  (284) 
/var/tmp/pbs.5076255.sched01/tmpbzpkhbzu/844yn2io63.sdf

>  <i_m_source_file_index>  (284) 
39

>  <i_lp_mmshare_version>  (284) 
48012

>  <i_f3d_flags>  (284) 
0

>  <s_epik_input>  (284) 
W0NIMl0xW0NIMl1DKD1PKVtDQEBdKFtDSDNdKShbQ0gyXVtDSDJdMilDMT1DKFtDSDJdW0NIMl0zKVtDQEhdMkMoPUMzW0NASF00W0NAXTU2W0NIMl1PNilbQ0gyXVtDSDJdW0NAQEhdNFtDSDJdW0NIMl1bQ0gyXTU=

>  <s_epik_cmdline>  (284) 
J2VwaWtfcHl0aG9uJywgJy1waHQnLCAnMi4wJywgJy1waCcsICc3LjAnLCAnLXRuJywgJzgnLCAnLW1hJywgJzIwMCcsICctaW1hZScsICc8aW5maWxlLm1hZT4nLCAnLW9tYWUnLCAnPG91dGZpbGUubWFlPic=

>  <r_lp_tautomer_probability>  (284) 
1

>  <r_epik_Ionization_Penalty>  (284) 
3.11183e-11

>  <r_epik_Ionization_Penalty_Charging>  (284) 
0

>  <r_epik_Ionization_Penalty_Neutral>  (284) 
3.11183e-11

>  <r_epik_State_Penalty>  (284) 
-0

>  <r_epik_Charging_Adjusted_Penalty>  (284) 
0

>  <i_epik_Tot_Q>  (284) 
0

>  <i_epik_Tot_abs_Q>  (284) 
0

>  <s_lp_Force_Field>  (284) 
OPLS3e

>  <r_lp_Energy>  (284) 
32.8772

>  <b_lp_Chiralities_Consistent>  (284) 
1

>  <s_lp_Variant>  (284) 
88:0-1

>  <s_i_glide_gridfile>  (284) 
pfpi4k_grid

>  <i_i_glide_lignum>  (284) 
39

>  <i_i_glide_rotatable_bonds>  (284) 
0

>  <r_i_docking_score>  (284) 
-3.17873

>  <r_i_glide_ligand_efficiency>  (284) 
-0.127149

>  <r_i_glide_ligand_efficiency_sa>  (284) 
-0.371787

>  <r_i_glide_ligand_efficiency_ln>  (284) 
-0.753455

>  <r_i_glide_gscore>  (284) 
-3.17873

>  <r_i_glide_lipo>  (284) 
-0.371688

>  <r_i_glide_hbond>  (284) 
-0.0797736

>  <r_i_glide_metal>  (284) 
-0

>  <r_i_glide_rewards>  (284) 
-1.10125

>  <r_i_glide_evdw>  (284) 
-25.2499

>  <r_i_glide_ecoul>  (284) 
-2.28834

>  <r_i_glide_erotb>  (284) 
0

>  <r_i_glide_esite>  (284) 
-0.0202719

>  <r_i_glide_emodel>  (284) 
-33.3501

>  <r_i_glide_energy>  (284) 
-27.5382

>  <r_i_glide_einternal>  (284) 
0

>  <r_i_glide_intrahb_reward>  (284) 
-0

>  <i_i_glide_confnum>  (284) 
2

>  <i_i_glide_posenum>  (284) 
31

>  <r_i_glide_eff_state_penalty>  (284) 
0

>  <ligand_id>  (284) 
88

>  <original_smiles>  (284) 
CC12CCC3C4=C(CCC3=C1CCC2=O)C1C(CCCC12CO2)CC4

>  <smiles>  (284) 
[H]C([H])([H])C12C(=O)C([H])([H])C([H])([H])C1=C1C([H])([H])C([H])([H])C3=C(C([H])([H])C([H])([H])C4([H])C([H])([H])C([H])([H])C([H])([H])C5(OC5([H])[H])C34[H])C1([H])C([H])([H])C2([H])[H]

$$$$
88:0:2
     RDKit          3D

 55 60  0  0  1  0  0  0  0  0999 V2000
    4.1122   -3.7794   -0.9585 C   0  0  0  0  0  0  0  0  0  0  0  0
    4.8815   -3.1306    0.2081 C   0  0  2  0  0  0  0  0  0  0  0  0
    6.2518   -3.8055    0.4333 C   0  0  0  0  0  0  0  0  0  0  0  0
    6.0763   -5.1645    1.1331 C   0  0  0  0  0  0  0  0  0  0  0  0
    5.3893   -5.0367    2.5122 C   0  0  2  0  0  0  0  0  0  0  0  0
    4.9089   -6.3822    3.0850 C   0  0  0  0  0  0  0  0  0  0  0  0
    3.6981   -6.5508    3.6772 C   0  0  0  0  0  0  0  0  0  0  0  0
    2.7607   -5.3717    3.9161 C   0  0  0  0  0  0  0  0  0  0  0  0
    3.4546   -4.0100    3.7924 C   0  0  0  0  0  0  0  0  0  0  0  0
    4.2759   -3.9824    2.5204 C   0  0  0  0  0  0  0  0  0  0  0  0
    4.0461   -3.1551    1.4771 C   0  0  0  0  0  0  0  0  0  0  0  0
    3.0851   -1.9822    1.4293 C   0  0  0  0  0  0  0  0  0  0  0  0
    3.8899   -0.8703    0.7392 C   0  0  0  0  0  0  0  0  0  0  0  0
    4.9734   -1.6238   -0.0277 C   0  0  0  0  0  0  0  0  0  0  0  0
    5.8156   -1.0846   -0.7462 O   0  0  0  0  0  0  0  0  0  0  0  0
    3.2121   -7.9108    4.2135 C   0  0  2  0  0  0  0  0  0  0  0  0
    4.0362   -9.0846    3.6373 C   0  0  1  0  0  0  0  0  0  0  0  0
    3.6182   -9.4097    2.1870 C   0  0  0  0  0  0  0  0  0  0  0  0
    2.1225   -9.7038    2.0856 C   0  0  0  0  0  0  0  0  0  0  0  0
    1.2970   -8.5470    2.6503 C   0  0  0  0  0  0  0  0  0  0  0  0
    1.7165   -8.2217    4.0690 C   0  0  1  0  0  0  0  0  0  0  0  0
    0.9641   -8.8159    5.2326 C   0  0  0  0  0  0  0  0  0  0  0  0
    0.7925   -7.4432    4.8389 O   0  0  0  0  0  0  0  0  0  0  0  0
    5.5308   -8.7835    3.7574 C   0  0  0  0  0  0  0  0  0  0  0  0
    5.9118   -7.5312    2.9532 C   0  0  0  0  0  0  0  0  0  0  0  0
    3.1983   -3.2333   -1.1885 H   0  0  0  0  0  0  0  0  0  0  0  0
    3.8175   -4.8006   -0.7213 H   0  0  0  0  0  0  0  0  0  0  0  0
    4.7071   -3.8040   -1.8699 H   0  0  0  0  0  0  0  0  0  0  0  0
    6.7725   -3.9324   -0.5159 H   0  0  0  0  0  0  0  0  0  0  0  0
    6.8912   -3.1653    1.0437 H   0  0  0  0  0  0  0  0  0  0  0  0
    5.4868   -5.8236    0.4963 H   0  0  0  0  0  0  0  0  0  0  0  0
    7.0516   -5.6409    1.2435 H   0  0  0  0  0  0  0  0  0  0  0  0
    6.1392   -4.6648    3.2096 H   0  0  0  0  0  0  0  0  0  0  0  0
    1.9491   -5.4321    3.1892 H   0  0  0  0  0  0  0  0  0  0  0  0
    2.3234   -5.4412    4.9113 H   0  0  0  0  0  0  0  0  0  0  0  0
    2.7222   -3.2056    3.8421 H   0  0  0  0  0  0  0  0  0  0  0  0
    4.1353   -3.8551    4.6319 H   0  0  0  0  0  0  0  0  0  0  0  0
    2.2331   -2.2503    0.8024 H   0  0  0  0  0  0  0  0  0  0  0  0
    2.7079   -1.6613    2.3974 H   0  0  0  0  0  0  0  0  0  0  0  0
    3.2670   -0.2720    0.0771 H   0  0  0  0  0  0  0  0  0  0  0  0
    4.3618   -0.2038    1.4638 H   0  0  0  0  0  0  0  0  0  0  0  0
    3.4067   -7.8644    5.2812 H   0  0  0  0  0  0  0  0  0  0  0  0
    3.8307   -9.9690    4.2411 H   0  0  0  0  0  0  0  0  0  0  0  0
    3.8375   -8.5724    1.5220 H   0  0  0  0  0  0  0  0  0  0  0  0
    4.1889  -10.2587    1.8090 H   0  0  0  0  0  0  0  0  0  0  0  0
    1.8553   -9.8565    1.0431 H   0  0  0  0  0  0  0  0  0  0  0  0
    1.8928  -10.6259    2.6250 H   0  0  0  0  0  0  0  0  0  0  0  0
    1.4070   -7.6593    2.0273 H   0  0  0  0  0  0  0  0  0  0  0  0
    0.2407   -8.8231    2.6398 H   0  0  0  0  0  0  0  0  0  0  0  0
    0.1124   -9.4633    5.0303 H   0  0  0  0  0  0  0  0  0  0  0  0
    1.4609   -8.9525    6.1913 H   0  0  0  0  0  0  0  0  0  0  0  0
    5.7750   -8.6261    4.8072 H   0  0  0  0  0  0  0  0  0  0  0  0
    6.1241   -9.6396    3.4314 H   0  0  0  0  0  0  0  0  0  0  0  0
    5.9894   -7.7912    1.8977 H   0  0  0  0  0  0  0  0  0  0  0  0
    6.8969   -7.1899    3.2701 H   0  0  0  0  0  0  0  0  0  0  0  0
  2  1  1  6
  1 26  1  0
  1 27  1  0
  1 28  1  0
  2 11  1  0
  2 14  1  0
  2  3  1  0
  3  4  1  0
  3 29  1  0
  3 30  1  0
  4  5  1  0
  4 31  1  0
  4 32  1  0
  5 10  1  0
  5  6  1  0
  5 33  1  1
  6 25  1  0
  6  7  2  0
  7  8  1  0
  7 16  1  0
  8  9  1  0
  8 34  1  0
  8 35  1  0
  9 10  1  0
  9 36  1  0
  9 37  1  0
 10 11  2  0
 11 12  1  0
 12 13  1  0
 12 38  1  0
 12 39  1  0
 13 14  1  0
 13 40  1  0
 13 41  1  0
 14 15  2  0
 16 21  1  0
 16 17  1  0
 16 42  1  1
 17 18  1  0
 17 24  1  0
 17 43  1  1
 18 19  1  0
 18 44  1  0
 18 45  1  0
 19 20  1  0
 19 46  1  0
 19 47  1  0
 20 21  1  0
 20 48  1  0
 20 49  1  0
 21 23  1  1
 21 22  1  0
 22 23  1  0
 22 50  1  0
 22 51  1  0
 24 25  1  0
 24 52  1  0
 24 53  1  0
 25 54  1  0
 25 55  1  0
M  END
>  <i_m_ct_stereo_status>  (285) 
1

>  <s_m_source_file>  (285) 
/var/tmp/pbs.5076255.sched01/tmpbzpkhbzu/844yn2io63.sdf

>  <i_m_source_file_index>  (285) 
39

>  <i_lp_mmshare_version>  (285) 
48012

>  <i_f3d_flags>  (285) 
0

>  <s_epik_input>  (285) 
W0NIMl0xW0NIMl1DKD1PKVtDQEBdKFtDSDNdKShbQ0gyXVtDSDJdMilDMT1DKFtDSDJdW0NIMl0zKVtDQEhdMkMoPUMzW0NASF00W0NAXTU2W0NIMl1PNilbQ0gyXVtDSDJdW0NAQEhdNFtDSDJdW0NIMl1bQ0gyXTU=

>  <s_epik_cmdline>  (285) 
J2VwaWtfcHl0aG9uJywgJy1waHQnLCAnMi4wJywgJy1waCcsICc3LjAnLCAnLXRuJywgJzgnLCAnLW1hJywgJzIwMCcsICctaW1hZScsICc8aW5maWxlLm1hZT4nLCAnLW9tYWUnLCAnPG91dGZpbGUubWFlPic=

>  <r_lp_tautomer_probability>  (285) 
1

>  <r_epik_Ionization_Penalty>  (285) 
3.11183e-11

>  <r_epik_Ionization_Penalty_Charging>  (285) 
0

>  <r_epik_Ionization_Penalty_Neutral>  (285) 
3.11183e-11

>  <r_epik_State_Penalty>  (285) 
-0

>  <r_epik_Charging_Adjusted_Penalty>  (285) 
0

>  <i_epik_Tot_Q>  (285) 
0

>  <i_epik_Tot_abs_Q>  (285) 
0

>  <s_lp_Force_Field>  (285) 
OPLS3e

>  <r_lp_Energy>  (285) 
32.8772

>  <b_lp_Chiralities_Consistent>  (285) 
1

>  <s_lp_Variant>  (285) 
88:0-1

>  <s_i_glide_gridfile>  (285) 
pfpi4k_grid

>  <i_i_glide_lignum>  (285) 
39

>  <i_i_glide_rotatable_bonds>  (285) 
0

>  <r_i_docking_score>  (285) 
-2.97951

>  <r_i_glide_ligand_efficiency>  (285) 
-0.11918

>  <r_i_glide_ligand_efficiency_sa>  (285) 
-0.348485

>  <r_i_glide_ligand_efficiency_ln>  (285) 
-0.706233

>  <r_i_glide_gscore>  (285) 
-2.97951

>  <r_i_glide_lipo>  (285) 
-0.321809

>  <r_i_glide_hbond>  (285) 
-0.0430974

>  <r_i_glide_metal>  (285) 
-0

>  <r_i_glide_rewards>  (285) 
-1.10125

>  <r_i_glide_evdw>  (285) 
-22.8108

>  <r_i_glide_ecoul>  (285) 
-2.45309

>  <r_i_glide_erotb>  (285) 
0

>  <r_i_glide_esite>  (285) 
-0.00484911

>  <r_i_glide_emodel>  (285) 
-30.7138

>  <r_i_glide_energy>  (285) 
-25.2638

>  <r_i_glide_einternal>  (285) 
0

>  <r_i_glide_intrahb_reward>  (285) 
-0

>  <i_i_glide_confnum>  (285) 
1

>  <i_i_glide_posenum>  (285) 
24

>  <r_i_glide_eff_state_penalty>  (285) 
0

>  <ligand_id>  (285) 
88

>  <original_smiles>  (285) 
CC12CCC3C4=C(CCC3=C1CCC2=O)C1C(CCCC12CO2)CC4

>  <smiles>  (285) 
[H]C([H])([H])C12C(=O)C([H])([H])C([H])([H])C1=C1C([H])([H])C([H])([H])C3=C(C([H])([H])C([H])([H])C4([H])C([H])([H])C([H])([H])C([H])([H])C5(OC5([H])[H])C34[H])C1([H])C([H])([H])C2([H])[H]

$$$$
89:0:0
     RDKit          3D

 20 22  0  0  1  0  0  0  0  0999 V2000
    3.6100   -0.2395   -4.1101 C   0  0  0  0  0  0  0  0  0  0  0  0
    3.4131   -1.2213   -2.9831 C   0  0  0  0  0  0  0  0  0  0  0  0
    2.6856   -2.3277   -2.8198 C   0  0  0  0  0  0  0  0  0  0  0  0
    3.0015   -3.3933   -3.6258 O   0  0  0  0  0  0  0  0  0  0  0  0
    4.3341   -3.8055   -3.8723 C   0  0  0  0  0  0  0  0  0  0  0  0
    4.6151   -4.6402   -4.7210 O   0  0  0  0  0  0  0  0  0  0  0  0
    5.4572   -3.2567   -3.0544 C   0  0  0  0  0  0  0  0  0  0  0  0
    5.4030   -2.2591   -2.1455 C   0  0  0  0  0  0  0  0  0  0  0  0
    4.2392   -1.4461   -1.8018 C   0  0  1  0  0  0  0  0  0  0  0  0
    3.6353   -1.4192   -0.5445 O   0  0  0  0  0  0  0  0  0  0  0  0
    3.1552   -2.4762   -1.3946 C   0  0  1  0  0  0  0  0  0  0  0  0
    3.0872   -3.7389   -0.5654 C   0  0  0  0  0  0  0  0  0  0  0  0
    4.5943    0.1551   -4.0609 H   0  0  0  0  0  0  0  0  0  0  0  0
    2.9694    0.6208   -3.9247 H   0  0  0  0  0  0  0  0  0  0  0  0
    3.3841   -0.6340   -5.1093 H   0  0  0  0  0  0  0  0  0  0  0  0
    6.4204   -3.7252   -3.2051 H   0  0  0  0  0  0  0  0  0  0  0  0
    6.3016   -2.0159   -1.6478 H   0  0  0  0  0  0  0  0  0  0  0  0
    2.0494   -4.0544   -0.4899 H   0  0  0  0  0  0  0  0  0  0  0  0
    3.3653   -3.4761    0.4541 H   0  0  0  0  0  0  0  0  0  0  0  0
    3.7169   -4.5554   -0.9077 H   0  0  0  0  0  0  0  0  0  0  0  0
  1  2  1  0
  1 13  1  0
  1 14  1  0
  1 15  1  0
  2  9  1  0
  2  3  2  0
  3 11  1  0
  3  4  1  0
  4  5  1  0
  5  6  2  0
  5  7  1  0
  7  8  2  0
  7 16  1  0
  8  9  1  0
  8 17  1  0
  9 11  1  0
  9 10  1  1
 10 11  1  0
 11 12  1  1
 12 18  1  0
 12 19  1  0
 12 20  1  0
M  END
>  <i_m_ct_stereo_status>  (286) 
1

>  <s_m_source_file>  (286) 
/var/tmp/pbs.5076255.sched01/tmpbzpkhbzu/844yn2io63.sdf

>  <i_m_source_file_index>  (286) 
40

>  <i_lp_mmshare_version>  (286) 
48012

>  <i_f3d_flags>  (286) 
0

>  <s_epik_input>  (286) 
W0NIM11DMT1DKEMoQzEyMykoTzMpW0NIM10pT0MoPU8pW0NIXT1bQ0hdMg==

>  <s_epik_cmdline>  (286) 
J2VwaWtfcHl0aG9uJywgJy1waHQnLCAnMi4wJywgJy1waCcsICc3LjAnLCAnLXRuJywgJzgnLCAnLW1hJywgJzIwMCcsICctaW1hZScsICc8aW5maWxlLm1hZT4nLCAnLW9tYWUnLCAnPG91dGZpbGUubWFlPic=

>  <r_lp_tautomer_probability>  (286) 
1

>  <r_epik_Ionization_Penalty>  (286) 
0

>  <r_epik_Ionization_Penalty_Charging>  (286) 
0

>  <r_epik_Ionization_Penalty_Neutral>  (286) 
0

>  <r_epik_State_Penalty>  (286) 
-0

>  <r_epik_Charging_Adjusted_Penalty>  (286) 
0

>  <i_epik_Tot_Q>  (286) 
0

>  <i_epik_Tot_abs_Q>  (286) 
0

>  <s_lp_Force_Field>  (286) 
OPLS3e

>  <r_lp_Energy>  (286) 
53.0327

>  <b_lp_Chiralities_Consistent>  (286) 
1

>  <s_lp_Variant>  (286) 
89:0-1

>  <s_i_glide_gridfile>  (286) 
pfpi4k_grid

>  <i_i_glide_lignum>  (286) 
40

>  <i_i_glide_rotatable_bonds>  (286) 
0

>  <r_i_docking_score>  (286) 
-3.82412

>  <r_i_glide_ligand_efficiency>  (286) 
-0.318676

>  <r_i_glide_ligand_efficiency_sa>  (286) 
-0.729587

>  <r_i_glide_ligand_efficiency_ln>  (286) 
-1.09734

>  <r_i_glide_gscore>  (286) 
-3.82412

>  <r_i_glide_lipo>  (286) 
-0.459796

>  <r_i_glide_hbond>  (286) 
-0.0209558

>  <r_i_glide_metal>  (286) 
-0

>  <r_i_glide_rewards>  (286) 
-2.25

>  <r_i_glide_evdw>  (286) 
-18.6005

>  <r_i_glide_ecoul>  (286) 
-1.00469

>  <r_i_glide_erotb>  (286) 
0

>  <r_i_glide_esite>  (286) 
-0.012639

>  <r_i_glide_emodel>  (286) 
-21.3395

>  <r_i_glide_energy>  (286) 
-19.6052

>  <r_i_glide_einternal>  (286) 
0

>  <r_i_glide_intrahb_reward>  (286) 
-0

>  <i_i_glide_confnum>  (286) 
2

>  <i_i_glide_posenum>  (286) 
2

>  <r_i_glide_eff_state_penalty>  (286) 
0

>  <ligand_id>  (286) 
89

>  <original_smiles>  (286) 
CC1=C2OC(=O)C=CC13OC23C

>  <smiles>  (286) 
[H]C1=C([H])C23OC2(C([H])([H])[H])C(=C3C([H])([H])[H])OC1=O

$$$$
89:0:1
     RDKit          3D

 20 22  0  0  1  0  0  0  0  0999 V2000
    1.4335    2.8956    4.7977 C   0  0  0  0  0  0  0  0  0  0  0  0
    0.0704    3.0544    4.1292 C   0  0  0  0  0  0  0  0  0  0  0  0
   -0.7168    2.3127    3.3568 C   0  0  0  0  0  0  0  0  0  0  0  0
   -1.1679    1.1014    3.8350 O   0  0  0  0  0  0  0  0  0  0  0  0
   -1.6174    0.9152    5.1666 C   0  0  0  0  0  0  0  0  0  0  0  0
   -1.8119   -0.2158    5.6149 O   0  0  0  0  0  0  0  0  0  0  0  0
   -1.9152    2.1080    6.0193 C   0  0  0  0  0  0  0  0  0  0  0  0
   -1.7220    3.4127    5.7551 C   0  0  0  0  0  0  0  0  0  0  0  0
   -1.0411    3.9253    4.5491 C   0  0  1  0  0  0  0  0  0  0  0  0
   -1.5874    4.7657    3.5875 O   0  0  0  0  0  0  0  0  0  0  0  0
   -1.7827    3.3840    3.3190 C   0  0  1  0  0  0  0  0  0  0  0  0
   -3.2390    3.1085    2.9695 C   0  0  0  0  0  0  0  0  0  0  0  0
    1.4724    3.3745    5.7715 H   0  0  0  0  0  0  0  0  0  0  0  0
    2.1016    3.4367    4.1342 H   0  0  0  0  0  0  0  0  0  0  0  0
    1.7808    1.8618    4.8584 H   0  0  0  0  0  0  0  0  0  0  0  0
   -2.4045    1.9295    6.9468 H   0  0  0  0  0  0  0  0  0  0  0  0
   -2.0187    4.1664    6.4567 H   0  0  0  0  0  0  0  0  0  0  0  0
   -3.2671    2.7038    1.9610 H   0  0  0  0  0  0  0  0  0  0  0  0
   -3.7179    4.0800    2.8790 H   0  0  0  0  0  0  0  0  0  0  0  0
   -3.7772    2.4840    3.6815 H   0  0  0  0  0  0  0  0  0  0  0  0
  1  2  1  0
  1 13  1  0
  1 14  1  0
  1 15  1  0
  2  9  1  0
  2  3  2  0
  3 11  1  0
  3  4  1  0
  4  5  1  0
  5  6  2  0
  5  7  1  0
  7  8  2  0
  7 16  1  0
  8  9  1  0
  8 17  1  0
  9 11  1  0
  9 10  1  1
 10 11  1  0
 11 12  1  1
 12 18  1  0
 12 19  1  0
 12 20  1  0
M  END
>  <i_m_ct_stereo_status>  (287) 
1

>  <s_m_source_file>  (287) 
/var/tmp/pbs.5076255.sched01/tmpbzpkhbzu/844yn2io63.sdf

>  <i_m_source_file_index>  (287) 
40

>  <i_lp_mmshare_version>  (287) 
48012

>  <i_f3d_flags>  (287) 
0

>  <s_epik_input>  (287) 
W0NIM11DMT1DKEMoQzEyMykoTzMpW0NIM10pT0MoPU8pW0NIXT1bQ0hdMg==

>  <s_epik_cmdline>  (287) 
J2VwaWtfcHl0aG9uJywgJy1waHQnLCAnMi4wJywgJy1waCcsICc3LjAnLCAnLXRuJywgJzgnLCAnLW1hJywgJzIwMCcsICctaW1hZScsICc8aW5maWxlLm1hZT4nLCAnLW9tYWUnLCAnPG91dGZpbGUubWFlPic=

>  <r_lp_tautomer_probability>  (287) 
1

>  <r_epik_Ionization_Penalty>  (287) 
0

>  <r_epik_Ionization_Penalty_Charging>  (287) 
0

>  <r_epik_Ionization_Penalty_Neutral>  (287) 
0

>  <r_epik_State_Penalty>  (287) 
-0

>  <r_epik_Charging_Adjusted_Penalty>  (287) 
0

>  <i_epik_Tot_Q>  (287) 
0

>  <i_epik_Tot_abs_Q>  (287) 
0

>  <s_lp_Force_Field>  (287) 
OPLS3e

>  <r_lp_Energy>  (287) 
53.0327

>  <b_lp_Chiralities_Consistent>  (287) 
1

>  <s_lp_Variant>  (287) 
89:0-1

>  <s_i_glide_gridfile>  (287) 
pfpi4k_grid

>  <i_i_glide_lignum>  (287) 
40

>  <i_i_glide_rotatable_bonds>  (287) 
0

>  <r_i_docking_score>  (287) 
-3.61967

>  <r_i_glide_ligand_efficiency>  (287) 
-0.301639

>  <r_i_glide_ligand_efficiency_sa>  (287) 
-0.690581

>  <r_i_glide_ligand_efficiency_ln>  (287) 
-1.03867

>  <r_i_glide_gscore>  (287) 
-3.61967

>  <r_i_glide_lipo>  (287) 
0

>  <r_i_glide_hbond>  (287) 
-0.184798

>  <r_i_glide_metal>  (287) 
-0

>  <r_i_glide_rewards>  (287) 
-2.25

>  <r_i_glide_evdw>  (287) 
-13.8104

>  <r_i_glide_ecoul>  (287) 
-3.07212

>  <r_i_glide_erotb>  (287) 
0

>  <r_i_glide_esite>  (287) 
-0.0335301

>  <r_i_glide_emodel>  (287) 
-18.5884

>  <r_i_glide_energy>  (287) 
-16.8825

>  <r_i_glide_einternal>  (287) 
0

>  <r_i_glide_intrahb_reward>  (287) 
-0

>  <i_i_glide_confnum>  (287) 
1

>  <i_i_glide_posenum>  (287) 
12

>  <r_i_glide_eff_state_penalty>  (287) 
0

>  <ligand_id>  (287) 
89

>  <original_smiles>  (287) 
CC1=C2OC(=O)C=CC13OC23C

>  <smiles>  (287) 
[H]C1=C([H])C23OC2(C([H])([H])[H])C(=C3C([H])([H])[H])OC1=O

$$$$
89:0:2
     RDKit          3D

 20 22  0  0  1  0  0  0  0  0999 V2000
   -3.3742    3.4134    2.9379 C   0  0  0  0  0  0  0  0  0  0  0  0
   -2.0963    2.6935    3.3266 C   0  0  0  0  0  0  0  0  0  0  0  0
   -0.7827    2.9342    3.1780 C   0  0  0  0  0  0  0  0  0  0  0  0
   -0.2359    4.0426    3.7436 O   0  0  0  0  0  0  0  0  0  0  0  0
   -0.5488    4.4803    5.0503 C   0  0  0  0  0  0  0  0  0  0  0  0
   -0.2134    5.5898    5.4563 O   0  0  0  0  0  0  0  0  0  0  0  0
   -1.2794    3.5513    5.9758 C   0  0  0  0  0  0  0  0  0  0  0  0
   -1.8045    2.3390    5.7039 C   0  0  0  0  0  0  0  0  0  0  0  0
   -1.8508    1.7205    4.3744 C   0  0  1  0  0  0  0  0  0  0  0  0
   -1.2568    0.4995    4.0088 O   0  0  0  0  0  0  0  0  0  0  0  0
   -0.4025    1.6497    3.8629 C   0  0  1  0  0  0  0  0  0  0  0  0
    0.9482    1.3718    4.4759 C   0  0  0  0  0  0  0  0  0  0  0  0
   -4.1285    3.2691    3.6990 H   0  0  0  0  0  0  0  0  0  0  0  0
   -3.7282    2.9263    2.0330 H   0  0  0  0  0  0  0  0  0  0  0  0
   -3.2406    4.4758    2.7257 H   0  0  0  0  0  0  0  0  0  0  0  0
   -1.3666    3.8610    7.0074 H   0  0  0  0  0  0  0  0  0  0  0  0
   -2.2926    1.7795    6.4848 H   0  0  0  0  0  0  0  0  0  0  0  0
    1.6810    1.4032    3.6716 H   0  0  0  0  0  0  0  0  0  0  0  0
    0.9207    0.3343    4.7946 H   0  0  0  0  0  0  0  0  0  0  0  0
    1.2404    2.0061    5.3119 H   0  0  0  0  0  0  0  0  0  0  0  0
  1  2  1  0
  1 13  1  0
  1 14  1  0
  1 15  1  0
  2  9  1  0
  2  3  2  0
  3 11  1  0
  3  4  1  0
  4  5  1  0
  5  6  2  0
  5  7  1  0
  7  8  2  0
  7 16  1  0
  8  9  1  0
  8 17  1  0
  9 11  1  0
  9 10  1  1
 10 11  1  0
 11 12  1  1
 12 18  1  0
 12 19  1  0
 12 20  1  0
M  END
>  <i_m_ct_stereo_status>  (288) 
1

>  <s_m_source_file>  (288) 
/var/tmp/pbs.5076255.sched01/tmpbzpkhbzu/844yn2io63.sdf

>  <i_m_source_file_index>  (288) 
40

>  <i_lp_mmshare_version>  (288) 
48012

>  <i_f3d_flags>  (288) 
0

>  <s_epik_input>  (288) 
W0NIM11DMT1DKEMoQzEyMykoTzMpW0NIM10pT0MoPU8pW0NIXT1bQ0hdMg==

>  <s_epik_cmdline>  (288) 
J2VwaWtfcHl0aG9uJywgJy1waHQnLCAnMi4wJywgJy1waCcsICc3LjAnLCAnLXRuJywgJzgnLCAnLW1hJywgJzIwMCcsICctaW1hZScsICc8aW5maWxlLm1hZT4nLCAnLW9tYWUnLCAnPG91dGZpbGUubWFlPic=

>  <r_lp_tautomer_probability>  (288) 
1

>  <r_epik_Ionization_Penalty>  (288) 
0

>  <r_epik_Ionization_Penalty_Charging>  (288) 
0

>  <r_epik_Ionization_Penalty_Neutral>  (288) 
0

>  <r_epik_State_Penalty>  (288) 
-0

>  <r_epik_Charging_Adjusted_Penalty>  (288) 
0

>  <i_epik_Tot_Q>  (288) 
0

>  <i_epik_Tot_abs_Q>  (288) 
0

>  <s_lp_Force_Field>  (288) 
OPLS3e

>  <r_lp_Energy>  (288) 
53.0327

>  <b_lp_Chiralities_Consistent>  (288) 
1

>  <s_lp_Variant>  (288) 
89:0-1

>  <s_i_glide_gridfile>  (288) 
pfpi4k_grid

>  <i_i_glide_lignum>  (288) 
40

>  <i_i_glide_rotatable_bonds>  (288) 
0

>  <r_i_docking_score>  (288) 
-2.84259

>  <r_i_glide_ligand_efficiency>  (288) 
-0.236883

>  <r_i_glide_ligand_efficiency_sa>  (288) 
-0.542326

>  <r_i_glide_ligand_efficiency_ln>  (288) 
-0.815687

>  <r_i_glide_gscore>  (288) 
-2.84259

>  <r_i_glide_lipo>  (288) 
-0.016735

>  <r_i_glide_hbond>  (288) 
0

>  <r_i_glide_metal>  (288) 
-0

>  <r_i_glide_rewards>  (288) 
-2.25

>  <r_i_glide_evdw>  (288) 
-12.6273

>  <r_i_glide_ecoul>  (288) 
0.632849

>  <r_i_glide_erotb>  (288) 
0

>  <r_i_glide_esite>  (288) 
-0.039422

>  <r_i_glide_emodel>  (288) 
-12.7991

>  <r_i_glide_energy>  (288) 
-11.9944

>  <r_i_glide_einternal>  (288) 
0

>  <r_i_glide_intrahb_reward>  (288) 
-0

>  <i_i_glide_confnum>  (288) 
1

>  <i_i_glide_posenum>  (288) 
19

>  <r_i_glide_eff_state_penalty>  (288) 
0

>  <ligand_id>  (288) 
89

>  <original_smiles>  (288) 
CC1=C2OC(=O)C=CC13OC23C

>  <smiles>  (288) 
[H]C1=C([H])C23OC2(C([H])([H])[H])C(=C3C([H])([H])[H])OC1=O

$$$$
89:1:0
     RDKit          3D

 20 22  0  0  1  0  0  0  0  0999 V2000
    3.8897   -0.2892   -4.2439 C   0  0  0  0  0  0  0  0  0  0  0  0
    3.4409   -1.3040   -3.2392 C   0  0  0  0  0  0  0  0  0  0  0  0
    3.4174   -1.4157   -1.9024 C   0  0  0  0  0  0  0  0  0  0  0  0
    4.6146   -1.4377   -1.2079 O   0  0  0  0  0  0  0  0  0  0  0  0
    5.7083   -2.1934   -1.6212 C   0  0  0  0  0  0  0  0  0  0  0  0
    6.8138   -2.0544   -1.0940 O   0  0  0  0  0  0  0  0  0  0  0  0
    5.5603   -3.2123   -2.7159 C   0  0  0  0  0  0  0  0  0  0  0  0
    4.4799   -3.4951   -3.4733 C   0  0  0  0  0  0  0  0  0  0  0  0
    3.2277   -2.7337   -3.4383 C   0  0  2  0  0  0  0  0  0  0  0  0
    1.9520   -3.2127   -3.0633 O   0  0  0  0  0  0  0  0  0  0  0  0
    2.7437   -2.7550   -1.9590 C   0  0  2  0  0  0  0  0  0  0  0  0
    2.7083   -3.7655   -0.8363 C   0  0  0  0  0  0  0  0  0  0  0  0
    4.3192   -0.7620   -5.1209 H   0  0  0  0  0  0  0  0  0  0  0  0
    4.5973    0.4231   -3.7865 H   0  0  0  0  0  0  0  0  0  0  0  0
    3.0299    0.2862   -4.5336 H   0  0  0  0  0  0  0  0  0  0  0  0
    6.4125   -3.8449   -2.8873 H   0  0  0  0  0  0  0  0  0  0  0  0
    4.5086   -4.2868   -4.1776 H   0  0  0  0  0  0  0  0  0  0  0  0
    2.2190   -3.2928    0.0139 H   0  0  0  0  0  0  0  0  0  0  0  0
    3.6755   -4.2017   -0.5445 H   0  0  0  0  0  0  0  0  0  0  0  0
    2.0410   -4.5556   -1.1408 H   0  0  0  0  0  0  0  0  0  0  0  0
  1  2  1  0
  1 13  1  0
  1 14  1  0
  1 15  1  0
  2  9  1  0
  2  3  2  0
  3 11  1  0
  3  4  1  0
  4  5  1  0
  5  6  2  0
  5  7  1  0
  7  8  2  0
  7 16  1  0
  8  9  1  0
  8 17  1  0
  9 11  1  0
  9 10  1  6
 10 11  1  0
 11 12  1  1
 12 18  1  0
 12 19  1  0
 12 20  1  0
M  END
>  <i_m_ct_stereo_status>  (289) 
1

>  <s_m_source_file>  (289) 
/var/tmp/pbs.5076255.sched01/tmpbzpkhbzu/844yn2io63.sdf

>  <i_m_source_file_index>  (289) 
41

>  <i_lp_mmshare_version>  (289) 
48012

>  <i_f3d_flags>  (289) 
0

>  <s_epik_input>  (289) 
W0NIM11DMT1DKEMoQzEyMykoTzMpW0NIM10pT0MoPU8pW0NIXT1bQ0hdMg==

>  <s_epik_cmdline>  (289) 
J2VwaWtfcHl0aG9uJywgJy1waHQnLCAnMi4wJywgJy1waCcsICc3LjAnLCAnLXRuJywgJzgnLCAnLW1hJywgJzIwMCcsICctaW1hZScsICc8aW5maWxlLm1hZT4nLCAnLW9tYWUnLCAnPG91dGZpbGUubWFlPic=

>  <r_lp_tautomer_probability>  (289) 
1

>  <r_epik_Ionization_Penalty>  (289) 
0

>  <r_epik_Ionization_Penalty_Charging>  (289) 
0

>  <r_epik_Ionization_Penalty_Neutral>  (289) 
0

>  <r_epik_State_Penalty>  (289) 
-0

>  <r_epik_Charging_Adjusted_Penalty>  (289) 
0

>  <i_epik_Tot_Q>  (289) 
0

>  <i_epik_Tot_abs_Q>  (289) 
0

>  <s_lp_Force_Field>  (289) 
OPLS3e

>  <r_lp_Energy>  (289) 
54.0319

>  <b_lp_Chiralities_Consistent>  (289) 
1

>  <s_lp_Variant>  (289) 
89:0-2

>  <s_i_glide_gridfile>  (289) 
pfpi4k_grid

>  <i_i_glide_lignum>  (289) 
41

>  <i_i_glide_rotatable_bonds>  (289) 
0

>  <r_i_docking_score>  (289) 
-4.42256

>  <r_i_glide_ligand_efficiency>  (289) 
-0.368547

>  <r_i_glide_ligand_efficiency_sa>  (289) 
-0.843762

>  <r_i_glide_ligand_efficiency_ln>  (289) 
-1.26906

>  <r_i_glide_gscore>  (289) 
-4.42256

>  <r_i_glide_lipo>  (289) 
-0.924984

>  <r_i_glide_hbond>  (289) 
-0.16

>  <r_i_glide_metal>  (289) 
-0

>  <r_i_glide_rewards>  (289) 
-2.25

>  <r_i_glide_evdw>  (289) 
-19.7511

>  <r_i_glide_ecoul>  (289) 
-0.376586

>  <r_i_glide_erotb>  (289) 
0

>  <r_i_glide_esite>  (289) 
-0.0435391

>  <r_i_glide_emodel>  (289) 
-23.4698

>  <r_i_glide_energy>  (289) 
-20.1277

>  <r_i_glide_einternal>  (289) 
0

>  <r_i_glide_intrahb_reward>  (289) 
-0

>  <i_i_glide_confnum>  (289) 
2

>  <i_i_glide_posenum>  (289) 
1

>  <r_i_glide_eff_state_penalty>  (289) 
0

>  <ligand_id>  (289) 
89

>  <original_smiles>  (289) 
CC1=C2OC(=O)C=CC13OC23C

>  <smiles>  (289) 
[H]C1=C([H])C23OC2(C([H])([H])[H])C(=C3C([H])([H])[H])OC1=O

$$$$
89:1:1
     RDKit          3D

 20 22  0  0  1  0  0  0  0  0999 V2000
    3.3088   -4.0234   -0.1835 C   0  0  0  0  0  0  0  0  0  0  0  0
    3.4861   -2.8543   -1.1255 C   0  0  0  0  0  0  0  0  0  0  0  0
    2.9540   -2.4595   -2.2796 C   0  0  0  0  0  0  0  0  0  0  0  0
    3.1875   -3.2169   -3.4077 O   0  0  0  0  0  0  0  0  0  0  0  0
    4.4394   -3.7811   -3.6903 C   0  0  0  0  0  0  0  0  0  0  0  0
    4.5809   -4.6004   -4.6043 O   0  0  0  0  0  0  0  0  0  0  0  0
    5.6561   -3.3465   -2.9473 C   0  0  0  0  0  0  0  0  0  0  0  0
    5.7323   -2.5021   -1.8921 C   0  0  0  0  0  0  0  0  0  0  0  0
    4.5924   -1.9273   -1.1914 C   0  0  2  0  0  0  0  0  0  0  0  0
    4.3211   -0.5710   -1.0956 O   0  0  0  0  0  0  0  0  0  0  0  0
    3.7490   -1.1854   -2.2720 C   0  0  2  0  0  0  0  0  0  0  0  0
    4.0286   -0.3230   -3.4835 C   0  0  0  0  0  0  0  0  0  0  0  0
    4.2570   -4.2534    0.2874 H   0  0  0  0  0  0  0  0  0  0  0  0
    2.8833   -4.8933   -0.6808 H   0  0  0  0  0  0  0  0  0  0  0  0
    2.6255   -3.6977    0.6018 H   0  0  0  0  0  0  0  0  0  0  0  0
    6.6068   -3.6928   -3.3225 H   0  0  0  0  0  0  0  0  0  0  0  0
    6.6921   -2.2477   -1.5071 H   0  0  0  0  0  0  0  0  0  0  0  0
    3.0847    0.0411   -3.8838 H   0  0  0  0  0  0  0  0  0  0  0  0
    4.6233   -0.7797   -4.2707 H   0  0  0  0  0  0  0  0  0  0  0  0
    4.5240    0.5779   -3.1325 H   0  0  0  0  0  0  0  0  0  0  0  0
  1  2  1  0
  1 13  1  0
  1 14  1  0
  1 15  1  0
  2  9  1  0
  2  3  2  0
  3 11  1  0
  3  4  1  0
  4  5  1  0
  5  6  2  0
  5  7  1  0
  7  8  2  0
  7 16  1  0
  8  9  1  0
  8 17  1  0
  9 11  1  0
  9 10  1  1
 10 11  1  0
 11 12  1  6
 12 18  1  0
 12 19  1  0
 12 20  1  0
M  END
>  <i_m_ct_stereo_status>  (290) 
1

>  <s_m_source_file>  (290) 
/var/tmp/pbs.5076255.sched01/tmpbzpkhbzu/844yn2io63.sdf

>  <i_m_source_file_index>  (290) 
41

>  <i_lp_mmshare_version>  (290) 
48012

>  <i_f3d_flags>  (290) 
0

>  <s_epik_input>  (290) 
W0NIM11DMT1DKEMoQzEyMykoTzMpW0NIM10pT0MoPU8pW0NIXT1bQ0hdMg==

>  <s_epik_cmdline>  (290) 
J2VwaWtfcHl0aG9uJywgJy1waHQnLCAnMi4wJywgJy1waCcsICc3LjAnLCAnLXRuJywgJzgnLCAnLW1hJywgJzIwMCcsICctaW1hZScsICc8aW5maWxlLm1hZT4nLCAnLW9tYWUnLCAnPG91dGZpbGUubWFlPic=

>  <r_lp_tautomer_probability>  (290) 
1

>  <r_epik_Ionization_Penalty>  (290) 
0

>  <r_epik_Ionization_Penalty_Charging>  (290) 
0

>  <r_epik_Ionization_Penalty_Neutral>  (290) 
0

>  <r_epik_State_Penalty>  (290) 
-0

>  <r_epik_Charging_Adjusted_Penalty>  (290) 
0

>  <i_epik_Tot_Q>  (290) 
0

>  <i_epik_Tot_abs_Q>  (290) 
0

>  <s_lp_Force_Field>  (290) 
OPLS3e

>  <r_lp_Energy>  (290) 
54.0319

>  <b_lp_Chiralities_Consistent>  (290) 
1

>  <s_lp_Variant>  (290) 
89:0-2

>  <s_i_glide_gridfile>  (290) 
pfpi4k_grid

>  <i_i_glide_lignum>  (290) 
41

>  <i_i_glide_rotatable_bonds>  (290) 
0

>  <r_i_docking_score>  (290) 
-3.71725

>  <r_i_glide_ligand_efficiency>  (290) 
-0.309771

>  <r_i_glide_ligand_efficiency_sa>  (290) 
-0.709198

>  <r_i_glide_ligand_efficiency_ln>  (290) 
-1.06667

>  <r_i_glide_gscore>  (290) 
-3.71725

>  <r_i_glide_lipo>  (290) 
-0.46095

>  <r_i_glide_hbond>  (290) 
0

>  <r_i_glide_metal>  (290) 
-0

>  <r_i_glide_rewards>  (290) 
-2.28233

>  <r_i_glide_evdw>  (290) 
-16.2654

>  <r_i_glide_ecoul>  (290) 
-1.07128

>  <r_i_glide_erotb>  (290) 
0

>  <r_i_glide_esite>  (290) 
0

>  <r_i_glide_emodel>  (290) 
-19.7639

>  <r_i_glide_energy>  (290) 
-17.3367

>  <r_i_glide_einternal>  (290) 
0

>  <r_i_glide_intrahb_reward>  (290) 
-0

>  <i_i_glide_confnum>  (290) 
2

>  <i_i_glide_posenum>  (290) 
5

>  <r_i_glide_eff_state_penalty>  (290) 
0

>  <ligand_id>  (290) 
89

>  <original_smiles>  (290) 
CC1=C2OC(=O)C=CC13OC23C

>  <smiles>  (290) 
[H]C1=C([H])C23OC2(C([H])([H])[H])C(=C3C([H])([H])[H])OC1=O

$$$$
89:1:2
     RDKit          3D

 20 22  0  0  1  0  0  0  0  0999 V2000
   -2.3537    3.1681    3.1287 C   0  0  0  0  0  0  0  0  0  0  0  0
   -1.0442    2.4135    3.1973 C   0  0  0  0  0  0  0  0  0  0  0  0
   -0.6238    1.1770    2.9209 C   0  0  0  0  0  0  0  0  0  0  0  0
   -1.1734    0.1239    3.6354 O   0  0  0  0  0  0  0  0  0  0  0  0
   -1.4010    0.1693    5.0221 C   0  0  0  0  0  0  0  0  0  0  0  0
   -2.0719   -0.6847    5.5908 O   0  0  0  0  0  0  0  0  0  0  0  0
   -0.7714    1.2628    5.8419 C   0  0  0  0  0  0  0  0  0  0  0  0
   -0.0740    2.3266    5.4241 C   0  0  0  0  0  0  0  0  0  0  0  0
    0.1457    2.6992    4.0012 C   0  0  2  0  0  0  0  0  0  0  0  0
    1.3627    2.7987    3.3540 O   0  0  0  0  0  0  0  0  0  0  0  0
    0.7878    1.4884    3.3164 C   0  0  2  0  0  0  0  0  0  0  0  0
    1.8334    0.4548    3.7053 C   0  0  0  0  0  0  0  0  0  0  0  0
   -2.4301    3.8858    3.9379 H   0  0  0  0  0  0  0  0  0  0  0  0
   -3.2394    2.5320    3.0877 H   0  0  0  0  0  0  0  0  0  0  0  0
   -2.3088    3.7277    2.1953 H   0  0  0  0  0  0  0  0  0  0  0  0
   -0.8461    1.1624    6.9110 H   0  0  0  0  0  0  0  0  0  0  0  0
    0.3465    3.0123    6.1323 H   0  0  0  0  0  0  0  0  0  0  0  0
    1.9999   -0.1860    2.8431 H   0  0  0  0  0  0  0  0  0  0  0  0
    1.6260   -0.1243    4.6042 H   0  0  0  0  0  0  0  0  0  0  0  0
    2.7645    0.9990    3.8350 H   0  0  0  0  0  0  0  0  0  0  0  0
  1  2  1  0
  1 13  1  0
  1 14  1  0
  1 15  1  0
  2  9  1  0
  2  3  2  0
  3 11  1  0
  3  4  1  0
  4  5  1  0
  5  6  2  0
  5  7  1  0
  7  8  2  0
  7 16  1  0
  8  9  1  0
  8 17  1  0
  9 11  1  0
  9 10  1  1
 10 11  1  0
 11 12  1  1
 12 18  1  0
 12 19  1  0
 12 20  1  0
M  END
>  <i_m_ct_stereo_status>  (291) 
1

>  <s_m_source_file>  (291) 
/var/tmp/pbs.5076255.sched01/tmpbzpkhbzu/844yn2io63.sdf

>  <i_m_source_file_index>  (291) 
41

>  <i_lp_mmshare_version>  (291) 
48012

>  <i_f3d_flags>  (291) 
0

>  <s_epik_input>  (291) 
W0NIM11DMT1DKEMoQzEyMykoTzMpW0NIM10pT0MoPU8pW0NIXT1bQ0hdMg==

>  <s_epik_cmdline>  (291) 
J2VwaWtfcHl0aG9uJywgJy1waHQnLCAnMi4wJywgJy1waCcsICc3LjAnLCAnLXRuJywgJzgnLCAnLW1hJywgJzIwMCcsICctaW1hZScsICc8aW5maWxlLm1hZT4nLCAnLW9tYWUnLCAnPG91dGZpbGUubWFlPic=

>  <r_lp_tautomer_probability>  (291) 
1

>  <r_epik_Ionization_Penalty>  (291) 
0

>  <r_epik_Ionization_Penalty_Charging>  (291) 
0

>  <r_epik_Ionization_Penalty_Neutral>  (291) 
0

>  <r_epik_State_Penalty>  (291) 
-0

>  <r_epik_Charging_Adjusted_Penalty>  (291) 
0

>  <i_epik_Tot_Q>  (291) 
0

>  <i_epik_Tot_abs_Q>  (291) 
0

>  <s_lp_Force_Field>  (291) 
OPLS3e

>  <r_lp_Energy>  (291) 
54.0319

>  <b_lp_Chiralities_Consistent>  (291) 
1

>  <s_lp_Variant>  (291) 
89:0-2

>  <s_i_glide_gridfile>  (291) 
pfpi4k_grid

>  <i_i_glide_lignum>  (291) 
41

>  <i_i_glide_rotatable_bonds>  (291) 
0

>  <r_i_docking_score>  (291) 
-3.20688

>  <r_i_glide_ligand_efficiency>  (291) 
-0.26724

>  <r_i_glide_ligand_efficiency_sa>  (291) 
-0.611827

>  <r_i_glide_ligand_efficiency_ln>  (291) 
-0.920221

>  <r_i_glide_gscore>  (291) 
-3.20688

>  <r_i_glide_lipo>  (291) 
0

>  <r_i_glide_hbond>  (291) 
-0.0428735

>  <r_i_glide_metal>  (291) 
-0

>  <r_i_glide_rewards>  (291) 
-2.25

>  <r_i_glide_evdw>  (291) 
-14.6759

>  <r_i_glide_ecoul>  (291) 
-0.940806

>  <r_i_glide_erotb>  (291) 
0

>  <r_i_glide_esite>  (291) 
-0.0390935

>  <r_i_glide_emodel>  (291) 
-17.45

>  <r_i_glide_energy>  (291) 
-15.6167

>  <r_i_glide_einternal>  (291) 
0

>  <r_i_glide_intrahb_reward>  (291) 
-0

>  <i_i_glide_confnum>  (291) 
2

>  <i_i_glide_posenum>  (291) 
6

>  <r_i_glide_eff_state_penalty>  (291) 
0

>  <ligand_id>  (291) 
89

>  <original_smiles>  (291) 
CC1=C2OC(=O)C=CC13OC23C

>  <smiles>  (291) 
[H]C1=C([H])C23OC2(C([H])([H])[H])C(=C3C([H])([H])[H])OC1=O

$$$$
90:0:0
     RDKit          3D

102110  0  0  1  0  0  0  0  0999 V2000
    2.7398   -7.4158    7.4863 C   0  0  0  0  0  0  0  0  0  0  0  0
    1.4663   -6.8725    7.8665 O   0  0  0  0  0  0  0  0  0  0  0  0
    1.3881   -5.4582    7.6961 C   0  0  2  0  0  0  0  0  0  0  0  0
    1.4815   -5.0349    6.2240 C   0  0  0  0  0  0  0  0  0  0  0  0
    2.2162   -4.0037    5.7576 C   0  0  0  0  0  0  0  0  0  0  0  0
    2.4109   -3.7279    4.2368 C   0  0  1  0  0  0  0  0  0  0  0  0
    2.3310   -2.1804    4.0156 C   0  0  1  0  0  0  0  0  0  0  0  0
    0.8647   -1.7067    4.0785 C   0  0  0  0  0  0  0  0  0  0  0  0
    3.3051   -1.3682    4.8891 C   0  0  0  0  0  0  0  0  0  0  0  0
    3.9747   -2.2126    5.9864 C   0  0  2  0  0  0  0  0  0  0  0  0
    5.1681   -2.9766    5.3559 C   0  0  0  0  0  0  0  0  0  0  0  0
    4.9198   -4.2650    4.5281 C   0  0  1  0  0  0  0  0  0  0  0  0
    5.0056   -5.3624    5.4233 O   0  0  0  0  0  0  0  0  0  0  0  0
    4.3119   -6.3598    4.8831 C   0  0  0  0  0  0  0  0  0  0  0  0
    3.5255   -6.0434    3.8714 C   0  0  0  0  0  0  0  0  0  0  0  0
    2.9758   -7.1229    2.8762 C   0  0  2  0  0  0  0  0  0  0  0  0
    2.8381   -6.5588    1.4597 C   0  0  1  0  0  0  0  0  0  0  0  0
    1.4013   -6.0494    1.1885 C   0  0  0  0  0  0  0  0  0  0  0  0
    0.3031   -7.0541    1.5283 C   0  0  0  0  0  0  0  0  0  0  0  0
    0.4332   -7.5183    2.9971 C   0  0  1  0  0  0  0  0  0  0  0  0
   -0.8274   -8.2500    3.5713 C   0  0  0  0  0  0  0  0  0  0  0  0
   -2.0438   -7.3107    3.4898 C   0  0  0  0  0  0  0  0  0  0  0  0
   -1.1828   -9.5578    2.8304 C   0  0  0  0  0  0  0  0  0  0  0  0
   -0.6041   -8.5433    5.0724 C   0  0  0  0  0  0  0  0  0  0  0  0
    0.6708   -9.3531    5.3303 C   0  0  0  0  0  0  0  0  0  0  0  0
    1.8844   -8.5867    4.7678 C   0  0  1  0  0  0  0  0  0  0  0  0
    3.0372   -9.3616    5.0628 O   0  0  0  0  0  0  0  0  0  0  0  0
    1.8346   -8.1705    3.2740 C   0  0  2  0  0  0  0  0  0  0  0  0
    2.0610   -9.4662    2.4075 C   0  0  0  0  0  0  0  0  0  0  0  0
    4.0163   -5.5781    1.2800 C   0  0  0  0  0  0  0  0  0  0  0  0
    5.1537   -6.0933    0.7304 C   0  0  0  0  0  0  0  0  0  0  0  0
    6.4837   -5.4286    0.9161 C   0  0  0  0  0  0  0  0  0  0  0  0
    7.5108   -5.9016    0.4934 O   0  0  0  0  0  0  0  0  0  0  0  0
    6.4536   -4.3255    1.6741 O   0  0  0  0  0  0  0  0  0  0  0  0
    5.3279   -3.4660    1.7174 C   0  0  1  0  0  0  0  0  0  0  0  0
    5.4303   -2.5156    0.5304 C   0  0  0  0  0  0  0  0  0  0  0  0
    5.2128   -2.8339   -0.8670 C   0  0  0  0  0  0  0  0  0  0  0  0
    5.4364   -1.6917   -1.5546 C   0  0  0  0  0  0  0  0  0  0  0  0
    5.8019   -0.6781   -0.7326 O   0  0  0  0  0  0  0  0  0  0  0  0
    5.7884   -1.2015    0.5246 C   0  0  0  0  0  0  0  0  0  0  0  0
    3.9398   -4.2273    1.9847 C   0  0  1  0  0  0  0  0  0  0  0  0
    2.8442   -3.4162    1.1954 C   0  0  0  0  0  0  0  0  0  0  0  0
    3.6569   -4.5069    3.5925 C   0  0  1  0  0  0  0  0  0  0  0  0
    2.9176   -3.0666    6.7566 C   0  0  1  0  0  0  0  0  0  0  0  0
    1.8701   -2.1047    7.4136 C   0  0  0  0  0  0  0  0  0  0  0  0
    3.5053   -3.9382    7.9110 C   0  0  1  0  0  0  0  0  0  0  0  0
    4.1930   -3.1720    8.8921 O   0  0  0  0  0  0  0  0  0  0  0  0
    2.4178   -4.7712    8.6369 C   0  0  0  0  0  0  0  0  0  0  0  0
    2.6935   -8.5177    7.4362 H   0  0  0  0  0  0  0  0  0  0  0  0
    3.5826   -7.1418    8.1171 H   0  0  0  0  0  0  0  0  0  0  0  0
    2.9580   -7.0363    6.5325 H   0  0  0  0  0  0  0  0  0  0  0  0
    0.3776   -5.1956    8.0176 H   0  0  0  0  0  0  0  0  0  0  0  0
    0.9684   -5.6623    5.5102 H   0  0  0  0  0  0  0  0  0  0  0  0
    1.5379   -4.1676    3.7613 H   0  0  0  0  0  0  0  0  0  0  0  0
    2.6443   -1.8947    3.0270 H   0  0  0  0  0  0  0  0  0  0  0  0
    0.3553   -2.0452    4.9787 H   0  0  0  0  0  0  0  0  0  0  0  0
    0.2982   -2.1094    3.2402 H   0  0  0  0  0  0  0  0  0  0  0  0
    0.7921   -0.6215    4.0290 H   0  0  0  0  0  0  0  0  0  0  0  0
    4.0748   -0.9289    4.2543 H   0  0  0  0  0  0  0  0  0  0  0  0
    2.8046   -0.5003    5.3140 H   0  0  0  0  0  0  0  0  0  0  0  0
    4.4139   -1.5084    6.6950 H   0  0  0  0  0  0  0  0  0  0  0  0
    5.7422   -2.2841    4.7392 H   0  0  0  0  0  0  0  0  0  0  0  0
    5.8586   -3.2303    6.1631 H   0  0  0  0  0  0  0  0  0  0  0  0
    5.8412   -4.4567    3.9931 H   0  0  0  0  0  0  0  0  0  0  0  0
    4.6054   -7.3542    5.2527 H   0  0  0  0  0  0  0  0  0  0  0  0
    3.8698   -7.7462    2.8196 H   0  0  0  0  0  0  0  0  0  0  0  0
    2.9936   -7.3919    0.7889 H   0  0  0  0  0  0  0  0  0  0  0  0
    1.1609   -5.2346    1.8488 H   0  0  0  0  0  0  0  0  0  0  0  0
    1.2980   -5.7197    0.1596 H   0  0  0  0  0  0  0  0  0  0  0  0
   -0.6586   -6.5756    1.3573 H   0  0  0  0  0  0  0  0  0  0  0  0
    0.3251   -7.8899    0.8428 H   0  0  0  0  0  0  0  0  0  0  0  0
    0.4666   -6.5927    3.5728 H   0  0  0  0  0  0  0  0  0  0  0  0
   -2.8812   -7.7054    4.0456 H   0  0  0  0  0  0  0  0  0  0  0  0
   -2.4081   -7.1848    2.4768 H   0  0  0  0  0  0  0  0  0  0  0  0
   -1.8268   -6.3317    3.9187 H   0  0  0  0  0  0  0  0  0  0  0  0
   -2.2057   -9.8403    3.0659 H   0  0  0  0  0  0  0  0  0  0  0  0
   -0.5685  -10.4006    3.1287 H   0  0  0  0  0  0  0  0  0  0  0  0
   -1.1130   -9.4688    1.7510 H   0  0  0  0  0  0  0  0  0  0  0  0
   -0.5385   -7.5954    5.6205 H   0  0  0  0  0  0  0  0  0  0  0  0
   -1.4555   -9.0478    5.5085 H   0  0  0  0  0  0  0  0  0  0  0  0
    0.7849   -9.4397    6.4112 H   0  0  0  0  0  0  0  0  0  0  0  0
    0.5713  -10.3933    4.9735 H   0  0  0  0  0  0  0  0  0  0  0  0
    1.8715   -7.6619    5.2512 H   0  0  0  0  0  0  0  0  0  0  0  0
    2.9288   -9.7992    5.8902 H   0  0  0  0  0  0  0  0  0  0  0  0
    1.5025  -10.3218    2.7874 H   0  0  0  0  0  0  0  0  0  0  0  0
    3.1095   -9.7808    2.4481 H   0  0  0  0  0  0  0  0  0  0  0  0
    1.8111   -9.3425    1.3490 H   0  0  0  0  0  0  0  0  0  0  0  0
    5.1800   -7.0626    0.3160 H   0  0  0  0  0  0  0  0  0  0  0  0
    5.4829   -2.7902    2.5529 H   0  0  0  0  0  0  0  0  0  0  0  0
    4.9321   -3.7858   -1.2780 H   0  0  0  0  0  0  0  0  0  0  0  0
    5.3957   -1.4374   -2.6158 H   0  0  0  0  0  0  0  0  0  0  0  0
    6.0802   -0.4933    1.2962 H   0  0  0  0  0  0  0  0  0  0  0  0
    3.0628   -2.3577    1.0685 H   0  0  0  0  0  0  0  0  0  0  0  0
    1.8626   -3.4006    1.6480 H   0  0  0  0  0  0  0  0  0  0  0  0
    2.7248   -3.7901    0.1727 H   0  0  0  0  0  0  0  0  0  0  0  0
    2.3125   -1.5134    8.2174 H   0  0  0  0  0  0  0  0  0  0  0  0
    1.0236   -2.6398    7.8432 H   0  0  0  0  0  0  0  0  0  0  0  0
    1.4342   -1.3861    6.7289 H   0  0  0  0  0  0  0  0  0  0  0  0
    4.2439   -4.6332    7.5224 H   0  0  0  0  0  0  0  0  0  0  0  0
    4.5949   -3.7542    9.5019 H   0  0  0  0  0  0  0  0  0  0  0  0
    1.8741   -4.1643    9.3528 H   0  0  0  0  0  0  0  0  0  0  0  0
    2.8999   -5.5117    9.2717 H   0  0  0  0  0  0  0  0  0  0  0  0
  1  2  1  0
  1 49  1  0
  1 50  1  0
  1 51  1  0
  2  3  1  0
  3 48  1  0
  3  4  1  0
  3 52  1  1
  4  5  2  0
  4 53  1  0
  5 44  1  0
  5  6  1  0
  6 43  1  0
  6  7  1  0
  6 54  1  6
  7  8  1  0
  7  9  1  0
  7 55  1  6
  8 56  1  0
  8 57  1  0
  8 58  1  0
  9 10  1  0
  9 59  1  0
  9 60  1  0
 10 11  1  0
 10 44  1  0
 10 61  1  1
 11 12  1  0
 11 62  1  0
 11 63  1  0
 12 43  1  0
 12 13  1  0
 12 64  1  6
 13 14  1  0
 14 15  2  0
 14 65  1  0
 43 15  1  6
 15 16  1  0
 16 28  1  0
 16 17  1  0
 16 66  1  6
 17 18  1  0
 17 30  1  0
 17 67  1  6
 18 19  1  0
 18 68  1  0
 18 69  1  0
 19 20  1  0
 19 70  1  0
 19 71  1  0
 20 28  1  0
 20 21  1  0
 20 72  1  1
 21 22  1  0
 21 23  1  0
 21 24  1  0
 22 73  1  0
 22 74  1  0
 22 75  1  0
 23 76  1  0
 23 77  1  0
 23 78  1  0
 24 25  1  0
 24 79  1  0
 24 80  1  0
 25 26  1  0
 25 81  1  0
 25 82  1  0
 26 27  1  0
 26 28  1  0
 26 83  1  1
 27 84  1  0
 28 29  1  6
 29 85  1  0
 29 86  1  0
 29 87  1  0
 30 41  1  0
 30 31  2  0
 31 32  1  0
 31 88  1  0
 32 33  2  0
 32 34  1  0
 34 35  1  0
 35 36  1  0
 35 41  1  0
 35 89  1  1
 36 40  2  0
 36 37  1  0
 37 38  2  0
 37 90  1  0
 38 39  1  0
 38 91  1  0
 39 40  1  0
 40 92  1  0
 41 42  1  6
 41 43  1  0
 42 93  1  0
 42 94  1  0
 42 95  1  0
 44 45  1  1
 44 46  1  0
 45 96  1  0
 45 97  1  0
 45 98  1  0
 46 47  1  0
 46 48  1  0
 46 99  1  6
 47100  1  0
 48101  1  0
 48102  1  0
M  END
>  <i_m_ct_stereo_status>  (292) 
1

>  <s_m_source_file>  (292) 
/var/tmp/pbs.5076255.sched01/tmpbzpkhbzu/844yn2io63.sdf

>  <i_m_source_file_index>  (292) 
42

>  <i_lp_mmshare_version>  (292) 
48012

>  <i_f3d_flags>  (292) 
0

>  <s_epik_input>  (292) 
W0NIM11PW0NASF0oW0NIXT0xKVtDSDJdW0NASF0oW09IXSlbQ0BdKFtDSDNdKShDMVtDQEBIXTJbQ0BAXTM0NSlbQ0BIXShbQ0gyXVtDQEBIXTJbQ0gzXSlbQ0gyXVtDQEhdM09bQ0hdPUM0W0NAQEhdNltDQEhdKEM9N1tDQF01KFtDSDNdKVtDQEBIXShPQyg9TylbQ0hdNyljOFtjSF1bY0hdb1tjSF04KVtDSDJdW0NIMl1bQ0BASF05W0NAXTYoW0NIM10pW0NASF0oW09IXSlbQ0gyXVtDSDJdQzkoW0NIM10pW0NIM10=

>  <s_epik_cmdline>  (292) 
J2VwaWtfcHl0aG9uJywgJy1waHQnLCAnMi4wJywgJy1waCcsICc3LjAnLCAnLXRuJywgJzgnLCAnLW1hJywgJzIwMCcsICctaW1hZScsICc8aW5maWxlLm1hZT4nLCAnLW9tYWUnLCAnPG91dGZpbGUubWFlPic=

>  <r_lp_tautomer_probability>  (292) 
1

>  <r_epik_Ionization_Penalty>  (292) 
6.64605e-07

>  <r_epik_Ionization_Penalty_Charging>  (292) 
0

>  <r_epik_Ionization_Penalty_Neutral>  (292) 
6.64605e-07

>  <r_epik_State_Penalty>  (292) 
-0

>  <r_epik_Charging_Adjusted_Penalty>  (292) 
0

>  <i_epik_Tot_Q>  (292) 
0

>  <i_epik_Tot_abs_Q>  (292) 
0

>  <s_epik_Chemistry_Notes>  (292) 
This compound has an ester and may undergo hydrolysis at high or low pH.

>  <s_lp_Force_Field>  (292) 
OPLS3e

>  <r_lp_Energy>  (292) 
129.717

>  <b_lp_Chiralities_Consistent>  (292) 
1

>  <s_lp_Variant>  (292) 
90:0-1

>  <s_i_glide_gridfile>  (292) 
pfpi4k_grid

>  <i_i_glide_lignum>  (292) 
42

>  <i_i_glide_rotatable_bonds>  (292) 
4

>  <r_i_docking_score>  (292) 
-2.20978

>  <r_i_glide_ligand_efficiency>  (292) 
-0.0460371

>  <r_i_glide_ligand_efficiency_sa>  (292) 
-0.16731

>  <r_i_glide_ligand_efficiency_ln>  (292) 
-0.453642

>  <r_i_glide_gscore>  (292) 
-2.20978

>  <r_i_glide_lipo>  (292) 
-0.471436

>  <r_i_glide_hbond>  (292) 
-0.0276828

>  <r_i_glide_metal>  (292) 
-0

>  <r_i_glide_rewards>  (292) 
-0.137242

>  <r_i_glide_evdw>  (292) 
-30.5149

>  <r_i_glide_ecoul>  (292) 
-1.48583

>  <r_i_glide_erotb>  (292) 
0.0490013

>  <r_i_glide_esite>  (292) 
0

>  <r_i_glide_emodel>  (292) 
-31.152

>  <r_i_glide_energy>  (292) 
-32.0008

>  <r_i_glide_einternal>  (292) 
1.9369

>  <r_i_glide_intrahb_reward>  (292) 
-0

>  <i_i_glide_confnum>  (292) 
2

>  <i_i_glide_posenum>  (292) 
37

>  <r_i_glide_eff_state_penalty>  (292) 
0

>  <ligand_id>  (292) 
90

>  <original_smiles>  (292) 
COC1C=C2C3C(C)CC(CC4OC=C5C6C(CCC7C(C)(C)CCC(O)C67C)C6=CC(=O)OC(c7ccoc7)C6(C)C543)C2(C)C(O)C1

>  <smiles>  (292) 
[H]OC1([H])C([H])([H])C([H])(OC([H])([H])[H])C([H])=C2C3([H])C([H])(C([H])([H])[H])C([H])([H])C([H])(C([H])([H])C4([H])OC([H])=C5C6([H])C([H])(C7=C([H])C(=O)OC([H])(c8c([H])oc([H])c8[H])C7(C([H])([H])[H])C543)C([H])([H])C([H])([H])C3([H])C(C([H])([H])[H])(C([H])([H])[H])C([H])([H])C([H])([H])C([H])(O[H])C63C([H])([H])[H])C21C([H])([H])[H]

$$$$
90:0:1
     RDKit          3D

102110  0  0  1  0  0  0  0  0999 V2000
    2.9278   -7.0218    7.5858 C   0  0  0  0  0  0  0  0  0  0  0  0
    1.6098   -6.5495    7.8981 O   0  0  0  0  0  0  0  0  0  0  0  0
    1.4253   -5.1626    7.6156 C   0  0  2  0  0  0  0  0  0  0  0  0
    1.5315   -4.8516    6.1148 C   0  0  0  0  0  0  0  0  0  0  0  0
    2.1980   -3.8036    5.5873 C   0  0  0  0  0  0  0  0  0  0  0  0
    2.4174   -3.6360    4.0520 C   0  0  1  0  0  0  0  0  0  0  0  0
    2.2286   -2.1229    3.7050 C   0  0  1  0  0  0  0  0  0  0  0  0
    0.7303   -1.7598    3.6965 C   0  0  0  0  0  0  0  0  0  0  0  0
    3.1103   -1.1681    4.5334 C   0  0  0  0  0  0  0  0  0  0  0  0
    3.8074   -1.8691    5.7111 C   0  0  2  0  0  0  0  0  0  0  0  0
    5.0737   -2.5850    5.1738 C   0  0  0  0  0  0  0  0  0  0  0  0
    4.9494   -3.9509    4.4497 C   0  0  1  0  0  0  0  0  0  0  0  0
    5.0918   -4.9611    5.4318 O   0  0  0  0  0  0  0  0  0  0  0  0
    4.4935   -6.0554    4.9564 C   0  0  0  0  0  0  0  0  0  0  0  0
    3.7132   -5.8778    3.9000 C   0  0  0  0  0  0  0  0  0  0  0  0
    3.2787   -7.0763    2.9795 C   0  0  2  0  0  0  0  0  0  0  0  0
    3.1423   -6.6366    1.5162 C   0  0  1  0  0  0  0  0  0  0  0  0
    1.6780   -6.2643    1.1761 C   0  0  0  0  0  0  0  0  0  0  0  0
    0.6524   -7.3285    1.5648 C   0  0  0  0  0  0  0  0  0  0  0  0
    0.7617   -7.6559    3.0709 C   0  0  1  0  0  0  0  0  0  0  0  0
   -0.4559   -8.4385    3.6762 C   0  0  0  0  0  0  0  0  0  0  0  0
   -1.7510   -7.6127    3.4987 C   0  0  0  0  0  0  0  0  0  0  0  0
   -0.6730   -9.8325    3.0398 C   0  0  0  0  0  0  0  0  0  0  0  0
   -0.2508   -8.5843    5.2014 C   0  0  0  0  0  0  0  0  0  0  0  0
    1.0769   -9.2710    5.5547 C   0  0  0  0  0  0  0  0  0  0  0  0
    2.2424   -8.4596    4.9529 C   0  0  1  0  0  0  0  0  0  0  0  0
    3.4607   -9.1169    5.3197 O   0  0  0  0  0  0  0  0  0  0  0  0
    2.2040   -8.1700    3.4318 C   0  0  2  0  0  0  0  0  0  0  0  0
    2.5580   -9.5106    2.6847 C   0  0  0  0  0  0  0  0  0  0  0  0
    4.2478   -5.5828    1.2916 C   0  0  0  0  0  0  0  0  0  0  0  0
    5.4386   -6.0481    0.8224 C   0  0  0  0  0  0  0  0  0  0  0  0
    6.7055   -5.2688    0.9789 C   0  0  0  0  0  0  0  0  0  0  0  0
    7.7771   -5.6978    0.6144 O   0  0  0  0  0  0  0  0  0  0  0  0
    6.5721   -4.1169    1.6434 O   0  0  0  0  0  0  0  0  0  0  0  0
    5.3815   -3.3494    1.5948 C   0  0  1  0  0  0  0  0  0  0  0  0
    5.4497   -2.4915    0.3294 C   0  0  0  0  0  0  0  0  0  0  0  0
    5.2153   -2.9156   -1.0249 C   0  0  0  0  0  0  0  0  0  0  0  0
    5.4102   -1.8319   -1.8109 C   0  0  0  0  0  0  0  0  0  0  0  0
    5.7632   -0.7504   -1.0739 O   0  0  0  0  0  0  0  0  0  0  0  0
    5.7876   -1.1767    0.2220 C   0  0  0  0  0  0  0  0  0  0  0  0
    4.0465   -4.1906    1.8867 C   0  0  1  0  0  0  0  0  0  0  0  0
    2.9168   -3.5329    1.0082 C   0  0  0  0  0  0  0  0  0  0  0  0
    3.7369   -4.3671    3.5044 C   0  0  1  0  0  0  0  0  0  0  0  0
    2.7950   -2.7377    6.5207 C   0  0  1  0  0  0  0  0  0  0  0  0
    1.6588   -1.8123    7.0748 C   0  0  0  0  0  0  0  0  0  0  0  0
    3.4139   -3.4677    7.7555 C   0  0  1  0  0  0  0  0  0  0  0  0
    4.0089   -2.5755    8.6882 O   0  0  0  0  0  0  0  0  0  0  0  0
    2.3724   -4.3252    8.5195 C   0  0  0  0  0  0  0  0  0  0  0  0
    2.9647   -8.1241    7.6247 H   0  0  0  0  0  0  0  0  0  0  0  0
    3.7239   -6.6368    8.2130 H   0  0  0  0  0  0  0  0  0  0  0  0
    3.1499   -6.7019    6.6147 H   0  0  0  0  0  0  0  0  0  0  0  0
    0.3870   -4.9525    7.8894 H   0  0  0  0  0  0  0  0  0  0  0  0
    1.0881   -5.5694    5.4427 H   0  0  0  0  0  0  0  0  0  0  0  0
    1.5949   -4.1801    3.5925 H   0  0  0  0  0  0  0  0  0  0  0  0
    2.5467   -1.8909    2.7031 H   0  0  0  0  0  0  0  0  0  0  0  0
    0.2178   -2.0659    4.6074 H   0  0  0  0  0  0  0  0  0  0  0  0
    0.2235   -2.2750    2.8805 H   0  0  0  0  0  0  0  0  0  0  0  0
    0.5736   -0.6926    3.5523 H   0  0  0  0  0  0  0  0  0  0  0  0
    3.8623   -0.7238    3.8826 H   0  0  0  0  0  0  0  0  0  0  0  0
    2.5317   -0.3115    4.8718 H   0  0  0  0  0  0  0  0  0  0  0  0
    4.1696   -1.0785    6.3702 H   0  0  0  0  0  0  0  0  0  0  0  0
    5.6106   -1.8994    4.5178 H   0  0  0  0  0  0  0  0  0  0  0  0
    5.7567   -2.7192    6.0144 H   0  0  0  0  0  0  0  0  0  0  0  0
    5.8938   -4.1135    3.9481 H   0  0  0  0  0  0  0  0  0  0  0  0
    4.8452   -6.9850    5.4191 H   0  0  0  0  0  0  0  0  0  0  0  0
    4.2202   -7.6279    2.9996 H   0  0  0  0  0  0  0  0  0  0  0  0
    3.3719   -7.5030    0.9041 H   0  0  0  0  0  0  0  0  0  0  0  0
    1.3528   -5.4200    1.7603 H   0  0  0  0  0  0  0  0  0  0  0  0
    1.5756   -6.0189    0.1238 H   0  0  0  0  0  0  0  0  0  0  0  0
   -0.3375   -6.9388    1.3362 H   0  0  0  0  0  0  0  0  0  0  0  0
    0.7648   -8.2200    0.9549 H   0  0  0  0  0  0  0  0  0  0  0  0
    0.7159   -6.6875    3.5707 H   0  0  0  0  0  0  0  0  0  0  0  0
   -2.5685   -8.0349    4.0734 H   0  0  0  0  0  0  0  0  0  0  0  0
   -2.0851   -7.5836    2.4659 H   0  0  0  0  0  0  0  0  0  0  0  0
   -1.6188   -6.5856    3.8421 H   0  0  0  0  0  0  0  0  0  0  0  0
   -1.6684  -10.1917    3.2648 H   0  0  0  0  0  0  0  0  0  0  0  0
   -0.0027  -10.5969    3.4202 H   0  0  0  0  0  0  0  0  0  0  0  0
   -0.5783   -9.8172    1.9613 H   0  0  0  0  0  0  0  0  0  0  0  0
   -0.2645   -7.5937    5.6709 H   0  0  0  0  0  0  0  0  0  0  0  0
   -1.0765   -9.1204    5.6660 H   0  0  0  0  0  0  0  0  0  0  0  0
    1.1713   -9.2633    6.6402 H   0  0  0  0  0  0  0  0  0  0  0  0
    1.0720  -10.3399    5.2844 H   0  0  0  0  0  0  0  0  0  0  0  0
    2.1512   -7.4962    5.3601 H   0  0  0  0  0  0  0  0  0  0  0  0
    3.4453  -10.0341    5.1131 H   0  0  0  0  0  0  0  0  0  0  0  0
    2.0569  -10.3759    3.1195 H   0  0  0  0  0  0  0  0  0  0  0  0
    3.6278   -9.7373    2.7694 H   0  0  0  0  0  0  0  0  0  0  0  0
    2.3272   -9.4948    1.6153 H   0  0  0  0  0  0  0  0  0  0  0  0
    5.5518   -7.0496    0.5108 H   0  0  0  0  0  0  0  0  0  0  0  0
    5.4601   -2.5976    2.3734 H   0  0  0  0  0  0  0  0  0  0  0  0
    4.9362   -3.9035   -1.3618 H   0  0  0  0  0  0  0  0  0  0  0  0
    5.3421   -1.6581   -2.8833 H   0  0  0  0  0  0  0  0  0  0  0  0
    6.0847   -0.4059    0.9299 H   0  0  0  0  0  0  0  0  0  0  0  0
    3.0577   -2.4733    0.8032 H   0  0  0  0  0  0  0  0  0  0  0  0
    1.9255   -3.5607    1.4342 H   0  0  0  0  0  0  0  0  0  0  0  0
    2.8558   -3.9950    0.0174 H   0  0  0  0  0  0  0  0  0  0  0  0
    2.0320   -1.1276    7.8361 H   0  0  0  0  0  0  0  0  0  0  0  0
    0.8444   -2.3770    7.5261 H   0  0  0  0  0  0  0  0  0  0  0  0
    1.1907   -1.1873    6.3241 H   0  0  0  0  0  0  0  0  0  0  0  0
    4.2155   -4.1310    7.4425 H   0  0  0  0  0  0  0  0  0  0  0  0
    4.4192   -3.0728    9.3641 H   0  0  0  0  0  0  0  0  0  0  0  0
    1.7629   -3.7081    9.1726 H   0  0  0  0  0  0  0  0  0  0  0  0
    2.8918   -4.9746    9.2217 H   0  0  0  0  0  0  0  0  0  0  0  0
  1  2  1  0
  1 49  1  0
  1 50  1  0
  1 51  1  0
  2  3  1  0
  3 48  1  0
  3  4  1  0
  3 52  1  1
  4  5  2  0
  4 53  1  0
  5 44  1  0
  5  6  1  0
  6 43  1  0
  6  7  1  0
  6 54  1  6
  7  8  1  0
  7  9  1  0
  7 55  1  6
  8 56  1  0
  8 57  1  0
  8 58  1  0
  9 10  1  0
  9 59  1  0
  9 60  1  0
 10 11  1  0
 10 44  1  0
 10 61  1  1
 11 12  1  0
 11 62  1  0
 11 63  1  0
 12 43  1  0
 12 13  1  0
 12 64  1  6
 13 14  1  0
 14 15  2  0
 14 65  1  0
 43 15  1  6
 15 16  1  0
 16 28  1  0
 16 17  1  0
 16 66  1  6
 17 18  1  0
 17 30  1  0
 17 67  1  6
 18 19  1  0
 18 68  1  0
 18 69  1  0
 19 20  1  0
 19 70  1  0
 19 71  1  0
 20 28  1  0
 20 21  1  0
 20 72  1  1
 21 22  1  0
 21 23  1  0
 21 24  1  0
 22 73  1  0
 22 74  1  0
 22 75  1  0
 23 76  1  0
 23 77  1  0
 23 78  1  0
 24 25  1  0
 24 79  1  0
 24 80  1  0
 25 26  1  0
 25 81  1  0
 25 82  1  0
 26 27  1  0
 26 28  1  0
 26 83  1  1
 27 84  1  0
 28 29  1  6
 29 85  1  0
 29 86  1  0
 29 87  1  0
 30 41  1  0
 30 31  2  0
 31 32  1  0
 31 88  1  0
 32 33  2  0
 32 34  1  0
 34 35  1  0
 35 36  1  0
 35 41  1  0
 35 89  1  1
 36 40  2  0
 36 37  1  0
 37 38  2  0
 37 90  1  0
 38 39  1  0
 38 91  1  0
 39 40  1  0
 40 92  1  0
 41 42  1  6
 41 43  1  0
 42 93  1  0
 42 94  1  0
 42 95  1  0
 44 45  1  1
 44 46  1  0
 45 96  1  0
 45 97  1  0
 45 98  1  0
 46 47  1  0
 46 48  1  0
 46 99  1  6
 47100  1  0
 48101  1  0
 48102  1  0
M  END
>  <i_m_ct_stereo_status>  (293) 
1

>  <s_m_source_file>  (293) 
/var/tmp/pbs.5076255.sched01/tmpbzpkhbzu/844yn2io63.sdf

>  <i_m_source_file_index>  (293) 
42

>  <i_lp_mmshare_version>  (293) 
48012

>  <i_f3d_flags>  (293) 
0

>  <s_epik_input>  (293) 
W0NIM11PW0NASF0oW0NIXT0xKVtDSDJdW0NASF0oW09IXSlbQ0BdKFtDSDNdKShDMVtDQEBIXTJbQ0BAXTM0NSlbQ0BIXShbQ0gyXVtDQEBIXTJbQ0gzXSlbQ0gyXVtDQEhdM09bQ0hdPUM0W0NAQEhdNltDQEhdKEM9N1tDQF01KFtDSDNdKVtDQEBIXShPQyg9TylbQ0hdNyljOFtjSF1bY0hdb1tjSF04KVtDSDJdW0NIMl1bQ0BASF05W0NAXTYoW0NIM10pW0NASF0oW09IXSlbQ0gyXVtDSDJdQzkoW0NIM10pW0NIM10=

>  <s_epik_cmdline>  (293) 
J2VwaWtfcHl0aG9uJywgJy1waHQnLCAnMi4wJywgJy1waCcsICc3LjAnLCAnLXRuJywgJzgnLCAnLW1hJywgJzIwMCcsICctaW1hZScsICc8aW5maWxlLm1hZT4nLCAnLW9tYWUnLCAnPG91dGZpbGUubWFlPic=

>  <r_lp_tautomer_probability>  (293) 
1

>  <r_epik_Ionization_Penalty>  (293) 
6.64605e-07

>  <r_epik_Ionization_Penalty_Charging>  (293) 
0

>  <r_epik_Ionization_Penalty_Neutral>  (293) 
6.64605e-07

>  <r_epik_State_Penalty>  (293) 
-0

>  <r_epik_Charging_Adjusted_Penalty>  (293) 
0

>  <i_epik_Tot_Q>  (293) 
0

>  <i_epik_Tot_abs_Q>  (293) 
0

>  <s_epik_Chemistry_Notes>  (293) 
This compound has an ester and may undergo hydrolysis at high or low pH.

>  <s_lp_Force_Field>  (293) 
OPLS3e

>  <r_lp_Energy>  (293) 
129.717

>  <b_lp_Chiralities_Consistent>  (293) 
1

>  <s_lp_Variant>  (293) 
90:0-1

>  <s_i_glide_gridfile>  (293) 
pfpi4k_grid

>  <i_i_glide_lignum>  (293) 
42

>  <i_i_glide_rotatable_bonds>  (293) 
4

>  <r_i_docking_score>  (293) 
-2.12762

>  <r_i_glide_ligand_efficiency>  (293) 
-0.0443255

>  <r_i_glide_ligand_efficiency_sa>  (293) 
-0.161089

>  <r_i_glide_ligand_efficiency_ln>  (293) 
-0.436776

>  <r_i_glide_gscore>  (293) 
-2.12762

>  <r_i_glide_lipo>  (293) 
-0.395834

>  <r_i_glide_hbond>  (293) 
-0.0394165

>  <r_i_glide_metal>  (293) 
-0

>  <r_i_glide_rewards>  (293) 
-0.139291

>  <r_i_glide_evdw>  (293) 
-30.18

>  <r_i_glide_ecoul>  (293) 
-1.87668

>  <r_i_glide_erotb>  (293) 
0.0490013

>  <r_i_glide_esite>  (293) 
0

>  <r_i_glide_emodel>  (293) 
-31.2095

>  <r_i_glide_energy>  (293) 
-32.0567

>  <r_i_glide_einternal>  (293) 
1.35716

>  <r_i_glide_intrahb_reward>  (293) 
-0

>  <i_i_glide_confnum>  (293) 
1

>  <i_i_glide_posenum>  (293) 
35

>  <r_i_glide_eff_state_penalty>  (293) 
0

>  <ligand_id>  (293) 
90

>  <original_smiles>  (293) 
COC1C=C2C3C(C)CC(CC4OC=C5C6C(CCC7C(C)(C)CCC(O)C67C)C6=CC(=O)OC(c7ccoc7)C6(C)C543)C2(C)C(O)C1

>  <smiles>  (293) 
[H]OC1([H])C([H])([H])C([H])(OC([H])([H])[H])C([H])=C2C3([H])C([H])(C([H])([H])[H])C([H])([H])C([H])(C([H])([H])C4([H])OC([H])=C5C6([H])C([H])(C7=C([H])C(=O)OC([H])(c8c([H])oc([H])c8[H])C7(C([H])([H])[H])C543)C([H])([H])C([H])([H])C3([H])C(C([H])([H])[H])(C([H])([H])[H])C([H])([H])C([H])([H])C([H])(O[H])C63C([H])([H])[H])C21C([H])([H])[H]

$$$$
90:0:2
     RDKit          3D

102110  0  0  1  0  0  0  0  0999 V2000
    2.9431   -7.0417    7.5647 C   0  0  0  0  0  0  0  0  0  0  0  0
    1.6282   -6.5693    7.8819 O   0  0  0  0  0  0  0  0  0  0  0  0
    1.4446   -5.1825    7.6039 C   0  0  2  0  0  0  0  0  0  0  0  0
    1.5428   -4.8656    6.1062 C   0  0  0  0  0  0  0  0  0  0  0  0
    2.2088   -3.8188    5.5754 C   0  0  0  0  0  0  0  0  0  0  0  0
    2.4221   -3.6465    4.0416 C   0  0  1  0  0  0  0  0  0  0  0  0
    2.2329   -2.1301    3.6991 C   0  0  1  0  0  0  0  0  0  0  0  0
    0.7344   -1.7675    3.6967 C   0  0  0  0  0  0  0  0  0  0  0  0
    3.1186   -1.1805    4.5257 C   0  0  0  0  0  0  0  0  0  0  0  0
    3.8211   -1.8847    5.6987 C   0  0  2  0  0  0  0  0  0  0  0  0
    5.0844   -2.6009    5.1534 C   0  0  0  0  0  0  0  0  0  0  0  0
    4.9548   -3.9648    4.4255 C   0  0  1  0  0  0  0  0  0  0  0  0
    5.1004   -4.9779    5.4056 O   0  0  0  0  0  0  0  0  0  0  0  0
    4.5002   -6.0682    4.9289 C   0  0  0  0  0  0  0  0  0  0  0  0
    3.7173   -5.8887    3.8771 C   0  0  0  0  0  0  0  0  0  0  0  0
    3.2759   -7.0825    2.9552 C   0  0  2  0  0  0  0  0  0  0  0  0
    3.1325   -6.6404    1.4943 C   0  0  1  0  0  0  0  0  0  0  0  0
    1.6666   -6.2653    1.1603 C   0  0  0  0  0  0  0  0  0  0  0  0
    0.6435   -7.3303    1.5533 C   0  0  0  0  0  0  0  0  0  0  0  0
    0.7617   -7.6620    3.0565 C   0  0  1  0  0  0  0  0  0  0  0  0
   -0.4572   -8.4433    3.6668 C   0  0  0  0  0  0  0  0  0  0  0  0
   -1.7525   -7.6185    3.4967 C   0  0  0  0  0  0  0  0  0  0  0  0
   -0.6773   -9.8361    3.0244 C   0  0  0  0  0  0  0  0  0  0  0  0
   -0.2432   -8.5973    5.1895 C   0  0  0  0  0  0  0  0  0  0  0  0
    1.0827   -9.2850    5.5339 C   0  0  0  0  0  0  0  0  0  0  0  0
    2.2476   -8.4790    4.9271 C   0  0  1  0  0  0  0  0  0  0  0  0
    3.4669   -9.1293    5.2901 O   0  0  0  0  0  0  0  0  0  0  0  0
    2.2023   -8.1774    3.4098 C   0  0  2  0  0  0  0  0  0  0  0  0
    2.5538   -9.5170    2.6573 C   0  0  0  0  0  0  0  0  0  0  0  0
    4.2378   -5.5854    1.2690 C   0  0  0  0  0  0  0  0  0  0  0  0
    5.4256   -6.0516    0.7908 C   0  0  0  0  0  0  0  0  0  0  0  0
    6.6986   -5.2735    0.9464 C   0  0  0  0  0  0  0  0  0  0  0  0
    7.7665   -5.7022    0.5775 O   0  0  0  0  0  0  0  0  0  0  0  0
    6.5664   -4.1228    1.6133 O   0  0  0  0  0  0  0  0  0  0  0  0
    5.3779   -3.3520    1.5693 C   0  0  1  0  0  0  0  0  0  0  0  0
    5.4377   -2.4912    0.3125 C   0  0  0  0  0  0  0  0  0  0  0  0
    5.2535   -2.9279   -1.0569 C   0  0  0  0  0  0  0  0  0  0  0  0
    5.4142   -1.8303   -1.8309 C   0  0  0  0  0  0  0  0  0  0  0  0
    5.7004   -0.7361   -1.0875 O   0  0  0  0  0  0  0  0  0  0  0  0
    5.7168   -1.1611    0.2077 C   0  0  0  0  0  0  0  0  0  0  0  0
    4.0429   -4.1959    1.8658 C   0  0  1  0  0  0  0  0  0  0  0  0
    2.9105   -3.5339    0.9945 C   0  0  0  0  0  0  0  0  0  0  0  0
    3.7392   -4.3748    3.4845 C   0  0  1  0  0  0  0  0  0  0  0  0
    2.8111   -2.7548    6.5113 C   0  0  1  0  0  0  0  0  0  0  0  0
    1.6781   -1.8311    7.0714 C   0  0  0  0  0  0  0  0  0  0  0  0
    3.4352   -3.4874    7.7433 C   0  0  1  0  0  0  0  0  0  0  0  0
    4.0419   -2.5859    8.6650 O   0  0  0  0  0  0  0  0  0  0  0  0
    2.3946   -4.3465    8.5091 C   0  0  0  0  0  0  0  0  0  0  0  0
    2.9830   -8.1418    7.5941 H   0  0  0  0  0  0  0  0  0  0  0  0
    3.7477   -6.6548    8.1799 H   0  0  0  0  0  0  0  0  0  0  0  0
    3.1568   -6.7166    6.5916 H   0  0  0  0  0  0  0  0  0  0  0  0
    0.4076   -4.9745    7.8845 H   0  0  0  0  0  0  0  0  0  0  0  0
    1.0987   -5.5834    5.4324 H   0  0  0  0  0  0  0  0  0  0  0  0
    1.5979   -4.1870    3.5833 H   0  0  0  0  0  0  0  0  0  0  0  0
    2.5482   -1.8966    2.6969 H   0  0  0  0  0  0  0  0  0  0  0  0
    0.2268   -2.0762    4.6092 H   0  0  0  0  0  0  0  0  0  0  0  0
    0.2262   -2.2749    2.8797 H   0  0  0  0  0  0  0  0  0  0  0  0
    0.5797   -0.6982    3.5606 H   0  0  0  0  0  0  0  0  0  0  0  0
    3.8693   -0.7328    3.8749 H   0  0  0  0  0  0  0  0  0  0  0  0
    2.5432   -0.3231    4.8710 H   0  0  0  0  0  0  0  0  0  0  0  0
    4.1890   -1.0962    6.3577 H   0  0  0  0  0  0  0  0  0  0  0  0
    5.6186   -1.9140    4.4961 H   0  0  0  0  0  0  0  0  0  0  0  0
    5.7715   -2.7373    5.9916 H   0  0  0  0  0  0  0  0  0  0  0  0
    5.8983   -4.1272    3.9214 H   0  0  0  0  0  0  0  0  0  0  0  0
    4.8557   -7.0003    5.3862 H   0  0  0  0  0  0  0  0  0  0  0  0
    4.2175   -7.6358    2.9688 H   0  0  0  0  0  0  0  0  0  0  0  0
    3.3603   -7.5040    0.8784 H   0  0  0  0  0  0  0  0  0  0  0  0
    1.3466   -5.4224    1.7476 H   0  0  0  0  0  0  0  0  0  0  0  0
    1.5616   -6.0178    0.1092 H   0  0  0  0  0  0  0  0  0  0  0  0
   -0.3461   -6.9398    1.3287 H   0  0  0  0  0  0  0  0  0  0  0  0
    0.7532   -8.2202    0.9412 H   0  0  0  0  0  0  0  0  0  0  0  0
    0.7169   -6.6956    3.5598 H   0  0  0  0  0  0  0  0  0  0  0  0
   -2.5659   -8.0399    4.0891 H   0  0  0  0  0  0  0  0  0  0  0  0
   -2.0892   -7.5845    2.4626 H   0  0  0  0  0  0  0  0  0  0  0  0
   -1.6162   -6.5914    3.8413 H   0  0  0  0  0  0  0  0  0  0  0  0
   -1.6731  -10.1964    3.2523 H   0  0  0  0  0  0  0  0  0  0  0  0
   -0.0069  -10.6031    3.3973 H   0  0  0  0  0  0  0  0  0  0  0  0
   -0.5895   -9.8173    1.9452 H   0  0  0  0  0  0  0  0  0  0  0  0
   -0.2559   -7.6073    5.6618 H   0  0  0  0  0  0  0  0  0  0  0  0
   -1.0680   -9.1322    5.6566 H   0  0  0  0  0  0  0  0  0  0  0  0
    1.1829   -9.2828    6.6197 H   0  0  0  0  0  0  0  0  0  0  0  0
    1.0765  -10.3543    5.2589 H   0  0  0  0  0  0  0  0  0  0  0  0
    2.1520   -7.5112    5.3372 H   0  0  0  0  0  0  0  0  0  0  0  0
    3.4541  -10.0491    5.0799 H   0  0  0  0  0  0  0  0  0  0  0  0
    2.0534  -10.3833    3.0903 H   0  0  0  0  0  0  0  0  0  0  0  0
    3.6234   -9.7439    2.7383 H   0  0  0  0  0  0  0  0  0  0  0  0
    2.3210   -9.4971    1.5883 H   0  0  0  0  0  0  0  0  0  0  0  0
    5.5358   -7.0457    0.4644 H   0  0  0  0  0  0  0  0  0  0  0  0
    5.4583   -2.6045    2.3515 H   0  0  0  0  0  0  0  0  0  0  0  0
    5.0321   -3.9227   -1.3957 H   0  0  0  0  0  0  0  0  0  0  0  0
    5.3700   -1.6605   -2.9074 H   0  0  0  0  0  0  0  0  0  0  0  0
    5.9607   -0.3812    0.9230 H   0  0  0  0  0  0  0  0  0  0  0  0
    3.0508   -2.4738    0.7900 H   0  0  0  0  0  0  0  0  0  0  0  0
    1.9203   -3.5614    1.4255 H   0  0  0  0  0  0  0  0  0  0  0  0
    2.8449   -3.9936    0.0014 H   0  0  0  0  0  0  0  0  0  0  0  0
    2.0506   -1.1438    7.8323 H   0  0  0  0  0  0  0  0  0  0  0  0
    0.8633   -2.3976    7.5233 H   0  0  0  0  0  0  0  0  0  0  0  0
    1.2066   -1.2043    6.3226 H   0  0  0  0  0  0  0  0  0  0  0  0
    4.2308   -4.1490    7.4263 H   0  0  0  0  0  0  0  0  0  0  0  0
    3.3958   -2.0173    9.0125 H   0  0  0  0  0  0  0  0  0  0  0  0
    1.7880   -3.7357    9.1670 H   0  0  0  0  0  0  0  0  0  0  0  0
    2.9200   -4.9985    9.2045 H   0  0  0  0  0  0  0  0  0  0  0  0
  1  2  1  0
  1 49  1  0
  1 50  1  0
  1 51  1  0
  2  3  1  0
  3 48  1  0
  3  4  1  0
  3 52  1  1
  4  5  2  0
  4 53  1  0
  5 44  1  0
  5  6  1  0
  6 43  1  0
  6  7  1  0
  6 54  1  6
  7  8  1  0
  7  9  1  0
  7 55  1  6
  8 56  1  0
  8 57  1  0
  8 58  1  0
  9 10  1  0
  9 59  1  0
  9 60  1  0
 10 11  1  0
 10 44  1  0
 10 61  1  1
 11 12  1  0
 11 62  1  0
 11 63  1  0
 12 43  1  0
 12 13  1  0
 12 64  1  6
 13 14  1  0
 14 15  2  0
 14 65  1  0
 43 15  1  6
 15 16  1  0
 16 28  1  0
 16 17  1  0
 16 66  1  6
 17 18  1  0
 17 30  1  0
 17 67  1  6
 18 19  1  0
 18 68  1  0
 18 69  1  0
 19 20  1  0
 19 70  1  0
 19 71  1  0
 20 28  1  0
 20 21  1  0
 20 72  1  1
 21 22  1  0
 21 23  1  0
 21 24  1  0
 22 73  1  0
 22 74  1  0
 22 75  1  0
 23 76  1  0
 23 77  1  0
 23 78  1  0
 24 25  1  0
 24 79  1  0
 24 80  1  0
 25 26  1  0
 25 81  1  0
 25 82  1  0
 26 27  1  0
 26 28  1  0
 26 83  1  1
 27 84  1  0
 28 29  1  6
 29 85  1  0
 29 86  1  0
 29 87  1  0
 30 41  1  0
 30 31  2  0
 31 32  1  0
 31 88  1  0
 32 33  2  0
 32 34  1  0
 34 35  1  0
 35 36  1  0
 35 41  1  0
 35 89  1  1
 36 40  2  0
 36 37  1  0
 37 38  2  0
 37 90  1  0
 38 39  1  0
 38 91  1  0
 39 40  1  0
 40 92  1  0
 41 42  1  6
 41 43  1  0
 42 93  1  0
 42 94  1  0
 42 95  1  0
 44 45  1  1
 44 46  1  0
 45 96  1  0
 45 97  1  0
 45 98  1  0
 46 47  1  0
 46 48  1  0
 46 99  1  6
 47100  1  0
 48101  1  0
 48102  1  0
M  END
>  <i_m_ct_stereo_status>  (294) 
1

>  <s_m_source_file>  (294) 
/var/tmp/pbs.5076255.sched01/tmpbzpkhbzu/844yn2io63.sdf

>  <i_m_source_file_index>  (294) 
42

>  <i_lp_mmshare_version>  (294) 
48012

>  <i_f3d_flags>  (294) 
0

>  <s_epik_input>  (294) 
W0NIM11PW0NASF0oW0NIXT0xKVtDSDJdW0NASF0oW09IXSlbQ0BdKFtDSDNdKShDMVtDQEBIXTJbQ0BAXTM0NSlbQ0BIXShbQ0gyXVtDQEBIXTJbQ0gzXSlbQ0gyXVtDQEhdM09bQ0hdPUM0W0NAQEhdNltDQEhdKEM9N1tDQF01KFtDSDNdKVtDQEBIXShPQyg9TylbQ0hdNyljOFtjSF1bY0hdb1tjSF04KVtDSDJdW0NIMl1bQ0BASF05W0NAXTYoW0NIM10pW0NASF0oW09IXSlbQ0gyXVtDSDJdQzkoW0NIM10pW0NIM10=

>  <s_epik_cmdline>  (294) 
J2VwaWtfcHl0aG9uJywgJy1waHQnLCAnMi4wJywgJy1waCcsICc3LjAnLCAnLXRuJywgJzgnLCAnLW1hJywgJzIwMCcsICctaW1hZScsICc8aW5maWxlLm1hZT4nLCAnLW9tYWUnLCAnPG91dGZpbGUubWFlPic=

>  <r_lp_tautomer_probability>  (294) 
1

>  <r_epik_Ionization_Penalty>  (294) 
6.64605e-07

>  <r_epik_Ionization_Penalty_Charging>  (294) 
0

>  <r_epik_Ionization_Penalty_Neutral>  (294) 
6.64605e-07

>  <r_epik_State_Penalty>  (294) 
-0

>  <r_epik_Charging_Adjusted_Penalty>  (294) 
0

>  <i_epik_Tot_Q>  (294) 
0

>  <i_epik_Tot_abs_Q>  (294) 
0

>  <s_epik_Chemistry_Notes>  (294) 
This compound has an ester and may undergo hydrolysis at high or low pH.

>  <s_lp_Force_Field>  (294) 
OPLS3e

>  <r_lp_Energy>  (294) 
129.717

>  <b_lp_Chiralities_Consistent>  (294) 
1

>  <s_lp_Variant>  (294) 
90:0-1

>  <s_i_glide_gridfile>  (294) 
pfpi4k_grid

>  <i_i_glide_lignum>  (294) 
42

>  <i_i_glide_rotatable_bonds>  (294) 
4

>  <r_i_docking_score>  (294) 
-2.09636

>  <r_i_glide_ligand_efficiency>  (294) 
-0.0436742

>  <r_i_glide_ligand_efficiency_sa>  (294) 
-0.158723

>  <r_i_glide_ligand_efficiency_ln>  (294) 
-0.430359

>  <r_i_glide_gscore>  (294) 
-2.09636

>  <r_i_glide_lipo>  (294) 
-0.398261

>  <r_i_glide_hbond>  (294) 
-0.0319567

>  <r_i_glide_metal>  (294) 
-0

>  <r_i_glide_rewards>  (294) 
-0.140187

>  <r_i_glide_evdw>  (294) 
-30.1795

>  <r_i_glide_ecoul>  (294) 
-1.72015

>  <r_i_glide_erotb>  (294) 
0.0490013

>  <r_i_glide_esite>  (294) 
0

>  <r_i_glide_emodel>  (294) 
-31.1606

>  <r_i_glide_energy>  (294) 
-31.8997

>  <r_i_glide_einternal>  (294) 
1.00231

>  <r_i_glide_intrahb_reward>  (294) 
-0

>  <i_i_glide_confnum>  (294) 
2

>  <i_i_glide_posenum>  (294) 
7

>  <r_i_glide_eff_state_penalty>  (294) 
0

>  <ligand_id>  (294) 
90

>  <original_smiles>  (294) 
COC1C=C2C3C(C)CC(CC4OC=C5C6C(CCC7C(C)(C)CCC(O)C67C)C6=CC(=O)OC(c7ccoc7)C6(C)C543)C2(C)C(O)C1

>  <smiles>  (294) 
[H]OC1([H])C([H])([H])C([H])(OC([H])([H])[H])C([H])=C2C3([H])C([H])(C([H])([H])[H])C([H])([H])C([H])(C([H])([H])C4([H])OC([H])=C5C6([H])C([H])(C7=C([H])C(=O)OC([H])(c8c([H])oc([H])c8[H])C7(C([H])([H])[H])C543)C([H])([H])C([H])([H])C3([H])C(C([H])([H])[H])(C([H])([H])[H])C([H])([H])C([H])([H])C([H])(O[H])C63C([H])([H])[H])C21C([H])([H])[H]

$$$$
91:0:0
     RDKit          3D

 47 51  0  0  1  0  0  0  0  0999 V2000
    4.2414   -3.5717   -3.9207 C   0  0  0  0  0  0  0  0  0  0  0  0
    3.0657   -2.9955   -3.4129 C   0  0  0  0  0  0  0  0  0  0  0  0
    3.1501   -2.2973   -2.1998 C   0  0  0  0  0  0  0  0  0  0  0  0
    4.3884   -2.1980   -1.5299 C   0  0  0  0  0  0  0  0  0  0  0  0
    4.4946   -1.4934   -0.2628 C   0  0  0  0  0  0  0  0  0  0  0  0
    3.5075   -0.9490    0.4456 N   0  0  0  0  0  0  0  0  0  0  0  0
    4.1137   -0.3973    1.5529 C   0  0  0  0  0  0  0  0  0  0  0  0
    3.3163    0.3095    2.5973 C   0  0  0  0  0  0  0  0  0  0  0  0
    1.9582    0.6124    2.0787 N   0  0  0  0  0  0  0  0  0  0  0  0
    0.9869    1.2289    3.0159 C   0  0  1  0  0  0  0  0  0  0  0  0
    0.6871    0.2831    4.2119 C   0  0  0  0  0  0  0  0  0  0  0  0
   -0.3357    0.9341    5.1620 C   0  0  2  0  0  0  0  0  0  0  0  0
   -1.6519    1.1918    4.4115 C   0  0  0  0  0  0  0  0  0  0  0  0
   -1.3837    2.1306    3.2175 C   0  0  1  0  0  0  0  0  0  0  0  0
   -0.8362    3.4762    3.7311 C   0  0  0  0  0  0  0  0  0  0  0  0
    0.4767    3.2249    4.4979 C   0  0  1  0  0  0  0  0  0  0  0  0
    0.2335    2.2682    5.6861 C   0  0  0  0  0  0  0  0  0  0  0  0
    1.5103    2.5933    3.5463 C   0  0  0  0  0  0  0  0  0  0  0  0
   -0.3489    1.4811    2.2664 C   0  0  0  0  0  0  0  0  0  0  0  0
    5.4578   -0.6560    1.4791 C   0  0  0  0  0  0  0  0  0  0  0  0
    5.7184   -1.3397    0.3212 O   0  0  0  0  0  0  0  0  0  0  0  0
    5.5172   -2.7466   -2.0235 N   0  0  0  0  0  0  0  0  0  0  0  0
    5.4250   -3.4298   -3.1766 C   0  0  0  0  0  0  0  0  0  0  0  0
    4.2306   -4.1360   -4.8402 H   0  0  0  0  0  0  0  0  0  0  0  0
    2.1202   -3.0880   -3.9321 H   0  0  0  0  0  0  0  0  0  0  0  0
    2.2628   -1.8534   -1.7955 H   0  0  0  0  0  0  0  0  0  0  0  0
    3.2679   -0.3277    3.4778 H   0  0  0  0  0  0  0  0  0  0  0  0
    3.8162    1.2287    2.8951 H   0  0  0  0  0  0  0  0  0  0  0  0
    2.0523    1.2157    1.2747 H   0  0  0  0  0  0  0  0  0  0  0  0
    0.3089   -0.6752    3.8506 H   0  0  0  0  0  0  0  0  0  0  0  0
    1.5805    0.0677    4.7971 H   0  0  0  0  0  0  0  0  0  0  0  0
   -0.5217    0.2604    5.9987 H   0  0  0  0  0  0  0  0  0  0  0  0
   -2.0747    0.2471    4.0693 H   0  0  0  0  0  0  0  0  0  0  0  0
   -2.3858    1.6406    5.0782 H   0  0  0  0  0  0  0  0  0  0  0  0
   -2.3125    2.3024    2.6724 H   0  0  0  0  0  0  0  0  0  0  0  0
   -0.6544    4.1505    2.8919 H   0  0  0  0  0  0  0  0  0  0  0  0
   -1.5676    3.9606    4.3757 H   0  0  0  0  0  0  0  0  0  0  0  0
    0.8674    4.1723    4.8709 H   0  0  0  0  0  0  0  0  0  0  0  0
   -0.4515    2.7176    6.4042 H   0  0  0  0  0  0  0  0  0  0  0  0
    1.1678    2.0871    6.2201 H   0  0  0  0  0  0  0  0  0  0  0  0
    2.4428    2.4831    4.0995 H   0  0  0  0  0  0  0  0  0  0  0  0
    1.7163    3.2741    2.7174 H   0  0  0  0  0  0  0  0  0  0  0  0
   -0.1807    2.1313    1.4037 H   0  0  0  0  0  0  0  0  0  0  0  0
   -0.7503    0.5476    1.8645 H   0  0  0  0  0  0  0  0  0  0  0  0
    6.3103   -0.4354    2.1125 H   0  0  0  0  0  0  0  0  0  0  0  0
    6.3505   -3.8496   -3.5362 H   0  0  0  0  0  0  0  0  0  0  0  0
    1.5773   -0.2528    1.7190 H   0  0  0  0  0  0  0  0  0  0  0  0
  1 23  2  0
  1  2  1  0
  1 24  1  0
  2  3  2  0
  2 25  1  0
  3  4  1  0
  3 26  1  0
  4  5  1  0
  4 22  2  0
  5 21  1  0
  5  6  2  0
  6  7  1  0
  7  8  1  0
  7 20  2  0
  8  9  1  0
  8 27  1  0
  8 28  1  0
 10  9  1  6
  9 29  1  0
  9 47  1  0
 10 18  1  0
 10 19  1  0
 10 11  1  0
 11 12  1  0
 11 30  1  0
 11 31  1  0
 12 17  1  0
 12 13  1  0
 12 32  1  1
 13 14  1  0
 13 33  1  0
 13 34  1  0
 14 15  1  0
 14 19  1  0
 14 35  1  6
 15 16  1  0
 15 36  1  0
 15 37  1  0
 16 17  1  0
 16 18  1  0
 16 38  1  1
 17 39  1  0
 17 40  1  0
 18 41  1  0
 18 42  1  0
 19 43  1  0
 19 44  1  0
 20 21  1  0
 20 45  1  0
 22 23  1  0
 23 46  1  0
M  CHG  1   9   1
M  END
>  <i_m_ct_stereo_status>  (295) 
1

>  <s_m_source_file>  (295) 
/var/tmp/pbs.5076255.sched01/tmpzqmxgpmu/1265eqpa8lp.sdf

>  <i_m_source_file_index>  (295) 
1

>  <i_lp_mmshare_version>  (295) 
48012

>  <i_f3d_flags>  (295) 
0

>  <s_epik_input>  (295) 
bjFbY0hdW2NIXVtjSF1bY0hdYzEtYzJuYyhbY0hdbzIpW0NIMl1bTkhdQzM0W0NIMl1bQ0BASF01W0NIMl1bQ0BIXShbQ0gyXTQpW0NIMl1bQ0BASF0oW0NIMl01KVtDSDJdMw==

>  <s_epik_cmdline>  (295) 
J2VwaWtfcHl0aG9uJywgJy1waHQnLCAnMi4wJywgJy1waCcsICc3LjAnLCAnLXRuJywgJzgnLCAnLW1hJywgJzIwMCcsICctaW1hZScsICc8aW5maWxlLm1hZT4nLCAnLW9tYWUnLCAnPG91dGZpbGUubWFlPic=

>  <r_lp_tautomer_probability>  (295) 
1

>  <r_epik_Ionization_Penalty>  (295) 
0.00541349

>  <r_epik_Ionization_Penalty_Charging>  (295) 
0.000351682

>  <r_epik_Ionization_Penalty_Neutral>  (295) 
0.00506181

>  <r_epik_State_Penalty>  (295) 
-0

>  <r_epik_Charging_Adjusted_Penalty>  (295) 
0.000351682

>  <i_epik_Tot_Q>  (295) 
1

>  <i_epik_Tot_abs_Q>  (295) 
1

>  <s_lp_Force_Field>  (295) 
OPLS3e

>  <r_lp_Energy>  (295) 
23.3771

>  <b_lp_Chiralities_Consistent>  (295) 
1

>  <s_lp_Variant>  (295) 
91:0-1

>  <s_i_glide_gridfile>  (295) 
pfpi4k_grid

>  <i_i_glide_lignum>  (295) 
1

>  <i_i_glide_rotatable_bonds>  (295) 
4

>  <r_i_docking_score>  (295) 
-3.26352

>  <r_i_glide_ligand_efficiency>  (295) 
-0.141892

>  <r_i_glide_ligand_efficiency_sa>  (295) 
-0.403523

>  <r_i_glide_ligand_efficiency_ln>  (295) 
-0.789149

>  <r_i_glide_gscore>  (295) 
-3.26352

>  <r_i_glide_lipo>  (295) 
-0.616173

>  <r_i_glide_hbond>  (295) 
0

>  <r_i_glide_metal>  (295) 
-0

>  <r_i_glide_rewards>  (295) 
-1.29264

>  <r_i_glide_evdw>  (295) 
-30.0898

>  <r_i_glide_ecoul>  (295) 
-3.91262

>  <r_i_glide_erotb>  (295) 
0.769244

>  <r_i_glide_esite>  (295) 
-0.0325733

>  <r_i_glide_emodel>  (295) 
-40.4546

>  <r_i_glide_energy>  (295) 
-34.0024

>  <r_i_glide_einternal>  (295) 
2.24642

>  <r_i_glide_intrahb_reward>  (295) 
-0

>  <i_i_glide_confnum>  (295) 
1

>  <i_i_glide_posenum>  (295) 
1

>  <r_i_glide_eff_state_penalty>  (295) 
0

>  <ligand_id>  (295) 
91

>  <original_smiles>  (295) 
c1ccc(-c2nc(CNC34CC5CC(CC(C5)C3)C4)co2)nc1

>  <smiles>  (295) 
[H]c1nc(-c2nc(C([H])([H])[N+]([H])([H])C34C([H])([H])C5([H])C([H])([H])C([H])(C([H])([H])C([H])(C5([H])[H])C3([H])[H])C4([H])[H])c([H])o2)c([H])c([H])c1[H]

$$$$
91:0:1
     RDKit          3D

 47 51  0  0  1  0  0  0  0  0999 V2000
    4.5214   -3.5909   -3.8825 C   0  0  0  0  0  0  0  0  0  0  0  0
    3.3222   -3.0166   -3.4337 C   0  0  0  0  0  0  0  0  0  0  0  0
    3.3463   -2.2884   -2.2322 C   0  0  0  0  0  0  0  0  0  0  0  0
    4.5579   -2.1572   -1.5216 C   0  0  0  0  0  0  0  0  0  0  0  0
    4.6040   -1.4173   -0.2653 C   0  0  0  0  0  0  0  0  0  0  0  0
    3.6313   -0.7134    0.3079 N   0  0  0  0  0  0  0  0  0  0  0  0
    4.1686   -0.2346    1.4818 C   0  0  0  0  0  0  0  0  0  0  0  0
    3.3764    0.6302    2.4002 C   0  0  0  0  0  0  0  0  0  0  0  0
    2.0177    0.0709    2.5653 N   0  0  0  0  0  0  0  0  0  0  0  0
    1.0898    0.8020    3.4666 C   0  0  1  0  0  0  0  0  0  0  0  0
    1.6578    0.9046    4.9075 C   0  0  0  0  0  0  0  0  0  0  0  0
    0.6561    1.6329    5.8247 C   0  0  2  0  0  0  0  0  0  0  0  0
   -0.6668    0.8459    5.8896 C   0  0  0  0  0  0  0  0  0  0  0  0
   -1.2550    0.7395    4.4692 C   0  0  1  0  0  0  0  0  0  0  0  0
   -1.5381    2.1473    3.9083 C   0  0  0  0  0  0  0  0  0  0  0  0
   -0.2183    2.9403    3.8543 C   0  0  1  0  0  0  0  0  0  0  0  0
    0.3986    3.0485    5.2662 C   0  0  0  0  0  0  0  0  0  0  0  0
    0.7764    2.2199    2.9224 C   0  0  0  0  0  0  0  0  0  0  0  0
   -0.2429    0.0195    3.5485 C   0  0  0  0  0  0  0  0  0  0  0  0
    5.4529   -0.6927    1.5892 C   0  0  0  0  0  0  0  0  0  0  0  0
    5.7504   -1.4376    0.4768 O   0  0  0  0  0  0  0  0  0  0  0  0
    5.7093   -2.7131   -1.9528 N   0  0  0  0  0  0  0  0  0  0  0  0
    5.6755   -3.4189   -3.1013 C   0  0  0  0  0  0  0  0  0  0  0  0
    4.5536   -4.1717   -4.7943 H   0  0  0  0  0  0  0  0  0  0  0  0
    2.3994   -3.1330   -3.9870 H   0  0  0  0  0  0  0  0  0  0  0  0
    2.4383   -1.8540   -1.8593 H   0  0  0  0  0  0  0  0  0  0  0  0
    3.8940    0.7134    3.3547 H   0  0  0  0  0  0  0  0  0  0  0  0
    3.3150    1.6340    1.9871 H   0  0  0  0  0  0  0  0  0  0  0  0
    1.6107   -0.0025    1.6390 H   0  0  0  0  0  0  0  0  0  0  0  0
    1.8731   -0.0902    5.3026 H   0  0  0  0  0  0  0  0  0  0  0  0
    2.5924    1.4641    4.9361 H   0  0  0  0  0  0  0  0  0  0  0  0
    1.0823    1.7075    6.8255 H   0  0  0  0  0  0  0  0  0  0  0  0
   -0.4931   -0.1494    6.3000 H   0  0  0  0  0  0  0  0  0  0  0  0
   -1.3717    1.3442    6.5549 H   0  0  0  0  0  0  0  0  0  0  0  0
   -2.1862    0.1723    4.4999 H   0  0  0  0  0  0  0  0  0  0  0  0
   -1.9689    2.0731    2.9082 H   0  0  0  0  0  0  0  0  0  0  0  0
   -2.2742    2.6614    4.5254 H   0  0  0  0  0  0  0  0  0  0  0  0
   -0.4105    3.9398    3.4615 H   0  0  0  0  0  0  0  0  0  0  0  0
   -0.2587    3.6068    5.9318 H   0  0  0  0  0  0  0  0  0  0  0  0
    1.3357    3.6045    5.2203 H   0  0  0  0  0  0  0  0  0  0  0  0
    1.6714    2.8383    2.8524 H   0  0  0  0  0  0  0  0  0  0  0  0
    0.3638    2.1564    1.9126 H   0  0  0  0  0  0  0  0  0  0  0  0
   -0.6645   -0.0673    2.5469 H   0  0  0  0  0  0  0  0  0  0  0  0
   -0.0758   -0.9981    3.9111 H   0  0  0  0  0  0  0  0  0  0  0  0
    6.2399   -0.5748    2.3252 H   0  0  0  0  0  0  0  0  0  0  0  0
    6.6143   -3.8478   -3.4135 H   0  0  0  0  0  0  0  0  0  0  0  0
    2.1300   -0.8689    2.9105 H   0  0  0  0  0  0  0  0  0  0  0  0
  1 23  2  0
  1  2  1  0
  1 24  1  0
  2  3  2  0
  2 25  1  0
  3  4  1  0
  3 26  1  0
  4  5  1  0
  4 22  2  0
  5 21  1  0
  5  6  2  0
  6  7  1  0
  7  8  1  0
  7 20  2  0
  8  9  1  0
  8 27  1  0
  8 28  1  0
 10  9  1  6
  9 29  1  0
  9 47  1  0
 10 18  1  0
 10 19  1  0
 10 11  1  0
 11 12  1  0
 11 30  1  0
 11 31  1  0
 12 17  1  0
 12 13  1  0
 12 32  1  1
 13 14  1  0
 13 33  1  0
 13 34  1  0
 14 15  1  0
 14 19  1  0
 14 35  1  1
 15 16  1  0
 15 36  1  0
 15 37  1  0
 16 17  1  0
 16 18  1  0
 16 38  1  6
 17 39  1  0
 17 40  1  0
 18 41  1  0
 18 42  1  0
 19 43  1  0
 19 44  1  0
 20 21  1  0
 20 45  1  0
 22 23  1  0
 23 46  1  0
M  CHG  1   9   1
M  END
>  <i_m_ct_stereo_status>  (296) 
1

>  <s_m_source_file>  (296) 
/var/tmp/pbs.5076255.sched01/tmpzqmxgpmu/1265eqpa8lp.sdf

>  <i_m_source_file_index>  (296) 
1

>  <i_lp_mmshare_version>  (296) 
48012

>  <i_f3d_flags>  (296) 
0

>  <s_epik_input>  (296) 
bjFbY0hdW2NIXVtjSF1bY0hdYzEtYzJuYyhbY0hdbzIpW0NIMl1bTkhdQzM0W0NIMl1bQ0BASF01W0NIMl1bQ0BIXShbQ0gyXTQpW0NIMl1bQ0BASF0oW0NIMl01KVtDSDJdMw==

>  <s_epik_cmdline>  (296) 
J2VwaWtfcHl0aG9uJywgJy1waHQnLCAnMi4wJywgJy1waCcsICc3LjAnLCAnLXRuJywgJzgnLCAnLW1hJywgJzIwMCcsICctaW1hZScsICc8aW5maWxlLm1hZT4nLCAnLW9tYWUnLCAnPG91dGZpbGUubWFlPic=

>  <r_lp_tautomer_probability>  (296) 
1

>  <r_epik_Ionization_Penalty>  (296) 
0.00541349

>  <r_epik_Ionization_Penalty_Charging>  (296) 
0.000351682

>  <r_epik_Ionization_Penalty_Neutral>  (296) 
0.00506181

>  <r_epik_State_Penalty>  (296) 
-0

>  <r_epik_Charging_Adjusted_Penalty>  (296) 
0.000351682

>  <i_epik_Tot_Q>  (296) 
1

>  <i_epik_Tot_abs_Q>  (296) 
1

>  <s_lp_Force_Field>  (296) 
OPLS3e

>  <r_lp_Energy>  (296) 
23.3771

>  <b_lp_Chiralities_Consistent>  (296) 
1

>  <s_lp_Variant>  (296) 
91:0-1

>  <s_i_glide_gridfile>  (296) 
pfpi4k_grid

>  <i_i_glide_lignum>  (296) 
1

>  <i_i_glide_rotatable_bonds>  (296) 
4

>  <r_i_docking_score>  (296) 
-3.22647

>  <r_i_glide_ligand_efficiency>  (296) 
-0.140281

>  <r_i_glide_ligand_efficiency_sa>  (296) 
-0.398941

>  <r_i_glide_ligand_efficiency_ln>  (296) 
-0.780189

>  <r_i_glide_gscore>  (296) 
-3.22647

>  <r_i_glide_lipo>  (296) 
-0.665529

>  <r_i_glide_hbond>  (296) 
0

>  <r_i_glide_metal>  (296) 
-0

>  <r_i_glide_rewards>  (296) 
-1.29264

>  <r_i_glide_evdw>  (296) 
-27.2955

>  <r_i_glide_ecoul>  (296) 
-4.35259

>  <r_i_glide_erotb>  (296) 
0.769244

>  <r_i_glide_esite>  (296) 
-0.0198805

>  <r_i_glide_emodel>  (296) 
-38.5977

>  <r_i_glide_energy>  (296) 
-31.6481

>  <r_i_glide_einternal>  (296) 
1.25886

>  <r_i_glide_intrahb_reward>  (296) 
-0

>  <i_i_glide_confnum>  (296) 
1

>  <i_i_glide_posenum>  (296) 
21

>  <r_i_glide_eff_state_penalty>  (296) 
0

>  <ligand_id>  (296) 
91

>  <original_smiles>  (296) 
c1ccc(-c2nc(CNC34CC5CC(CC(C5)C3)C4)co2)nc1

>  <smiles>  (296) 
[H]c1nc(-c2nc(C([H])([H])[N+]([H])([H])C34C([H])([H])C5([H])C([H])([H])C([H])(C([H])([H])C([H])(C5([H])[H])C3([H])[H])C4([H])[H])c([H])o2)c([H])c([H])c1[H]

$$$$
91:0:2
     RDKit          3D

 47 51  0  0  1  0  0  0  0  0999 V2000
    3.6499   -0.8783   -3.3492 C   0  0  0  0  0  0  0  0  0  0  0  0
    2.8382   -2.0271   -3.3418 C   0  0  0  0  0  0  0  0  0  0  0  0
    3.0260   -2.9783   -2.3256 C   0  0  0  0  0  0  0  0  0  0  0  0
    4.0264   -2.7578   -1.3536 C   0  0  0  0  0  0  0  0  0  0  0  0
    4.2373   -3.7258   -0.2746 C   0  0  0  0  0  0  0  0  0  0  0  0
    3.4538   -4.7421    0.0890 N   0  0  0  0  0  0  0  0  0  0  0  0
    4.1230   -5.3652    1.1280 C   0  0  0  0  0  0  0  0  0  0  0  0
    3.5455   -6.5670    1.7996 C   0  0  0  0  0  0  0  0  0  0  0  0
    2.5613   -6.1322    2.8205 N   0  0  0  0  0  0  0  0  0  0  0  0
    1.5333   -7.1198    3.2402 C   0  0  1  0  0  0  0  0  0  0  0  0
    0.5678   -7.4557    2.0669 C   0  0  0  0  0  0  0  0  0  0  0  0
   -0.5020   -8.4629    2.5303 C   0  0  2  0  0  0  0  0  0  0  0  0
   -1.3356   -7.8519    3.6724 C   0  0  0  0  0  0  0  0  0  0  0  0
   -0.3985   -7.5092    4.8484 C   0  0  1  0  0  0  0  0  0  0  0  0
    0.2842   -8.7919    5.3624 C   0  0  0  0  0  0  0  0  0  0  0  0
    1.1090   -9.4190    4.2188 C   0  0  1  0  0  0  0  0  0  0  0  0
    0.1968   -9.7501    3.0177 C   0  0  0  0  0  0  0  0  0  0  0  0
    2.1946   -8.4218    3.7673 C   0  0  0  0  0  0  0  0  0  0  0  0
    0.6824   -6.5053    4.3870 C   0  0  0  0  0  0  0  0  0  0  0  0
    5.2902   -4.6841    1.3611 C   0  0  0  0  0  0  0  0  0  0  0  0
    5.3788   -3.6459    0.4706 O   0  0  0  0  0  0  0  0  0  0  0  0
    4.8290   -1.6693   -1.3814 N   0  0  0  0  0  0  0  0  0  0  0  0
    4.6166   -0.7432   -2.3404 C   0  0  0  0  0  0  0  0  0  0  0  0
    3.5174   -0.1078   -4.0955 H   0  0  0  0  0  0  0  0  0  0  0  0
    2.0712   -2.1654   -4.0904 H   0  0  0  0  0  0  0  0  0  0  0  0
    2.4032   -3.8550   -2.2889 H   0  0  0  0  0  0  0  0  0  0  0  0
    3.0824   -7.1833    1.0342 H   0  0  0  0  0  0  0  0  0  0  0  0
    4.3164   -7.1848    2.2677 H   0  0  0  0  0  0  0  0  0  0  0  0
    3.0715   -5.8348    3.6401 H   0  0  0  0  0  0  0  0  0  0  0  0
    0.0917   -6.5493    1.6922 H   0  0  0  0  0  0  0  0  0  0  0  0
    1.0846   -7.9070    1.2202 H   0  0  0  0  0  0  0  0  0  0  0  0
   -1.1535   -8.7025    1.6887 H   0  0  0  0  0  0  0  0  0  0  0  0
   -1.8528   -6.9578    3.3263 H   0  0  0  0  0  0  0  0  0  0  0  0
   -2.1067   -8.5530    3.9920 H   0  0  0  0  0  0  0  0  0  0  0  0
   -0.9778   -7.0551    5.6518 H   0  0  0  0  0  0  0  0  0  0  0  0
    0.9329   -8.5635    6.2089 H   0  0  0  0  0  0  0  0  0  0  0  0
   -0.4606   -9.4959    5.7296 H   0  0  0  0  0  0  0  0  0  0  0  0
    1.5822  -10.3354    4.5761 H   0  0  0  0  0  0  0  0  0  0  0  0
   -0.5416  -10.4996    3.2969 H   0  0  0  0  0  0  0  0  0  0  0  0
    0.7854  -10.1856    2.2083 H   0  0  0  0  0  0  0  0  0  0  0  0
    2.8019   -8.8986    2.9969 H   0  0  0  0  0  0  0  0  0  0  0  0
    2.8648   -8.2048    4.6014 H   0  0  0  0  0  0  0  0  0  0  0  0
    1.3147   -6.2361    5.2375 H   0  0  0  0  0  0  0  0  0  0  0  0
    0.2035   -5.5798    4.0605 H   0  0  0  0  0  0  0  0  0  0  0  0
    6.1114   -4.7966    2.0623 H   0  0  0  0  0  0  0  0  0  0  0  0
    5.2554    0.1289   -2.3202 H   0  0  0  0  0  0  0  0  0  0  0  0
    2.0866   -5.3215    2.4541 H   0  0  0  0  0  0  0  0  0  0  0  0
  1 23  2  0
  1  2  1  0
  1 24  1  0
  2  3  2  0
  2 25  1  0
  3  4  1  0
  3 26  1  0
  4  5  1  0
  4 22  2  0
  5 21  1  0
  5  6  2  0
  6  7  1  0
  7  8  1  0
  7 20  2  0
  8  9  1  0
  8 27  1  0
  8 28  1  0
 10  9  1  6
  9 29  1  0
  9 47  1  0
 10 18  1  0
 10 19  1  0
 10 11  1  0
 11 12  1  0
 11 30  1  0
 11 31  1  0
 12 17  1  0
 12 13  1  0
 12 32  1  6
 13 14  1  0
 13 33  1  0
 13 34  1  0
 14 15  1  0
 14 19  1  0
 14 35  1  1
 15 16  1  0
 15 36  1  0
 15 37  1  0
 16 17  1  0
 16 18  1  0
 16 38  1  1
 17 39  1  0
 17 40  1  0
 18 41  1  0
 18 42  1  0
 19 43  1  0
 19 44  1  0
 20 21  1  0
 20 45  1  0
 22 23  1  0
 23 46  1  0
M  CHG  1   9   1
M  END
>  <i_m_ct_stereo_status>  (297) 
1

>  <s_m_source_file>  (297) 
/var/tmp/pbs.5076255.sched01/tmpzqmxgpmu/1265eqpa8lp.sdf

>  <i_m_source_file_index>  (297) 
1

>  <i_lp_mmshare_version>  (297) 
48012

>  <i_f3d_flags>  (297) 
0

>  <s_epik_input>  (297) 
bjFbY0hdW2NIXVtjSF1bY0hdYzEtYzJuYyhbY0hdbzIpW0NIMl1bTkhdQzM0W0NIMl1bQ0BASF01W0NIMl1bQ0BIXShbQ0gyXTQpW0NIMl1bQ0BASF0oW0NIMl01KVtDSDJdMw==

>  <s_epik_cmdline>  (297) 
J2VwaWtfcHl0aG9uJywgJy1waHQnLCAnMi4wJywgJy1waCcsICc3LjAnLCAnLXRuJywgJzgnLCAnLW1hJywgJzIwMCcsICctaW1hZScsICc8aW5maWxlLm1hZT4nLCAnLW9tYWUnLCAnPG91dGZpbGUubWFlPic=

>  <r_lp_tautomer_probability>  (297) 
1

>  <r_epik_Ionization_Penalty>  (297) 
0.00541349

>  <r_epik_Ionization_Penalty_Charging>  (297) 
0.000351682

>  <r_epik_Ionization_Penalty_Neutral>  (297) 
0.00506181

>  <r_epik_State_Penalty>  (297) 
-0

>  <r_epik_Charging_Adjusted_Penalty>  (297) 
0.000351682

>  <i_epik_Tot_Q>  (297) 
1

>  <i_epik_Tot_abs_Q>  (297) 
1

>  <s_lp_Force_Field>  (297) 
OPLS3e

>  <r_lp_Energy>  (297) 
23.3771

>  <b_lp_Chiralities_Consistent>  (297) 
1

>  <s_lp_Variant>  (297) 
91:0-1

>  <s_i_glide_gridfile>  (297) 
pfpi4k_grid

>  <i_i_glide_lignum>  (297) 
1

>  <i_i_glide_rotatable_bonds>  (297) 
4

>  <r_i_docking_score>  (297) 
-2.78043

>  <r_i_glide_ligand_efficiency>  (297) 
-0.120888

>  <r_i_glide_ligand_efficiency_sa>  (297) 
-0.34379

>  <r_i_glide_ligand_efficiency_ln>  (297) 
-0.672333

>  <r_i_glide_gscore>  (297) 
-2.78043

>  <r_i_glide_lipo>  (297) 
-0.402276

>  <r_i_glide_hbond>  (297) 
0

>  <r_i_glide_metal>  (297) 
-0

>  <r_i_glide_rewards>  (297) 
-1.29264

>  <r_i_glide_evdw>  (297) 
-31.4259

>  <r_i_glide_ecoul>  (297) 
-1.86174

>  <r_i_glide_erotb>  (297) 
0.769244

>  <r_i_glide_esite>  (297) 
-0.00420416

>  <r_i_glide_emodel>  (297) 
-39.2695

>  <r_i_glide_energy>  (297) 
-33.2877

>  <r_i_glide_einternal>  (297) 
1.08083

>  <r_i_glide_intrahb_reward>  (297) 
-0

>  <i_i_glide_confnum>  (297) 
3

>  <i_i_glide_posenum>  (297) 
8

>  <r_i_glide_eff_state_penalty>  (297) 
0

>  <ligand_id>  (297) 
91

>  <original_smiles>  (297) 
c1ccc(-c2nc(CNC34CC5CC(CC(C5)C3)C4)co2)nc1

>  <smiles>  (297) 
[H]c1nc(-c2nc(C([H])([H])[N+]([H])([H])C34C([H])([H])C5([H])C([H])([H])C([H])(C([H])([H])C([H])(C5([H])[H])C3([H])[H])C4([H])[H])c([H])o2)c([H])c([H])c1[H]

$$$$
92:0:0
     RDKit          3D

 38 40  0  0  1  0  0  0  0  0999 V2000
    3.7600   -0.6664    0.4105 C   0  0  0  0  0  0  0  0  0  0  0  0
    4.4161   -2.0620    0.3210 C   0  0  1  0  0  0  0  0  0  0  0  0
    3.6189   -3.0224    1.2386 C   0  0  0  0  0  0  0  0  0  0  0  0
    4.2453   -4.4266    1.4516 C   0  0  1  0  0  0  0  0  0  0  0  0
    4.0101   -5.4461    0.3197 C   0  0  0  0  0  0  0  0  0  0  0  0
    2.6338   -5.6161    0.0818 O   0  0  0  0  0  0  0  0  0  0  0  0
    5.6773   -4.3436    1.8399 N   0  0  0  0  0  0  0  0  0  0  0  0
    6.5086   -3.3799    1.0707 C   0  0  1  0  0  0  0  0  0  0  0  0
    7.0844   -4.0106   -0.2173 C   0  0  0  0  0  0  0  0  0  0  0  0
    6.8711   -3.2330   -1.5256 C   0  0  0  0  0  0  0  0  0  0  0  0
    5.4379   -3.0240   -1.8875 C   0  0  0  0  0  0  0  0  0  0  0  0
    4.9311   -3.4763   -3.4945 S   0  0  0  0  0  0  0  0  0  0  0  0
    3.2966   -3.0354   -3.1533 C   0  0  0  0  0  0  0  0  0  0  0  0
    3.1640   -2.5713   -1.8754 C   0  0  0  0  0  0  0  0  0  0  0  0
    4.3865   -2.5416   -1.1289 C   0  0  0  0  0  0  0  0  0  0  0  0
    5.8128   -2.0001    0.9915 C   0  0  1  0  0  0  0  0  0  0  0  0
    6.6787   -0.9622    0.4674 N   0  0  0  0  0  0  0  0  0  0  0  0
    3.8244   -0.2504    1.4149 H   0  0  0  0  0  0  0  0  0  0  0  0
    2.7013   -0.7033    0.1584 H   0  0  0  0  0  0  0  0  0  0  0  0
    4.2302    0.0381   -0.2746 H   0  0  0  0  0  0  0  0  0  0  0  0
    3.5478   -2.5576    2.2245 H   0  0  0  0  0  0  0  0  0  0  0  0
    2.5828   -3.1177    0.9077 H   0  0  0  0  0  0  0  0  0  0  0  0
    3.7491   -4.8495    2.3215 H   0  0  0  0  0  0  0  0  0  0  0  0
    4.4592   -5.1423   -0.6215 H   0  0  0  0  0  0  0  0  0  0  0  0
    4.4448   -6.4136    0.5779 H   0  0  0  0  0  0  0  0  0  0  0  0
    2.5607   -5.8484   -0.8438 H   0  0  0  0  0  0  0  0  0  0  0  0
    5.7002   -4.0477    2.8038 H   0  0  0  0  0  0  0  0  0  0  0  0
    7.3967   -3.2289    1.6707 H   0  0  0  0  0  0  0  0  0  0  0  0
    8.1647   -4.1217   -0.0759 H   0  0  0  0  0  0  0  0  0  0  0  0
    6.7141   -5.0304   -0.3103 H   0  0  0  0  0  0  0  0  0  0  0  0
    7.4065   -2.2872   -1.5281 H   0  0  0  0  0  0  0  0  0  0  0  0
    7.3433   -3.7984   -2.3249 H   0  0  0  0  0  0  0  0  0  0  0  0
    2.5228   -3.1575   -3.8978 H   0  0  0  0  0  0  0  0  0  0  0  0
    2.2203   -2.2671   -1.4588 H   0  0  0  0  0  0  0  0  0  0  0  0
    5.6463   -1.6820    2.0275 H   0  0  0  0  0  0  0  0  0  0  0  0
    6.1740   -0.0864    0.5064 H   0  0  0  0  0  0  0  0  0  0  0  0
    7.4838   -0.8317    1.0642 H   0  0  0  0  0  0  0  0  0  0  0  0
    6.0877   -5.2608    1.7744 H   0  0  0  0  0  0  0  0  0  0  0  0
  2  1  1  6
  1 18  1  0
  1 19  1  0
  1 20  1  0
  2 15  1  0
  2 16  1  0
  2  3  1  0
  3  4  1  0
  3 21  1  0
  3 22  1  0
  4  5  1  0
  4  7  1  0
  4 23  1  1
  5  6  1  0
  5 24  1  0
  5 25  1  0
  6 26  1  0
  7  8  1  0
  7 27  1  0
  7 38  1  0
  8  9  1  0
  8 16  1  0
  8 28  1  1
  9 10  1  0
  9 29  1  0
  9 30  1  0
 10 11  1  0
 10 31  1  0
 10 32  1  0
 11 15  2  0
 11 12  1  0
 12 13  1  0
 13 14  2  0
 13 33  1  0
 14 15  1  0
 14 34  1  0
 16 17  1  0
 16 35  1  1
 17 36  1  0
 17 37  1  0
M  CHG  1   7   1
M  END
>  <i_m_ct_stereo_status>  (298) 
1

>  <s_m_source_file>  (298) 
/var/tmp/pbs.5076255.sched01/tmpzqmxgpmu/1265eqpa8lp.sdf

>  <i_m_source_file_index>  (298) 
2

>  <i_lp_mmshare_version>  (298) 
48012

>  <i_f3d_flags>  (298) 
0

>  <s_epik_input>  (298) 
W0NIM11bQ0BdMTJjM2Moc1tjSF1bY0hdMylbQ0gyXVtDSDJdW0NAQEhdKFtDQEhdMltOSDJdKVtOSF1bQ0BASF0oW0NIMl0xKVtDSDJdW09IXQ==

>  <s_epik_cmdline>  (298) 
J2VwaWtfcHl0aG9uJywgJy1waHQnLCAnMi4wJywgJy1waCcsICc3LjAnLCAnLXRuJywgJzgnLCAnLW1hJywgJzIwMCcsICctaW1hZScsICc8aW5maWxlLm1hZT4nLCAnLW9tYWUnLCAnPG91dGZpbGUubWFlPic=

>  <r_epik_Ionization_Penalty>  (298) 
0.0654371

>  <r_epik_Ionization_Penalty_Charging>  (298) 
0.00262758

>  <r_epik_Ionization_Penalty_Neutral>  (298) 
0.0628095

>  <r_epik_State_Penalty>  (298) 
0.306189

>  <r_epik_Charging_Adjusted_Penalty>  (298) 
0.308817

>  <i_epik_Tot_Q>  (298) 
1

>  <i_epik_Tot_abs_Q>  (298) 
1

>  <s_lp_Force_Field>  (298) 
OPLS3e

>  <r_lp_Energy>  (298) 
39.0656

>  <b_lp_Chiralities_Consistent>  (298) 
1

>  <s_lp_Variant>  (298) 
92:0-1

>  <s_i_glide_gridfile>  (298) 
pfpi4k_grid

>  <i_i_glide_lignum>  (298) 
2

>  <i_i_glide_rotatable_bonds>  (298) 
2

>  <r_i_docking_score>  (298) 
-4.66082

>  <r_i_glide_ligand_efficiency>  (298) 
-0.274166

>  <r_i_glide_ligand_efficiency_sa>  (298) 
-0.704957

>  <r_i_glide_ligand_efficiency_ln>  (298) 
-1.2159

>  <r_i_glide_gscore>  (298) 
-4.66082

>  <r_i_glide_lipo>  (298) 
-0.797327

>  <r_i_glide_hbond>  (298) 
-0.368577

>  <r_i_glide_metal>  (298) 
-0

>  <r_i_glide_rewards>  (298) 
-1.68147

>  <r_i_glide_evdw>  (298) 
-18.4676

>  <r_i_glide_ecoul>  (298) 
-7.75787

>  <r_i_glide_erotb>  (298) 
0.273614

>  <r_i_glide_esite>  (298) 
0

>  <r_i_glide_emodel>  (298) 
-33.0514

>  <r_i_glide_energy>  (298) 
-26.2254

>  <r_i_glide_einternal>  (298) 
0.969178

>  <r_i_glide_intrahb_reward>  (298) 
-0

>  <i_i_glide_confnum>  (298) 
3

>  <i_i_glide_posenum>  (298) 
39

>  <r_i_glide_eff_state_penalty>  (298) 
0

>  <ligand_id>  (298) 
92

>  <original_smiles>  (298) 
CC12CC(CO)NC(CCc3sccc31)C2N

>  <smiles>  (298) 
[H]OC([H])([H])C1([H])C([H])([H])C2(C([H])([H])[H])c3c(sc([H])c3[H])C([H])([H])C([H])([H])C([H])(C2([H])N([H])[H])[N+]1([H])[H]

$$$$
92:0:1
     RDKit          3D

 38 40  0  0  1  0  0  0  0  0999 V2000
    7.0350   -2.8706   -0.4742 C   0  0  0  0  0  0  0  0  0  0  0  0
    5.5980   -2.6126    0.0497 C   0  0  1  0  0  0  0  0  0  0  0  0
    5.7005   -1.6800    1.2906 C   0  0  0  0  0  0  0  0  0  0  0  0
    4.3796   -1.4758    2.0751 C   0  0  1  0  0  0  0  0  0  0  0  0
    3.3907   -0.4327    1.4945 C   0  0  0  0  0  0  0  0  0  0  0  0
    3.4063    0.7400    2.2700 O   0  0  0  0  0  0  0  0  0  0  0  0
    3.7151   -2.7636    2.3872 N   0  0  0  0  0  0  0  0  0  0  0  0
    3.6470   -3.7446    1.2844 C   0  0  1  0  0  0  0  0  0  0  0  0
    2.4190   -3.5035    0.3927 C   0  0  0  0  0  0  0  0  0  0  0  0
    2.6265   -3.3725   -1.1173 C   0  0  0  0  0  0  0  0  0  0  0  0
    3.5417   -2.3021   -1.5483 C   0  0  0  0  0  0  0  0  0  0  0  0
    3.0231   -1.3170   -2.8902 S   0  0  0  0  0  0  0  0  0  0  0  0
    4.4233   -0.3217   -2.7036 C   0  0  0  0  0  0  0  0  0  0  0  0
    5.2332   -0.7955   -1.7117 C   0  0  0  0  0  0  0  0  0  0  0  0
    4.7727   -1.9673   -1.0634 C   0  0  0  0  0  0  0  0  0  0  0  0
    5.0272   -3.9336    0.6237 C   0  0  1  0  0  0  0  0  0  0  0  0
    5.0636   -5.0529   -0.3017 N   0  0  0  0  0  0  0  0  0  0  0  0
    7.6307   -3.4232    0.2510 H   0  0  0  0  0  0  0  0  0  0  0  0
    7.5708   -1.9438   -0.6745 H   0  0  0  0  0  0  0  0  0  0  0  0
    7.0229   -3.4437   -1.4029 H   0  0  0  0  0  0  0  0  0  0  0  0
    6.4120   -2.1422    1.9803 H   0  0  0  0  0  0  0  0  0  0  0  0
    6.1474   -0.7161    1.0423 H   0  0  0  0  0  0  0  0  0  0  0  0
    4.6805   -1.1070    3.0561 H   0  0  0  0  0  0  0  0  0  0  0  0
    3.6271   -0.1707    0.4643 H   0  0  0  0  0  0  0  0  0  0  0  0
    2.3527   -0.7622    1.5200 H   0  0  0  0  0  0  0  0  0  0  0  0
    3.0302    1.4435    1.7573 H   0  0  0  0  0  0  0  0  0  0  0  0
    4.2352   -3.1960    3.1335 H   0  0  0  0  0  0  0  0  0  0  0  0
    3.4396   -4.6872    1.7892 H   0  0  0  0  0  0  0  0  0  0  0  0
    1.8268   -4.3988    0.5219 H   0  0  0  0  0  0  0  0  0  0  0  0
    1.8162   -2.6656    0.7275 H   0  0  0  0  0  0  0  0  0  0  0  0
    3.0225   -4.2808   -1.5218 H   0  0  0  0  0  0  0  0  0  0  0  0
    1.6612   -3.2305   -1.6032 H   0  0  0  0  0  0  0  0  0  0  0  0
    4.5315    0.5775   -3.2885 H   0  0  0  0  0  0  0  0  0  0  0  0
    6.1348   -0.3258   -1.3638 H   0  0  0  0  0  0  0  0  0  0  0  0
    5.7077   -4.2467    1.4203 H   0  0  0  0  0  0  0  0  0  0  0  0
    6.0002   -5.1655   -0.6643 H   0  0  0  0  0  0  0  0  0  0  0  0
    4.8179   -5.9223    0.1479 H   0  0  0  0  0  0  0  0  0  0  0  0
    2.7835   -2.5611    2.7133 H   0  0  0  0  0  0  0  0  0  0  0  0
  2  1  1  6
  1 18  1  0
  1 19  1  0
  1 20  1  0
  2 15  1  0
  2 16  1  0
  2  3  1  0
  3  4  1  0
  3 21  1  0
  3 22  1  0
  4  5  1  0
  4  7  1  0
  4 23  1  1
  5  6  1  0
  5 24  1  0
  5 25  1  0
  6 26  1  0
  7  8  1  0
  7 27  1  0
  7 38  1  0
  8  9  1  0
  8 16  1  0
  8 28  1  1
  9 10  1  0
  9 29  1  0
  9 30  1  0
 10 11  1  0
 10 31  1  0
 10 32  1  0
 11 15  2  0
 11 12  1  0
 12 13  1  0
 13 14  2  0
 13 33  1  0
 14 15  1  0
 14 34  1  0
 16 17  1  0
 16 35  1  1
 17 36  1  0
 17 37  1  0
M  CHG  1   7   1
M  END
>  <i_m_ct_stereo_status>  (299) 
1

>  <s_m_source_file>  (299) 
/var/tmp/pbs.5076255.sched01/tmpzqmxgpmu/1265eqpa8lp.sdf

>  <i_m_source_file_index>  (299) 
2

>  <i_lp_mmshare_version>  (299) 
48012

>  <i_f3d_flags>  (299) 
0

>  <s_epik_input>  (299) 
W0NIM11bQ0BdMTJjM2Moc1tjSF1bY0hdMylbQ0gyXVtDSDJdW0NAQEhdKFtDQEhdMltOSDJdKVtOSF1bQ0BASF0oW0NIMl0xKVtDSDJdW09IXQ==

>  <s_epik_cmdline>  (299) 
J2VwaWtfcHl0aG9uJywgJy1waHQnLCAnMi4wJywgJy1waCcsICc3LjAnLCAnLXRuJywgJzgnLCAnLW1hJywgJzIwMCcsICctaW1hZScsICc8aW5maWxlLm1hZT4nLCAnLW9tYWUnLCAnPG91dGZpbGUubWFlPic=

>  <r_epik_Ionization_Penalty>  (299) 
0.0654371

>  <r_epik_Ionization_Penalty_Charging>  (299) 
0.00262758

>  <r_epik_Ionization_Penalty_Neutral>  (299) 
0.0628095

>  <r_epik_State_Penalty>  (299) 
0.306189

>  <r_epik_Charging_Adjusted_Penalty>  (299) 
0.308817

>  <i_epik_Tot_Q>  (299) 
1

>  <i_epik_Tot_abs_Q>  (299) 
1

>  <s_lp_Force_Field>  (299) 
OPLS3e

>  <r_lp_Energy>  (299) 
39.0656

>  <b_lp_Chiralities_Consistent>  (299) 
1

>  <s_lp_Variant>  (299) 
92:0-1

>  <s_i_glide_gridfile>  (299) 
pfpi4k_grid

>  <i_i_glide_lignum>  (299) 
2

>  <i_i_glide_rotatable_bonds>  (299) 
2

>  <r_i_docking_score>  (299) 
-2.48823

>  <r_i_glide_ligand_efficiency>  (299) 
-0.146367

>  <r_i_glide_ligand_efficiency_sa>  (299) 
-0.37635

>  <r_i_glide_ligand_efficiency_ln>  (299) 
-0.649124

>  <r_i_glide_gscore>  (299) 
-2.48823

>  <r_i_glide_lipo>  (299) 
-0.393287

>  <r_i_glide_hbond>  (299) 
0

>  <r_i_glide_metal>  (299) 
-0

>  <r_i_glide_rewards>  (299) 
-1.68147

>  <r_i_glide_evdw>  (299) 
-13.319

>  <r_i_glide_ecoul>  (299) 
-0.140929

>  <r_i_glide_erotb>  (299) 
0.273614

>  <r_i_glide_esite>  (299) 
0

>  <r_i_glide_emodel>  (299) 
-14.9497

>  <r_i_glide_energy>  (299) 
-13.4599

>  <r_i_glide_einternal>  (299) 
3.01748

>  <r_i_glide_intrahb_reward>  (299) 
-0

>  <i_i_glide_confnum>  (299) 
3

>  <i_i_glide_posenum>  (299) 
2

>  <r_i_glide_eff_state_penalty>  (299) 
0

>  <ligand_id>  (299) 
92

>  <original_smiles>  (299) 
CC12CC(CO)NC(CCc3sccc31)C2N

>  <smiles>  (299) 
[H]OC([H])([H])C1([H])C([H])([H])C2(C([H])([H])[H])c3c(sc([H])c3[H])C([H])([H])C([H])([H])C([H])(C2([H])N([H])[H])[N+]1([H])[H]

$$$$
92:1:0
     RDKit          3D

 38 40  0  0  1  0  0  0  0  0999 V2000
    3.4902   -0.3900    1.0347 C   0  0  0  0  0  0  0  0  0  0  0  0
    3.9309   -1.8723    0.9991 C   0  0  1  0  0  0  0  0  0  0  0  0
    2.7009   -2.7340    1.4098 C   0  0  0  0  0  0  0  0  0  0  0  0
    2.9828   -4.2347    1.6652 C   0  0  1  0  0  0  0  0  0  0  0  0
    3.0841   -5.1174    0.4026 C   0  0  0  0  0  0  0  0  0  0  0  0
    1.8667   -5.1166   -0.3155 O   0  0  0  0  0  0  0  0  0  0  0  0
    4.1239   -4.3996    2.5859 N   0  0  0  0  0  0  0  0  0  0  0  0
    5.3329   -3.5878    2.3211 C   0  0  1  0  0  0  0  0  0  0  0  0
    6.2501   -4.2583    1.2698 C   0  0  0  0  0  0  0  0  0  0  0  0
    6.6835   -3.4187    0.0549 C   0  0  0  0  0  0  0  0  0  0  0  0
    5.5739   -2.8529   -0.7741 C   0  0  0  0  0  0  0  0  0  0  0  0
    5.6898   -3.0591   -2.5022 S   0  0  0  0  0  0  0  0  0  0  0  0
    4.1505   -2.3096   -2.7433 C   0  0  0  0  0  0  0  0  0  0  0  0
    3.5938   -1.9250   -1.5593 C   0  0  0  0  0  0  0  0  0  0  0  0
    4.4030   -2.2158   -0.4068 C   0  0  0  0  0  0  0  0  0  0  0  0
    4.9754   -2.0956    2.1162 C   0  0  1  0  0  0  0  0  0  0  0  0
    6.1549   -1.2226    2.0070 N   0  0  0  0  0  0  0  0  0  0  0  0
    3.2026   -0.0681    2.0364 H   0  0  0  0  0  0  0  0  0  0  0  0
    2.6132   -0.2295    0.4108 H   0  0  0  0  0  0  0  0  0  0  0  0
    4.2757    0.2830    0.6798 H   0  0  0  0  0  0  0  0  0  0  0  0
    2.2998   -2.3367    2.3434 H   0  0  0  0  0  0  0  0  0  0  0  0
    1.8826   -2.6150    0.7019 H   0  0  0  0  0  0  0  0  0  0  0  0
    2.1017   -4.6225    2.1795 H   0  0  0  0  0  0  0  0  0  0  0  0
    3.8691   -4.7990   -0.2734 H   0  0  0  0  0  0  0  0  0  0  0  0
    3.3270   -6.1462    0.6726 H   0  0  0  0  0  0  0  0  0  0  0  0
    2.0822   -5.4071   -1.1997 H   0  0  0  0  0  0  0  0  0  0  0  0
    3.8039   -4.2127    3.5289 H   0  0  0  0  0  0  0  0  0  0  0  0
    5.9028   -3.6152    3.2494 H   0  0  0  0  0  0  0  0  0  0  0  0
    7.1645   -4.5560    1.7849 H   0  0  0  0  0  0  0  0  0  0  0  0
    5.8124   -5.1997    0.9300 H   0  0  0  0  0  0  0  0  0  0  0  0
    7.3870   -2.6351    0.3255 H   0  0  0  0  0  0  0  0  0  0  0  0
    7.2780   -4.0735   -0.5804 H   0  0  0  0  0  0  0  0  0  0  0  0
    3.7297   -2.2125   -3.7333 H   0  0  0  0  0  0  0  0  0  0  0  0
    2.6230   -1.4660   -1.4916 H   0  0  0  0  0  0  0  0  0  0  0  0
    4.5108   -1.7782    3.0448 H   0  0  0  0  0  0  0  0  0  0  0  0
    6.6334   -1.4629    1.1587 H   0  0  0  0  0  0  0  0  0  0  0  0
    6.7585   -1.3636    2.7981 H   0  0  0  0  0  0  0  0  0  0  0  0
    5.8639   -0.2619    1.9609 H   0  0  0  0  0  0  0  0  0  0  0  0
  2  1  1  6
  1 18  1  0
  1 19  1  0
  1 20  1  0
  2 15  1  0
  2 16  1  0
  2  3  1  0
  3  4  1  0
  3 21  1  0
  3 22  1  0
  4  5  1  0
  4  7  1  0
  4 23  1  1
  5  6  1  0
  5 24  1  0
  5 25  1  0
  6 26  1  0
  7  8  1  0
  7 27  1  0
  8  9  1  0
  8 16  1  0
  8 28  1  1
  9 10  1  0
  9 29  1  0
  9 30  1  0
 10 11  1  0
 10 31  1  0
 10 32  1  0
 11 15  2  0
 11 12  1  0
 12 13  1  0
 13 14  2  0
 13 33  1  0
 14 15  1  0
 14 34  1  0
 16 17  1  0
 16 35  1  1
 17 36  1  0
 17 37  1  0
 17 38  1  0
M  CHG  1  17   1
M  END
>  <i_m_ct_stereo_status>  (300) 
1

>  <s_m_source_file>  (300) 
/var/tmp/pbs.5076255.sched01/tmpzqmxgpmu/1265eqpa8lp.sdf

>  <i_m_source_file_index>  (300) 
3

>  <i_lp_mmshare_version>  (300) 
48012

>  <i_f3d_flags>  (300) 
0

>  <s_epik_input>  (300) 
W0NIM11bQ0BdMTJjM2Moc1tjSF1bY0hdMylbQ0gyXVtDSDJdW0NAQEhdKFtDQEhdMltOSDJdKVtOSF1bQ0BASF0oW0NIMl0xKVtDSDJdW09IXQ==

>  <s_epik_cmdline>  (300) 
J2VwaWtfcHl0aG9uJywgJy1waHQnLCAnMi4wJywgJy1waCcsICc3LjAnLCAnLXRuJywgJzgnLCAnLW1hJywgJzIwMCcsICctaW1hZScsICc8aW5maWxlLm1hZT4nLCAnLW9tYWUnLCAnPG91dGZpbGUubWFlPic=

>  <r_epik_Ionization_Penalty>  (300) 
0.13803

>  <r_epik_Ionization_Penalty_Charging>  (300) 
0.00339378

>  <r_epik_Ionization_Penalty_Neutral>  (300) 
0.134636

>  <r_epik_State_Penalty>  (300) 
0.648006

>  <r_epik_Charging_Adjusted_Penalty>  (300) 
0.6514

>  <i_epik_Tot_Q>  (300) 
1

>  <i_epik_Tot_abs_Q>  (300) 
1

>  <s_lp_Force_Field>  (300) 
OPLS3e

>  <r_lp_Energy>  (300) 
41.8016

>  <b_lp_Chiralities_Consistent>  (300) 
1

>  <s_lp_Variant>  (300) 
92:0-2

>  <s_i_glide_gridfile>  (300) 
pfpi4k_grid

>  <i_i_glide_lignum>  (300) 
3

>  <i_i_glide_rotatable_bonds>  (300) 
2

>  <r_i_docking_score>  (300) 
-4.18627

>  <r_i_glide_ligand_efficiency>  (300) 
-0.246251

>  <r_i_glide_ligand_efficiency_sa>  (300) 
-0.633181

>  <r_i_glide_ligand_efficiency_ln>  (300) 
-1.0921

>  <r_i_glide_gscore>  (300) 
-4.18627

>  <r_i_glide_lipo>  (300) 
-0.618887

>  <r_i_glide_hbond>  (300) 
-0.355076

>  <r_i_glide_metal>  (300) 
-0

>  <r_i_glide_rewards>  (300) 
-1.68147

>  <r_i_glide_evdw>  (300) 
-17.1301

>  <r_i_glide_ecoul>  (300) 
-6.31964

>  <r_i_glide_erotb>  (300) 
0.273614

>  <r_i_glide_esite>  (300) 
0

>  <r_i_glide_emodel>  (300) 
-29.1518

>  <r_i_glide_energy>  (300) 
-23.4498

>  <r_i_glide_einternal>  (300) 
0.671152

>  <r_i_glide_intrahb_reward>  (300) 
-0

>  <i_i_glide_confnum>  (300) 
3

>  <i_i_glide_posenum>  (300) 
19

>  <r_i_glide_eff_state_penalty>  (300) 
0

>  <ligand_id>  (300) 
92

>  <original_smiles>  (300) 
CC12CC(CO)NC(CCc3sccc31)C2N

>  <smiles>  (300) 
[H]OC([H])([H])C1([H])N([H])C2([H])C([H])([H])C([H])([H])c3sc([H])c([H])c3C(C([H])([H])[H])(C1([H])[H])C2([H])[N+]([H])([H])[H]

$$$$
92:1:1
     RDKit          3D

 38 40  0  0  1  0  0  0  0  0999 V2000
    4.1996   -0.2957    0.8686 C   0  0  0  0  0  0  0  0  0  0  0  0
    4.2758   -1.7908    0.4994 C   0  0  1  0  0  0  0  0  0  0  0  0
    2.9985   -2.4701    1.0567 C   0  0  0  0  0  0  0  0  0  0  0  0
    2.9808   -4.0088    0.9670 C   0  0  1  0  0  0  0  0  0  0  0  0
    2.6295   -4.5835   -0.4429 C   0  0  0  0  0  0  0  0  0  0  0  0
    1.6312   -3.8486   -1.1245 O   0  0  0  0  0  0  0  0  0  0  0  0
    4.2006   -4.5970    1.5549 N   0  0  0  0  0  0  0  0  0  0  0  0
    5.4887   -3.9859    1.1457 C   0  0  1  0  0  0  0  0  0  0  0  0
    6.0178   -4.5781   -0.1907 C   0  0  0  0  0  0  0  0  0  0  0  0
    6.3266   -3.5807   -1.3337 C   0  0  0  0  0  0  0  0  0  0  0  0
    5.2138   -2.7079   -1.7526 C   0  0  0  0  0  0  0  0  0  0  0  0
    4.7807   -2.7540   -3.4489 S   0  0  0  0  0  0  0  0  0  0  0  0
    3.6070   -1.5263   -3.2173 C   0  0  0  0  0  0  0  0  0  0  0  0
    3.4064   -1.2937   -1.8954 C   0  0  0  0  0  0  0  0  0  0  0  0
    4.3518   -1.9329   -1.0139 C   0  0  0  0  0  0  0  0  0  0  0  0
    5.4374   -2.4373    1.2775 C   0  0  1  0  0  0  0  0  0  0  0  0
    6.7306   -1.8010    1.0152 N   0  0  0  0  0  0  0  0  0  0  0  0
    4.1898   -0.1493    1.9463 H   0  0  0  0  0  0  0  0  0  0  0  0
    3.2765    0.1464    0.4863 H   0  0  0  0  0  0  0  0  0  0  0  0
    5.0390    0.2644    0.4536 H   0  0  0  0  0  0  0  0  0  0  0  0
    2.9120   -2.2219    2.1182 H   0  0  0  0  0  0  0  0  0  0  0  0
    2.1088   -2.0459    0.5921 H   0  0  0  0  0  0  0  0  0  0  0  0
    2.1370   -4.3157    1.5870 H   0  0  0  0  0  0  0  0  0  0  0  0
    3.5023   -4.6129   -1.0976 H   0  0  0  0  0  0  0  0  0  0  0  0
    2.2952   -5.6202   -0.3308 H   0  0  0  0  0  0  0  0  0  0  0  0
    1.9554   -2.9621   -1.2526 H   0  0  0  0  0  0  0  0  0  0  0  0
    4.1280   -4.5560    2.5646 H   0  0  0  0  0  0  0  0  0  0  0  0
    6.2302   -4.3097    1.8803 H   0  0  0  0  0  0  0  0  0  0  0  0
    6.9409   -5.1144    0.0588 H   0  0  0  0  0  0  0  0  0  0  0  0
    5.3598   -5.3731   -0.5466 H   0  0  0  0  0  0  0  0  0  0  0  0
    7.2439   -3.0264   -1.1479 H   0  0  0  0  0  0  0  0  0  0  0  0
    6.5619   -4.1461   -2.2214 H   0  0  0  0  0  0  0  0  0  0  0  0
    3.0612   -1.1469   -4.0599 H   0  0  0  0  0  0  0  0  0  0  0  0
    2.6225   -0.6951   -1.5164 H   0  0  0  0  0  0  0  0  0  0  0  0
    5.2656   -2.2407    2.3343 H   0  0  0  0  0  0  0  0  0  0  0  0
    6.9693   -1.9492    0.0479 H   0  0  0  0  0  0  0  0  0  0  0  0
    7.4388   -2.2116    1.6050 H   0  0  0  0  0  0  0  0  0  0  0  0
    6.6812   -0.8119    1.2042 H   0  0  0  0  0  0  0  0  0  0  0  0
  2  1  1  6
  1 18  1  0
  1 19  1  0
  1 20  1  0
  2 15  1  0
  2 16  1  0
  2  3  1  0
  3  4  1  0
  3 21  1  0
  3 22  1  0
  4  5  1  0
  4  7  1  0
  4 23  1  1
  5  6  1  0
  5 24  1  0
  5 25  1  0
  6 26  1  0
  7  8  1  0
  7 27  1  0
  8  9  1  0
  8 16  1  0
  8 28  1  1
  9 10  1  0
  9 29  1  0
  9 30  1  0
 10 11  1  0
 10 31  1  0
 10 32  1  0
 11 15  2  0
 11 12  1  0
 12 13  1  0
 13 14  2  0
 13 33  1  0
 14 15  1  0
 14 34  1  0
 16 17  1  0
 16 35  1  1
 17 36  1  0
 17 37  1  0
 17 38  1  0
M  CHG  1  17   1
M  END
>  <i_m_ct_stereo_status>  (301) 
1

>  <s_m_source_file>  (301) 
/var/tmp/pbs.5076255.sched01/tmpzqmxgpmu/1265eqpa8lp.sdf

>  <i_m_source_file_index>  (301) 
3

>  <i_lp_mmshare_version>  (301) 
48012

>  <i_f3d_flags>  (301) 
0

>  <s_epik_input>  (301) 
W0NIM11bQ0BdMTJjM2Moc1tjSF1bY0hdMylbQ0gyXVtDSDJdW0NAQEhdKFtDQEhdMltOSDJdKVtOSF1bQ0BASF0oW0NIMl0xKVtDSDJdW09IXQ==

>  <s_epik_cmdline>  (301) 
J2VwaWtfcHl0aG9uJywgJy1waHQnLCAnMi4wJywgJy1waCcsICc3LjAnLCAnLXRuJywgJzgnLCAnLW1hJywgJzIwMCcsICctaW1hZScsICc8aW5maWxlLm1hZT4nLCAnLW9tYWUnLCAnPG91dGZpbGUubWFlPic=

>  <r_epik_Ionization_Penalty>  (301) 
0.13803

>  <r_epik_Ionization_Penalty_Charging>  (301) 
0.00339378

>  <r_epik_Ionization_Penalty_Neutral>  (301) 
0.134636

>  <r_epik_State_Penalty>  (301) 
0.648006

>  <r_epik_Charging_Adjusted_Penalty>  (301) 
0.6514

>  <i_epik_Tot_Q>  (301) 
1

>  <i_epik_Tot_abs_Q>  (301) 
1

>  <s_lp_Force_Field>  (301) 
OPLS3e

>  <r_lp_Energy>  (301) 
41.8016

>  <b_lp_Chiralities_Consistent>  (301) 
1

>  <s_lp_Variant>  (301) 
92:0-2

>  <s_i_glide_gridfile>  (301) 
pfpi4k_grid

>  <i_i_glide_lignum>  (301) 
3

>  <i_i_glide_rotatable_bonds>  (301) 
2

>  <r_i_docking_score>  (301) 
-3.20661

>  <r_i_glide_ligand_efficiency>  (301) 
-0.188624

>  <r_i_glide_ligand_efficiency_sa>  (301) 
-0.485005

>  <r_i_glide_ligand_efficiency_ln>  (301) 
-0.836533

>  <r_i_glide_gscore>  (301) 
-3.20661

>  <r_i_glide_lipo>  (301) 
-0.610617

>  <r_i_glide_hbond>  (301) 
-0.0388189

>  <r_i_glide_metal>  (301) 
-0

>  <r_i_glide_rewards>  (301) 
-1.68147

>  <r_i_glide_evdw>  (301) 
-13.3319

>  <r_i_glide_ecoul>  (301) 
-3.21815

>  <r_i_glide_erotb>  (301) 
0.273614

>  <r_i_glide_esite>  (301) 
0

>  <r_i_glide_emodel>  (301) 
-19.7372

>  <r_i_glide_energy>  (301) 
-16.5501

>  <r_i_glide_einternal>  (301) 
1.79291

>  <r_i_glide_intrahb_reward>  (301) 
-0

>  <i_i_glide_confnum>  (301) 
3

>  <i_i_glide_posenum>  (301) 
25

>  <r_i_glide_eff_state_penalty>  (301) 
0

>  <ligand_id>  (301) 
92

>  <original_smiles>  (301) 
CC12CC(CO)NC(CCc3sccc31)C2N

>  <smiles>  (301) 
[H]OC([H])([H])C1([H])N([H])C2([H])C([H])([H])C([H])([H])c3sc([H])c([H])c3C(C([H])([H])[H])(C1([H])[H])C2([H])[N+]([H])([H])[H]

$$$$
92:1:2
     RDKit          3D

 38 40  0  0  1  0  0  0  0  0999 V2000
    7.1479   -2.9846    0.5167 C   0  0  0  0  0  0  0  0  0  0  0  0
    5.6393   -2.8287    0.8361 C   0  0  1  0  0  0  0  0  0  0  0  0
    5.4970   -1.7164    1.9117 C   0  0  0  0  0  0  0  0  0  0  0  0
    4.0826   -1.5593    2.5294 C   0  0  1  0  0  0  0  0  0  0  0  0
    3.0645   -0.7623    1.6771 C   0  0  0  0  0  0  0  0  0  0  0  0
    3.5856    0.5130    1.3528 O   0  0  0  0  0  0  0  0  0  0  0  0
    3.5714   -2.8631    2.9970 N   0  0  0  0  0  0  0  0  0  0  0  0
    3.6972   -4.0069    2.0717 C   0  0  1  0  0  0  0  0  0  0  0  0
    2.5357   -4.0439    1.0475 C   0  0  0  0  0  0  0  0  0  0  0  0
    2.8876   -4.1168   -0.4484 C   0  0  0  0  0  0  0  0  0  0  0  0
    3.7573   -3.0235   -0.9696 C   0  0  0  0  0  0  0  0  0  0  0  0
    3.2729   -2.2661   -2.4646 S   0  0  0  0  0  0  0  0  0  0  0  0
    4.5759   -1.1376   -2.3629 C   0  0  0  0  0  0  0  0  0  0  0  0
    5.3400   -1.3567   -1.2512 C   0  0  0  0  0  0  0  0  0  0  0  0
    4.9000   -2.4516   -0.4422 C   0  0  0  0  0  0  0  0  0  0  0  0
    5.1404   -4.1244    1.5207 C   0  0  1  0  0  0  0  0  0  0  0  0
    5.3575   -5.3391    0.7154 N   0  0  0  0  0  0  0  0  0  0  0  0
    7.7070   -3.3368    1.3804 H   0  0  0  0  0  0  0  0  0  0  0  0
    7.6030   -2.0396    0.2169 H   0  0  0  0  0  0  0  0  0  0  0  0
    7.3205   -3.6960   -0.2911 H   0  0  0  0  0  0  0  0  0  0  0  0
    6.1651   -1.9579    2.7413 H   0  0  0  0  0  0  0  0  0  0  0  0
    5.8664   -0.7573    1.5432 H   0  0  0  0  0  0  0  0  0  0  0  0
    4.2209   -0.9372    3.4155 H   0  0  0  0  0  0  0  0  0  0  0  0
    2.8010   -1.2585    0.7505 H   0  0  0  0  0  0  0  0  0  0  0  0
    2.1345   -0.6290    2.2303 H   0  0  0  0  0  0  0  0  0  0  0  0
    3.7009    1.0231    2.1413 H   0  0  0  0  0  0  0  0  0  0  0  0
    4.0263   -3.0948    3.8755 H   0  0  0  0  0  0  0  0  0  0  0  0
    3.5501   -4.9043    2.6743 H   0  0  0  0  0  0  0  0  0  0  0  0
    1.9436   -4.9321    1.2717 H   0  0  0  0  0  0  0  0  0  0  0  0
    1.8555   -3.2079    1.2252 H   0  0  0  0  0  0  0  0  0  0  0  0
    3.3179   -5.0783   -0.7109 H   0  0  0  0  0  0  0  0  0  0  0  0
    1.9508   -4.0965   -1.0024 H   0  0  0  0  0  0  0  0  0  0  0  0
    4.6683   -0.3691   -3.1132 H   0  0  0  0  0  0  0  0  0  0  0  0
    6.1821   -0.7499   -0.9673 H   0  0  0  0  0  0  0  0  0  0  0  0
    5.7732   -4.2825    2.3912 H   0  0  0  0  0  0  0  0  0  0  0  0
    4.8044   -5.2682   -0.1279 H   0  0  0  0  0  0  0  0  0  0  0  0
    5.0766   -6.1561    1.2378 H   0  0  0  0  0  0  0  0  0  0  0  0
    6.3317   -5.4139    0.4643 H   0  0  0  0  0  0  0  0  0  0  0  0
  2  1  1  6
  1 18  1  0
  1 19  1  0
  1 20  1  0
  2 15  1  0
  2 16  1  0
  2  3  1  0
  3  4  1  0
  3 21  1  0
  3 22  1  0
  4  5  1  0
  4  7  1  0
  4 23  1  1
  5  6  1  0
  5 24  1  0
  5 25  1  0
  6 26  1  0
  7  8  1  0
  7 27  1  0
  8  9  1  0
  8 16  1  0
  8 28  1  1
  9 10  1  0
  9 29  1  0
  9 30  1  0
 10 11  1  0
 10 31  1  0
 10 32  1  0
 11 15  2  0
 11 12  1  0
 12 13  1  0
 13 14  2  0
 13 33  1  0
 14 15  1  0
 14 34  1  0
 16 17  1  0
 16 35  1  1
 17 36  1  0
 17 37  1  0
 17 38  1  0
M  CHG  1  17   1
M  END
>  <i_m_ct_stereo_status>  (302) 
1

>  <s_m_source_file>  (302) 
/var/tmp/pbs.5076255.sched01/tmpzqmxgpmu/1265eqpa8lp.sdf

>  <i_m_source_file_index>  (302) 
3

>  <i_lp_mmshare_version>  (302) 
48012

>  <i_f3d_flags>  (302) 
0

>  <s_epik_input>  (302) 
W0NIM11bQ0BdMTJjM2Moc1tjSF1bY0hdMylbQ0gyXVtDSDJdW0NAQEhdKFtDQEhdMltOSDJdKVtOSF1bQ0BASF0oW0NIMl0xKVtDSDJdW09IXQ==

>  <s_epik_cmdline>  (302) 
J2VwaWtfcHl0aG9uJywgJy1waHQnLCAnMi4wJywgJy1waCcsICc3LjAnLCAnLXRuJywgJzgnLCAnLW1hJywgJzIwMCcsICctaW1hZScsICc8aW5maWxlLm1hZT4nLCAnLW9tYWUnLCAnPG91dGZpbGUubWFlPic=

>  <r_epik_Ionization_Penalty>  (302) 
0.13803

>  <r_epik_Ionization_Penalty_Charging>  (302) 
0.00339378

>  <r_epik_Ionization_Penalty_Neutral>  (302) 
0.134636

>  <r_epik_State_Penalty>  (302) 
0.648006

>  <r_epik_Charging_Adjusted_Penalty>  (302) 
0.6514

>  <i_epik_Tot_Q>  (302) 
1

>  <i_epik_Tot_abs_Q>  (302) 
1

>  <s_lp_Force_Field>  (302) 
OPLS3e

>  <r_lp_Energy>  (302) 
41.8016

>  <b_lp_Chiralities_Consistent>  (302) 
1

>  <s_lp_Variant>  (302) 
92:0-2

>  <s_i_glide_gridfile>  (302) 
pfpi4k_grid

>  <i_i_glide_lignum>  (302) 
3

>  <i_i_glide_rotatable_bonds>  (302) 
2

>  <r_i_docking_score>  (302) 
-2.84351

>  <r_i_glide_ligand_efficiency>  (302) 
-0.167265

>  <r_i_glide_ligand_efficiency_sa>  (302) 
-0.430086

>  <r_i_glide_ligand_efficiency_ln>  (302) 
-0.741808

>  <r_i_glide_gscore>  (302) 
-2.84351

>  <r_i_glide_lipo>  (302) 
-0.324379

>  <r_i_glide_hbond>  (302) 
-0.00531193

>  <r_i_glide_metal>  (302) 
-0

>  <r_i_glide_rewards>  (302) 
-1.68147

>  <r_i_glide_evdw>  (302) 
-18.0783

>  <r_i_glide_ecoul>  (302) 
-1.34701

>  <r_i_glide_erotb>  (302) 
0.273614

>  <r_i_glide_esite>  (302) 
0

>  <r_i_glide_emodel>  (302) 
-23.465

>  <r_i_glide_energy>  (302) 
-19.4253

>  <r_i_glide_einternal>  (302) 
0.092026

>  <r_i_glide_intrahb_reward>  (302) 
-0

>  <i_i_glide_confnum>  (302) 
4

>  <i_i_glide_posenum>  (302) 
2

>  <r_i_glide_eff_state_penalty>  (302) 
0

>  <ligand_id>  (302) 
92

>  <original_smiles>  (302) 
CC12CC(CO)NC(CCc3sccc31)C2N

>  <smiles>  (302) 
[H]OC([H])([H])C1([H])N([H])C2([H])C([H])([H])C([H])([H])c3sc([H])c([H])c3C(C([H])([H])[H])(C1([H])[H])C2([H])[N+]([H])([H])[H]

$$$$
92:2:0
     RDKit          3D

 39 41  0  0  1  0  0  0  0  0999 V2000
    3.4597   -0.4171    1.0482 C   0  0  0  0  0  0  0  0  0  0  0  0
    3.9107   -1.8974    1.0208 C   0  0  1  0  0  0  0  0  0  0  0  0
    2.6800   -2.7768    1.3877 C   0  0  0  0  0  0  0  0  0  0  0  0
    2.9734   -4.2773    1.6346 C   0  0  1  0  0  0  0  0  0  0  0  0
    3.0954   -5.1583    0.3688 C   0  0  0  0  0  0  0  0  0  0  0  0
    1.8627   -5.2473   -0.3192 O   0  0  0  0  0  0  0  0  0  0  0  0
    4.1094   -4.4641    2.5722 N   0  0  0  0  0  0  0  0  0  0  0  0
    5.3087   -3.6108    2.3569 C   0  0  1  0  0  0  0  0  0  0  0  0
    6.2788   -4.2554    1.3341 C   0  0  0  0  0  0  0  0  0  0  0  0
    6.7248   -3.3926    0.1403 C   0  0  0  0  0  0  0  0  0  0  0  0
    5.6177   -2.8544   -0.7108 C   0  0  0  0  0  0  0  0  0  0  0  0
    5.7764   -3.0525   -2.4374 S   0  0  0  0  0  0  0  0  0  0  0  0
    4.2347   -2.3258   -2.7145 C   0  0  0  0  0  0  0  0  0  0  0  0
    3.6424   -1.9580   -1.5407 C   0  0  0  0  0  0  0  0  0  0  0  0
    4.4264   -2.2352   -0.3736 C   0  0  0  0  0  0  0  0  0  0  0  0
    4.9286   -2.1166    2.1639 C   0  0  1  0  0  0  0  0  0  0  0  0
    6.0895   -1.2063    2.0801 N   0  0  0  0  0  0  0  0  0  0  0  0
    3.1389   -0.1012    2.0416 H   0  0  0  0  0  0  0  0  0  0  0  0
    2.6132   -0.2634    0.3859 H   0  0  0  0  0  0  0  0  0  0  0  0
    4.2484    0.2597    0.7155 H   0  0  0  0  0  0  0  0  0  0  0  0
    2.2502   -2.3847    2.3125 H   0  0  0  0  0  0  0  0  0  0  0  0
    1.8887   -2.6693    0.6466 H   0  0  0  0  0  0  0  0  0  0  0  0
    2.1145   -4.6794    2.1757 H   0  0  0  0  0  0  0  0  0  0  0  0
    3.8321   -4.7780   -0.3336 H   0  0  0  0  0  0  0  0  0  0  0  0
    3.4210   -6.1677    0.6313 H   0  0  0  0  0  0  0  0  0  0  0  0
    2.0769   -5.4735   -1.2243 H   0  0  0  0  0  0  0  0  0  0  0  0
    3.7577   -4.2726    3.4993 H   0  0  0  0  0  0  0  0  0  0  0  0
    5.8178   -3.6645    3.3190 H   0  0  0  0  0  0  0  0  0  0  0  0
    7.1780   -4.5613    1.8721 H   0  0  0  0  0  0  0  0  0  0  0  0
    5.8604   -5.1894    0.9519 H   0  0  0  0  0  0  0  0  0  0  0  0
    7.3995   -2.5927    0.4437 H   0  0  0  0  0  0  0  0  0  0  0  0
    7.3560   -4.0289   -0.4800 H   0  0  0  0  0  0  0  0  0  0  0  0
    3.8451   -2.2264   -3.7130 H   0  0  0  0  0  0  0  0  0  0  0  0
    2.6621   -1.5087   -1.4998 H   0  0  0  0  0  0  0  0  0  0  0  0
    4.4357   -1.8124    3.0880 H   0  0  0  0  0  0  0  0  0  0  0  0
    6.6093   -1.3978    1.2354 H   0  0  0  0  0  0  0  0  0  0  0  0
    6.6933   -1.3141    2.8827 H   0  0  0  0  0  0  0  0  0  0  0  0
    4.3882   -5.4346    2.5493 H   0  0  0  0  0  0  0  0  0  0  0  0
    5.7545   -0.2559    2.0437 H   0  0  0  0  0  0  0  0  0  0  0  0
  2  1  1  6
  1 18  1  0
  1 19  1  0
  1 20  1  0
  2 15  1  0
  2 16  1  0
  2  3  1  0
  3  4  1  0
  3 21  1  0
  3 22  1  0
  4  5  1  0
  4  7  1  0
  4 23  1  1
  5  6  1  0
  5 24  1  0
  5 25  1  0
  6 26  1  0
  7  8  1  0
  7 27  1  0
  7 38  1  0
  8  9  1  0
  8 16  1  0
  8 28  1  1
  9 10  1  0
  9 29  1  0
  9 30  1  0
 10 11  1  0
 10 31  1  0
 10 32  1  0
 11 15  2  0
 11 12  1  0
 12 13  1  0
 13 14  2  0
 13 33  1  0
 14 15  1  0
 14 34  1  0
 16 17  1  0
 16 35  1  1
 17 36  1  0
 17 37  1  0
 17 39  1  0
M  CHG  2   7   1  17   1
M  END
>  <i_m_ct_stereo_status>  (303) 
1

>  <s_m_source_file>  (303) 
/var/tmp/pbs.5076255.sched01/tmpzqmxgpmu/1265eqpa8lp.sdf

>  <i_m_source_file_index>  (303) 
4

>  <i_lp_mmshare_version>  (303) 
48012

>  <i_f3d_flags>  (303) 
0

>  <s_epik_input>  (303) 
W0NIM11bQ0BdMTJjM2Moc1tjSF1bY0hdMylbQ0gyXVtDSDJdW0NAQEhdKFtDQEhdMltOSDJdKVtOSF1bQ0BASF0oW0NIMl0xKVtDSDJdW09IXQ==

>  <s_epik_cmdline>  (303) 
J2VwaWtfcHl0aG9uJywgJy1waHQnLCAnMi4wJywgJy1waCcsICc3LjAnLCAnLXRuJywgJzgnLCAnLW1hJywgJzIwMCcsICctaW1hZScsICc8aW5maWxlLm1hZT4nLCAnLW9tYWUnLCAnPG91dGZpbGUubWFlPic=

>  <r_epik_Ionization_Penalty>  (303) 
2.30476

>  <r_epik_Ionization_Penalty_Charging>  (303) 
2.30476

>  <r_epik_Ionization_Penalty_Neutral>  (303) 
3.06836e-06

>  <r_epik_State_Penalty>  (303) 
1.60144

>  <r_epik_Charging_Adjusted_Penalty>  (303) 
3.9062

>  <i_epik_Tot_Q>  (303) 
2

>  <i_epik_Tot_abs_Q>  (303) 
2

>  <s_lp_Force_Field>  (303) 
OPLS3e

>  <r_lp_Energy>  (303) 
49.2223

>  <b_lp_Chiralities_Consistent>  (303) 
1

>  <s_lp_Variant>  (303) 
92:0-3

>  <s_i_glide_gridfile>  (303) 
pfpi4k_grid

>  <i_i_glide_lignum>  (303) 
4

>  <i_i_glide_rotatable_bonds>  (303) 
2

>  <r_i_docking_score>  (303) 
-4.45112

>  <r_i_glide_ligand_efficiency>  (303) 
-0.261831

>  <r_i_glide_ligand_efficiency_sa>  (303) 
-0.673241

>  <r_i_glide_ligand_efficiency_ln>  (303) 
-1.1612

>  <r_i_glide_gscore>  (303) 
-4.45112

>  <r_i_glide_lipo>  (303) 
-0.610807

>  <r_i_glide_hbond>  (303) 
-0.354143

>  <r_i_glide_metal>  (303) 
-0

>  <r_i_glide_rewards>  (303) 
-1.6746

>  <r_i_glide_evdw>  (303) 
-16.7783

>  <r_i_glide_ecoul>  (303) 
-8.29611

>  <r_i_glide_erotb>  (303) 
0.271755

>  <r_i_glide_esite>  (303) 
0

>  <r_i_glide_emodel>  (303) 
-31.0097

>  <r_i_glide_energy>  (303) 
-25.0744

>  <r_i_glide_einternal>  (303) 
1.0448

>  <r_i_glide_intrahb_reward>  (303) 
-0

>  <i_i_glide_confnum>  (303) 
4

>  <i_i_glide_posenum>  (303) 
36

>  <r_i_glide_eff_state_penalty>  (303) 
0

>  <ligand_id>  (303) 
92

>  <original_smiles>  (303) 
CC12CC(CO)NC(CCc3sccc31)C2N

>  <smiles>  (303) 
[H]OC([H])([H])C1([H])C([H])([H])C2(C([H])([H])[H])c3c(sc([H])c3[H])C([H])([H])C([H])([H])C([H])(C2([H])[N+]([H])([H])[H])[N+]1([H])[H]

$$$$
92:2:1
     RDKit          3D

 39 41  0  0  1  0  0  0  0  0999 V2000
    4.2147   -0.3381    0.9401 C   0  0  0  0  0  0  0  0  0  0  0  0
    4.2680   -1.8300    0.5492 C   0  0  1  0  0  0  0  0  0  0  0  0
    2.9888   -2.5111    1.1000 C   0  0  0  0  0  0  0  0  0  0  0  0
    2.9337   -4.0533    0.9771 C   0  0  1  0  0  0  0  0  0  0  0  0
    2.5611   -4.6073   -0.4252 C   0  0  0  0  0  0  0  0  0  0  0  0
    1.5876   -3.8461   -1.1175 O   0  0  0  0  0  0  0  0  0  0  0  0
    4.1684   -4.6841    1.5229 N   0  0  0  0  0  0  0  0  0  0  0  0
    5.4660   -4.0594    1.1443 C   0  0  1  0  0  0  0  0  0  0  0  0
    5.9989   -4.6305   -0.1972 C   0  0  0  0  0  0  0  0  0  0  0  0
    6.3204   -3.6072   -1.3076 C   0  0  0  0  0  0  0  0  0  0  0  0
    5.2009   -2.7192   -1.7099 C   0  0  0  0  0  0  0  0  0  0  0  0
    4.8007   -2.6966   -3.4058 S   0  0  0  0  0  0  0  0  0  0  0  0
    3.6052   -1.4998   -3.1533 C   0  0  0  0  0  0  0  0  0  0  0  0
    3.4098   -1.2716   -1.8250 C   0  0  0  0  0  0  0  0  0  0  0  0
    4.3387   -1.9497   -0.9627 C   0  0  0  0  0  0  0  0  0  0  0  0
    5.4329   -2.5071    1.3162 C   0  0  1  0  0  0  0  0  0  0  0  0
    6.7347   -1.8557    1.0677 N   0  0  0  0  0  0  0  0  0  0  0  0
    4.2242   -0.2056    2.0221 H   0  0  0  0  0  0  0  0  0  0  0  0
    3.3040    0.1268    0.5694 H   0  0  0  0  0  0  0  0  0  0  0  0
    5.0563    0.2100    0.5174 H   0  0  0  0  0  0  0  0  0  0  0  0
    2.9019   -2.2752    2.1633 H   0  0  0  0  0  0  0  0  0  0  0  0
    2.1033   -2.0771    0.6448 H   0  0  0  0  0  0  0  0  0  0  0  0
    2.1318   -4.3764    1.6462 H   0  0  0  0  0  0  0  0  0  0  0  0
    3.4317   -4.6306   -1.0785 H   0  0  0  0  0  0  0  0  0  0  0  0
    2.1828   -5.6315   -0.3178 H   0  0  0  0  0  0  0  0  0  0  0  0
    1.8847   -2.9421   -1.1853 H   0  0  0  0  0  0  0  0  0  0  0  0
    4.0990   -4.6492    2.5284 H   0  0  0  0  0  0  0  0  0  0  0  0
    6.1652   -4.4301    1.9035 H   0  0  0  0  0  0  0  0  0  0  0  0
    6.9031   -5.1950    0.0420 H   0  0  0  0  0  0  0  0  0  0  0  0
    5.3224   -5.3925   -0.5940 H   0  0  0  0  0  0  0  0  0  0  0  0
    7.2399   -3.0569   -1.1011 H   0  0  0  0  0  0  0  0  0  0  0  0
    6.5699   -4.1522   -2.2109 H   0  0  0  0  0  0  0  0  0  0  0  0
    3.0575   -1.0842   -3.9841 H   0  0  0  0  0  0  0  0  0  0  0  0
    2.6189   -0.6526   -1.4447 H   0  0  0  0  0  0  0  0  0  0  0  0
    5.2587   -2.3346    2.3809 H   0  0  0  0  0  0  0  0  0  0  0  0
    6.9738   -1.9669    0.0929 H   0  0  0  0  0  0  0  0  0  0  0  0
    7.4507   -2.2736    1.6465 H   0  0  0  0  0  0  0  0  0  0  0  0
    4.1864   -5.6595    1.2602 H   0  0  0  0  0  0  0  0  0  0  0  0
    6.6664   -0.8692    1.2826 H   0  0  0  0  0  0  0  0  0  0  0  0
  2  1  1  6
  1 18  1  0
  1 19  1  0
  1 20  1  0
  2 15  1  0
  2 16  1  0
  2  3  1  0
  3  4  1  0
  3 21  1  0
  3 22  1  0
  4  5  1  0
  4  7  1  0
  4 23  1  1
  5  6  1  0
  5 24  1  0
  5 25  1  0
  6 26  1  0
  7  8  1  0
  7 27  1  0
  7 38  1  0
  8  9  1  0
  8 16  1  0
  8 28  1  1
  9 10  1  0
  9 29  1  0
  9 30  1  0
 10 11  1  0
 10 31  1  0
 10 32  1  0
 11 15  2  0
 11 12  1  0
 12 13  1  0
 13 14  2  0
 13 33  1  0
 14 15  1  0
 14 34  1  0
 16 17  1  0
 16 35  1  1
 17 36  1  0
 17 37  1  0
 17 39  1  0
M  CHG  2   7   1  17   1
M  END
>  <i_m_ct_stereo_status>  (304) 
1

>  <s_m_source_file>  (304) 
/var/tmp/pbs.5076255.sched01/tmpzqmxgpmu/1265eqpa8lp.sdf

>  <i_m_source_file_index>  (304) 
4

>  <i_lp_mmshare_version>  (304) 
48012

>  <i_f3d_flags>  (304) 
0

>  <s_epik_input>  (304) 
W0NIM11bQ0BdMTJjM2Moc1tjSF1bY0hdMylbQ0gyXVtDSDJdW0NAQEhdKFtDQEhdMltOSDJdKVtOSF1bQ0BASF0oW0NIMl0xKVtDSDJdW09IXQ==

>  <s_epik_cmdline>  (304) 
J2VwaWtfcHl0aG9uJywgJy1waHQnLCAnMi4wJywgJy1waCcsICc3LjAnLCAnLXRuJywgJzgnLCAnLW1hJywgJzIwMCcsICctaW1hZScsICc8aW5maWxlLm1hZT4nLCAnLW9tYWUnLCAnPG91dGZpbGUubWFlPic=

>  <r_epik_Ionization_Penalty>  (304) 
2.30476

>  <r_epik_Ionization_Penalty_Charging>  (304) 
2.30476

>  <r_epik_Ionization_Penalty_Neutral>  (304) 
3.06836e-06

>  <r_epik_State_Penalty>  (304) 
1.60144

>  <r_epik_Charging_Adjusted_Penalty>  (304) 
3.9062

>  <i_epik_Tot_Q>  (304) 
2

>  <i_epik_Tot_abs_Q>  (304) 
2

>  <s_lp_Force_Field>  (304) 
OPLS3e

>  <r_lp_Energy>  (304) 
49.2223

>  <b_lp_Chiralities_Consistent>  (304) 
1

>  <s_lp_Variant>  (304) 
92:0-3

>  <s_i_glide_gridfile>  (304) 
pfpi4k_grid

>  <i_i_glide_lignum>  (304) 
4

>  <i_i_glide_rotatable_bonds>  (304) 
2

>  <r_i_docking_score>  (304) 
-3.38999

>  <r_i_glide_ligand_efficiency>  (304) 
-0.199411

>  <r_i_glide_ligand_efficiency_sa>  (304) 
-0.512742

>  <r_i_glide_ligand_efficiency_ln>  (304) 
-0.884372

>  <r_i_glide_gscore>  (304) 
-3.38999

>  <r_i_glide_lipo>  (304) 
-0.562543

>  <r_i_glide_hbond>  (304) 
-0.0598951

>  <r_i_glide_metal>  (304) 
-0

>  <r_i_glide_rewards>  (304) 
-1.6746

>  <r_i_glide_evdw>  (304) 
-11.7377

>  <r_i_glide_ecoul>  (304) 
-5.18546

>  <r_i_glide_erotb>  (304) 
0.271755

>  <r_i_glide_esite>  (304) 
0

>  <r_i_glide_emodel>  (304) 
-20.5905

>  <r_i_glide_energy>  (304) 
-16.9232

>  <r_i_glide_einternal>  (304) 
1.77117

>  <r_i_glide_intrahb_reward>  (304) 
-0

>  <i_i_glide_confnum>  (304) 
4

>  <i_i_glide_posenum>  (304) 
2

>  <r_i_glide_eff_state_penalty>  (304) 
0

>  <ligand_id>  (304) 
92

>  <original_smiles>  (304) 
CC12CC(CO)NC(CCc3sccc31)C2N

>  <smiles>  (304) 
[H]OC([H])([H])C1([H])C([H])([H])C2(C([H])([H])[H])c3c(sc([H])c3[H])C([H])([H])C([H])([H])C([H])(C2([H])[N+]([H])([H])[H])[N+]1([H])[H]

$$$$
92:2:2
     RDKit          3D

 39 41  0  0  1  0  0  0  0  0999 V2000
    7.0947   -2.4087    0.0983 C   0  0  0  0  0  0  0  0  0  0  0  0
    5.5930   -2.3891    0.4863 C   0  0  1  0  0  0  0  0  0  0  0  0
    5.3763   -1.2017    1.4697 C   0  0  0  0  0  0  0  0  0  0  0  0
    3.9903   -1.1392    2.1526 C   0  0  1  0  0  0  0  0  0  0  0  0
    2.8577   -0.5476    1.2958 C   0  0  0  0  0  0  0  0  0  0  0  0
    1.6879   -0.4116    2.0762 O   0  0  0  0  0  0  0  0  0  0  0  0
    3.6093   -2.4456    2.7431 N   0  0  0  0  0  0  0  0  0  0  0  0
    3.8483   -3.6562    1.9132 C   0  0  1  0  0  0  0  0  0  0  0  0
    2.6533   -3.9368    0.9679 C   0  0  0  0  0  0  0  0  0  0  0  0
    2.9610   -4.1075   -0.5305 C   0  0  0  0  0  0  0  0  0  0  0  0
    3.6646   -2.9606   -1.1845 C   0  0  0  0  0  0  0  0  0  0  0  0
    3.0213   -2.3977   -2.7105 S   0  0  0  0  0  0  0  0  0  0  0  0
    4.1880   -1.1238   -2.7818 C   0  0  0  0  0  0  0  0  0  0  0  0
    5.0171   -1.1474   -1.6971 C   0  0  0  0  0  0  0  0  0  0  0  0
    4.7532   -2.2121   -0.7756 C   0  0  0  0  0  0  0  0  0  0  0  0
    5.2799   -3.6676    1.3063 C   0  0  1  0  0  0  0  0  0  0  0  0
    5.6182   -4.9200    0.5916 N   0  0  0  0  0  0  0  0  0  0  0  0
    7.7359   -2.6121    0.9556 H   0  0  0  0  0  0  0  0  0  0  0  0
    7.4214   -1.4543   -0.3065 H   0  0  0  0  0  0  0  0  0  0  0  0
    7.3062   -3.1678   -0.6556 H   0  0  0  0  0  0  0  0  0  0  0  0
    6.1145   -1.2863    2.2716 H   0  0  0  0  0  0  0  0  0  0  0  0
    5.5959   -0.2456    0.9905 H   0  0  0  0  0  0  0  0  0  0  0  0
    4.0946   -0.4538    2.9964 H   0  0  0  0  0  0  0  0  0  0  0  0
    3.1457    0.4310    0.9099 H   0  0  0  0  0  0  0  0  0  0  0  0
    2.6171   -1.1630    0.4362 H   0  0  0  0  0  0  0  0  0  0  0  0
    1.0065   -0.0994    1.4905 H   0  0  0  0  0  0  0  0  0  0  0  0
    4.1247   -2.5406    3.6037 H   0  0  0  0  0  0  0  0  0  0  0  0
    3.8285   -4.4696    2.6413 H   0  0  0  0  0  0  0  0  0  0  0  0
    2.1697   -4.8548    1.3072 H   0  0  0  0  0  0  0  0  0  0  0  0
    1.8900   -3.1659    1.0884 H   0  0  0  0  0  0  0  0  0  0  0  0
    3.4902   -5.0395   -0.7167 H   0  0  0  0  0  0  0  0  0  0  0  0
    2.0051   -4.2491   -1.0370 H   0  0  0  0  0  0  0  0  0  0  0  0
    4.1775   -0.4273   -3.6032 H   0  0  0  0  0  0  0  0  0  0  0  0
    5.8026   -0.4278   -1.5369 H   0  0  0  0  0  0  0  0  0  0  0  0
    5.9619   -3.6715    2.1567 H   0  0  0  0  0  0  0  0  0  0  0  0
    5.0414   -4.9970   -0.2351 H   0  0  0  0  0  0  0  0  0  0  0  0
    5.4736   -5.7254    1.1830 H   0  0  0  0  0  0  0  0  0  0  0  0
    2.6260   -2.3733    2.9690 H   0  0  0  0  0  0  0  0  0  0  0  0
    6.5865   -4.8889    0.3067 H   0  0  0  0  0  0  0  0  0  0  0  0
  2  1  1  6
  1 18  1  0
  1 19  1  0
  1 20  1  0
  2 15  1  0
  2 16  1  0
  2  3  1  0
  3  4  1  0
  3 21  1  0
  3 22  1  0
  4  5  1  0
  4  7  1  0
  4 23  1  1
  5  6  1  0
  5 24  1  0
  5 25  1  0
  6 26  1  0
  7  8  1  0
  7 27  1  0
  7 38  1  0
  8  9  1  0
  8 16  1  0
  8 28  1  1
  9 10  1  0
  9 29  1  0
  9 30  1  0
 10 11  1  0
 10 31  1  0
 10 32  1  0
 11 15  2  0
 11 12  1  0
 12 13  1  0
 13 14  2  0
 13 33  1  0
 14 15  1  0
 14 34  1  0
 16 17  1  0
 16 35  1  1
 17 36  1  0
 17 37  1  0
 17 39  1  0
M  CHG  2   7   1  17   1
M  END
>  <i_m_ct_stereo_status>  (305) 
1

>  <s_m_source_file>  (305) 
/var/tmp/pbs.5076255.sched01/tmpzqmxgpmu/1265eqpa8lp.sdf

>  <i_m_source_file_index>  (305) 
4

>  <i_lp_mmshare_version>  (305) 
48012

>  <i_f3d_flags>  (305) 
0

>  <s_epik_input>  (305) 
W0NIM11bQ0BdMTJjM2Moc1tjSF1bY0hdMylbQ0gyXVtDSDJdW0NAQEhdKFtDQEhdMltOSDJdKVtOSF1bQ0BASF0oW0NIMl0xKVtDSDJdW09IXQ==

>  <s_epik_cmdline>  (305) 
J2VwaWtfcHl0aG9uJywgJy1waHQnLCAnMi4wJywgJy1waCcsICc3LjAnLCAnLXRuJywgJzgnLCAnLW1hJywgJzIwMCcsICctaW1hZScsICc8aW5maWxlLm1hZT4nLCAnLW9tYWUnLCAnPG91dGZpbGUubWFlPic=

>  <r_epik_Ionization_Penalty>  (305) 
2.30476

>  <r_epik_Ionization_Penalty_Charging>  (305) 
2.30476

>  <r_epik_Ionization_Penalty_Neutral>  (305) 
3.06836e-06

>  <r_epik_State_Penalty>  (305) 
1.60144

>  <r_epik_Charging_Adjusted_Penalty>  (305) 
3.9062

>  <i_epik_Tot_Q>  (305) 
2

>  <i_epik_Tot_abs_Q>  (305) 
2

>  <s_lp_Force_Field>  (305) 
OPLS3e

>  <r_lp_Energy>  (305) 
49.2223

>  <b_lp_Chiralities_Consistent>  (305) 
1

>  <s_lp_Variant>  (305) 
92:0-3

>  <s_i_glide_gridfile>  (305) 
pfpi4k_grid

>  <i_i_glide_lignum>  (305) 
4

>  <i_i_glide_rotatable_bonds>  (305) 
2

>  <r_i_docking_score>  (305) 
-3.25754

>  <r_i_glide_ligand_efficiency>  (305) 
-0.19162

>  <r_i_glide_ligand_efficiency_sa>  (305) 
-0.49271

>  <r_i_glide_ligand_efficiency_ln>  (305) 
-0.849821

>  <r_i_glide_gscore>  (305) 
-3.25754

>  <r_i_glide_lipo>  (305) 
-0.275335

>  <r_i_glide_hbond>  (305) 
0

>  <r_i_glide_metal>  (305) 
-0

>  <r_i_glide_rewards>  (305) 
-1.6746

>  <r_i_glide_evdw>  (305) 
-20.1952

>  <r_i_glide_ecoul>  (305) 
-3.79737

>  <r_i_glide_erotb>  (305) 
0.271755

>  <r_i_glide_esite>  (305) 
0

>  <r_i_glide_emodel>  (305) 
-27.9632

>  <r_i_glide_energy>  (305) 
-23.9926

>  <r_i_glide_einternal>  (305) 
1.60336

>  <r_i_glide_intrahb_reward>  (305) 
-0

>  <i_i_glide_confnum>  (305) 
4

>  <i_i_glide_posenum>  (305) 
4

>  <r_i_glide_eff_state_penalty>  (305) 
0

>  <ligand_id>  (305) 
92

>  <original_smiles>  (305) 
CC12CC(CO)NC(CCc3sccc31)C2N

>  <smiles>  (305) 
[H]OC([H])([H])C1([H])C([H])([H])C2(C([H])([H])[H])c3c(sc([H])c3[H])C([H])([H])C([H])([H])C([H])(C2([H])[N+]([H])([H])[H])[N+]1([H])[H]

$$$$
93:0:0
     RDKit          3D

 20 21  0  0  1  0  0  0  0  0999 V2000
   -2.2380    3.0781    5.9474 C   0  0  0  0  0  0  0  0  0  0  0  0
   -1.7604    1.6246    5.9292 C   0  0  0  0  0  0  0  0  0  0  0  0
   -2.0374    0.8904    6.8781 O   0  0  0  0  0  0  0  0  0  0  0  0
   -0.9643    1.1694    4.7567 C   0  0  0  0  0  0  0  0  0  0  0  0
   -1.1633    1.7434    3.4817 C   0  0  0  0  0  0  0  0  0  0  0  0
   -0.4183    1.2928    2.3761 C   0  0  0  0  0  0  0  0  0  0  0  0
    0.5189    0.2622    2.5429 C   0  0  0  0  0  0  0  0  0  0  0  0
    1.3814   -0.3972    1.6874 N   0  0  0  0  0  0  0  0  0  0  0  0
    2.0132   -1.3272    2.4271 C   0  0  0  0  0  0  0  0  0  0  0  0
    1.6636   -1.3918    3.7081 N   0  0  0  0  0  0  0  0  0  0  0  0
    0.7178   -0.3708    3.8070 C   0  0  0  0  0  0  0  0  0  0  0  0
   -0.0458    0.0953    4.9056 C   0  0  0  0  0  0  0  0  0  0  0  0
    1.3936   -0.3466    0.6653 H   0  0  0  0  0  0  0  0  0  0  0  0
   -1.9103    3.6448    5.0783 H   0  0  0  0  0  0  0  0  0  0  0  0
   -1.8444    3.5924    6.8240 H   0  0  0  0  0  0  0  0  0  0  0  0
   -3.3278    3.1166    5.9863 H   0  0  0  0  0  0  0  0  0  0  0  0
   -1.8919    2.5244    3.3155 H   0  0  0  0  0  0  0  0  0  0  0  0
   -0.5675    1.7239    1.4018 H   0  0  0  0  0  0  0  0  0  0  0  0
    2.7187   -2.0155    1.9936 H   0  0  0  0  0  0  0  0  0  0  0  0
    0.1058   -0.3719    5.8710 H   0  0  0  0  0  0  0  0  0  0  0  0
  1  2  1  0
  1 14  1  0
  1 15  1  0
  1 16  1  0
  2  3  2  0
  2  4  1  0
  4 12  2  0
  4  5  1  0
  5  6  2  0
  5 17  1  0
  6  7  1  0
  6 18  1  0
  7 11  2  0
  7  8  1  0
  8 13  1  0
  8  9  1  0
  9 10  2  0
  9 19  1  0
 10 11  1  0
 11 12  1  0
 12 20  1  0
M  END
>  <i_m_ct_stereo_status>  (306) 
1

>  <s_m_source_file>  (306) 
/var/tmp/pbs.5076255.sched01/tmpzqmxgpmu/1265eqpa8lp.sdf

>  <i_m_source_file_index>  (306) 
5

>  <i_lp_mmshare_version>  (306) 
48012

>  <i_f3d_flags>  (306) 
0

>  <s_epik_input>  (306) 
W0NIM11DKD1PKWMoW2NIXVtjSF0xKVtjSF1jKGMxMiluW2NIXVtuSF0y

>  <s_epik_cmdline>  (306) 
J2VwaWtfcHl0aG9uJywgJy1waHQnLCAnMi4wJywgJy1waCcsICc3LjAnLCAnLXRuJywgJzgnLCAnLW1hJywgJzIwMCcsICctaW1hZScsICc8aW5maWxlLm1hZT4nLCAnLW9tYWUnLCAnPG91dGZpbGUubWFlPic=

>  <r_lp_tautomer_probability>  (306) 
0.99995

>  <r_epik_Ionization_Penalty>  (306) 
0.0168423

>  <r_epik_Ionization_Penalty_Charging>  (306) 
0

>  <r_epik_Ionization_Penalty_Neutral>  (306) 
0.0168423

>  <r_epik_State_Penalty>  (306) 
0.390945

>  <r_epik_Charging_Adjusted_Penalty>  (306) 
0.390945

>  <i_epik_Tot_Q>  (306) 
0

>  <i_epik_Tot_abs_Q>  (306) 
0

>  <s_lp_Force_Field>  (306) 
OPLS3e

>  <r_lp_Energy>  (306) 
12.7469

>  <b_lp_Chiralities_Consistent>  (306) 
1

>  <s_lp_Variant>  (306) 
93:0-1

>  <s_i_glide_gridfile>  (306) 
pfpi4k_grid

>  <i_i_glide_lignum>  (306) 
5

>  <i_i_glide_rotatable_bonds>  (306) 
1

>  <r_i_docking_score>  (306) 
-4.3584

>  <r_i_glide_ligand_efficiency>  (306) 
-0.3632

>  <r_i_glide_ligand_efficiency_sa>  (306) 
-0.831521

>  <r_i_glide_ligand_efficiency_ln>  (306) 
-1.25065

>  <r_i_glide_gscore>  (306) 
-4.3584

>  <r_i_glide_lipo>  (306) 
-0.0541959

>  <r_i_glide_hbond>  (306) 
-0.30278

>  <r_i_glide_metal>  (306) 
-0

>  <r_i_glide_rewards>  (306) 
-2.25

>  <r_i_glide_evdw>  (306) 
-12.1088

>  <r_i_glide_ecoul>  (306) 
-6.6501

>  <r_i_glide_erotb>  (306) 
0

>  <r_i_glide_esite>  (306) 
-0.148469

>  <r_i_glide_emodel>  (306) 
-24.596

>  <r_i_glide_energy>  (306) 
-18.7589

>  <r_i_glide_einternal>  (306) 
1.07679

>  <r_i_glide_intrahb_reward>  (306) 
-0

>  <i_i_glide_confnum>  (306) 
1

>  <i_i_glide_posenum>  (306) 
23

>  <r_i_glide_eff_state_penalty>  (306) 
0

>  <ligand_id>  (306) 
93

>  <original_smiles>  (306) 
CC(=O)c1ccc2[nH]cnc2c1

>  <smiles>  (306) 
[H]c1c(C(=O)C([H])([H])[H])c([H])c2nc([H])n([H])c2c1[H]

$$$$
93:0:1
     RDKit          3D

 20 21  0  0  1  0  0  0  0  0999 V2000
    0.4837   -2.7460    6.2558 C   0  0  0  0  0  0  0  0  0  0  0  0
   -0.5933   -1.8293    5.6766 C   0  0  0  0  0  0  0  0  0  0  0  0
   -1.7661   -2.0902    5.9464 O   0  0  0  0  0  0  0  0  0  0  0  0
   -0.2082   -0.6764    4.8139 C   0  0  0  0  0  0  0  0  0  0  0  0
   -1.2377    0.0023    4.1146 C   0  0  0  0  0  0  0  0  0  0  0  0
   -0.9398    1.1005    3.2862 C   0  0  0  0  0  0  0  0  0  0  0  0
    0.3880    1.5350    3.1739 C   0  0  0  0  0  0  0  0  0  0  0  0
    1.0152    2.5507    2.4780 N   0  0  0  0  0  0  0  0  0  0  0  0
    2.3182    2.4697    2.7885 C   0  0  0  0  0  0  0  0  0  0  0  0
    2.6690    1.4938    3.6220 N   0  0  0  0  0  0  0  0  0  0  0  0
    1.4487    0.8871    3.8729 C   0  0  0  0  0  0  0  0  0  0  0  0
    1.1300   -0.2187    4.6905 C   0  0  0  0  0  0  0  0  0  0  0  0
    0.6173    3.2392    1.8279 H   0  0  0  0  0  0  0  0  0  0  0  0
    1.5003   -2.4806    5.9769 H   0  0  0  0  0  0  0  0  0  0  0  0
    0.3101   -3.7661    5.9102 H   0  0  0  0  0  0  0  0  0  0  0  0
    0.4196   -2.7457    7.3454 H   0  0  0  0  0  0  0  0  0  0  0  0
   -2.2668   -0.3186    4.1936 H   0  0  0  0  0  0  0  0  0  0  0  0
   -1.7185    1.6044    2.7382 H   0  0  0  0  0  0  0  0  0  0  0  0
    3.0433    3.1549    2.3710 H   0  0  0  0  0  0  0  0  0  0  0  0
    1.9507   -0.6750    5.2219 H   0  0  0  0  0  0  0  0  0  0  0  0
  1  2  1  0
  1 14  1  0
  1 15  1  0
  1 16  1  0
  2  3  2  0
  2  4  1  0
  4 12  2  0
  4  5  1  0
  5  6  2  0
  5 17  1  0
  6  7  1  0
  6 18  1  0
  7 11  2  0
  7  8  1  0
  8 13  1  0
  8  9  1  0
  9 10  2  0
  9 19  1  0
 10 11  1  0
 11 12  1  0
 12 20  1  0
M  END
>  <i_m_ct_stereo_status>  (307) 
1

>  <s_m_source_file>  (307) 
/var/tmp/pbs.5076255.sched01/tmpzqmxgpmu/1265eqpa8lp.sdf

>  <i_m_source_file_index>  (307) 
5

>  <i_lp_mmshare_version>  (307) 
48012

>  <i_f3d_flags>  (307) 
0

>  <s_epik_input>  (307) 
W0NIM11DKD1PKWMoW2NIXVtjSF0xKVtjSF1jKGMxMiluW2NIXVtuSF0y

>  <s_epik_cmdline>  (307) 
J2VwaWtfcHl0aG9uJywgJy1waHQnLCAnMi4wJywgJy1waCcsICc3LjAnLCAnLXRuJywgJzgnLCAnLW1hJywgJzIwMCcsICctaW1hZScsICc8aW5maWxlLm1hZT4nLCAnLW9tYWUnLCAnPG91dGZpbGUubWFlPic=

>  <r_lp_tautomer_probability>  (307) 
0.99995

>  <r_epik_Ionization_Penalty>  (307) 
0.0168423

>  <r_epik_Ionization_Penalty_Charging>  (307) 
0

>  <r_epik_Ionization_Penalty_Neutral>  (307) 
0.0168423

>  <r_epik_State_Penalty>  (307) 
0.390945

>  <r_epik_Charging_Adjusted_Penalty>  (307) 
0.390945

>  <i_epik_Tot_Q>  (307) 
0

>  <i_epik_Tot_abs_Q>  (307) 
0

>  <s_lp_Force_Field>  (307) 
OPLS3e

>  <r_lp_Energy>  (307) 
12.7469

>  <b_lp_Chiralities_Consistent>  (307) 
1

>  <s_lp_Variant>  (307) 
93:0-1

>  <s_i_glide_gridfile>  (307) 
pfpi4k_grid

>  <i_i_glide_lignum>  (307) 
5

>  <i_i_glide_rotatable_bonds>  (307) 
1

>  <r_i_docking_score>  (307) 
-4.22556

>  <r_i_glide_ligand_efficiency>  (307) 
-0.35213

>  <r_i_glide_ligand_efficiency_sa>  (307) 
-0.806177

>  <r_i_glide_ligand_efficiency_ln>  (307) 
-1.21253

>  <r_i_glide_gscore>  (307) 
-4.22556

>  <r_i_glide_lipo>  (307) 
0

>  <r_i_glide_hbond>  (307) 
-0.16

>  <r_i_glide_metal>  (307) 
-0

>  <r_i_glide_rewards>  (307) 
-2.25

>  <r_i_glide_evdw>  (307) 
-10.6059

>  <r_i_glide_ecoul>  (307) 
-7.44734

>  <r_i_glide_erotb>  (307) 
0

>  <r_i_glide_esite>  (307) 
-0.168167

>  <r_i_glide_emodel>  (307) 
-24.4442

>  <r_i_glide_energy>  (307) 
-18.0532

>  <r_i_glide_einternal>  (307) 
0.0865231

>  <r_i_glide_intrahb_reward>  (307) 
-0

>  <i_i_glide_confnum>  (307) 
1

>  <i_i_glide_posenum>  (307) 
1

>  <r_i_glide_eff_state_penalty>  (307) 
0

>  <ligand_id>  (307) 
93

>  <original_smiles>  (307) 
CC(=O)c1ccc2[nH]cnc2c1

>  <smiles>  (307) 
[H]c1c(C(=O)C([H])([H])[H])c([H])c2nc([H])n([H])c2c1[H]

$$$$
93:0:2
     RDKit          3D

 20 21  0  0  1  0  0  0  0  0999 V2000
    1.6893   -5.7671    8.4154 C   0  0  0  0  0  0  0  0  0  0  0  0
    0.6657   -5.4772    7.3119 C   0  0  0  0  0  0  0  0  0  0  0  0
    0.1187   -4.3742    7.2895 O   0  0  0  0  0  0  0  0  0  0  0  0
    0.3908   -6.5371    6.3012 C   0  0  0  0  0  0  0  0  0  0  0  0
    0.6319   -7.9027    6.5851 C   0  0  0  0  0  0  0  0  0  0  0  0
    0.3502   -8.8976    5.6308 C   0  0  0  0  0  0  0  0  0  0  0  0
   -0.1842   -8.5274    4.3904 C   0  0  0  0  0  0  0  0  0  0  0  0
   -0.5673   -9.2281    3.2591 N   0  0  0  0  0  0  0  0  0  0  0  0
   -1.0171   -8.3250    2.3793 C   0  0  0  0  0  0  0  0  0  0  0  0
   -0.9913   -7.0594    2.7859 N   0  0  0  0  0  0  0  0  0  0  0  0
   -0.4611   -7.1699    4.0669 C   0  0  0  0  0  0  0  0  0  0  0  0
   -0.1728   -6.1815    5.0471 C   0  0  0  0  0  0  0  0  0  0  0  0
   -0.5473  -10.2298    3.1215 H   0  0  0  0  0  0  0  0  0  0  0  0
    2.1513   -6.7468    8.3310 H   0  0  0  0  0  0  0  0  0  0  0  0
    1.2224   -5.7030    9.3984 H   0  0  0  0  0  0  0  0  0  0  0  0
    2.5026   -5.0457    8.3721 H   0  0  0  0  0  0  0  0  0  0  0  0
    1.0182   -8.2321    7.5362 H   0  0  0  0  0  0  0  0  0  0  0  0
    0.5316   -9.9353    5.8524 H   0  0  0  0  0  0  0  0  0  0  0  0
   -1.3837   -8.6083    1.4001 H   0  0  0  0  0  0  0  0  0  0  0  0
   -0.3724   -5.1434    4.8273 H   0  0  0  0  0  0  0  0  0  0  0  0
  1  2  1  0
  1 14  1  0
  1 15  1  0
  1 16  1  0
  2  3  2  0
  2  4  1  0
  4 12  2  0
  4  5  1  0
  5  6  2  0
  5 17  1  0
  6  7  1  0
  6 18  1  0
  7 11  2  0
  7  8  1  0
  8 13  1  0
  8  9  1  0
  9 10  2  0
  9 19  1  0
 10 11  1  0
 11 12  1  0
 12 20  1  0
M  END
>  <i_m_ct_stereo_status>  (308) 
1

>  <s_m_source_file>  (308) 
/var/tmp/pbs.5076255.sched01/tmpzqmxgpmu/1265eqpa8lp.sdf

>  <i_m_source_file_index>  (308) 
5

>  <i_lp_mmshare_version>  (308) 
48012

>  <i_f3d_flags>  (308) 
0

>  <s_epik_input>  (308) 
W0NIM11DKD1PKWMoW2NIXVtjSF0xKVtjSF1jKGMxMiluW2NIXVtuSF0y

>  <s_epik_cmdline>  (308) 
J2VwaWtfcHl0aG9uJywgJy1waHQnLCAnMi4wJywgJy1waCcsICc3LjAnLCAnLXRuJywgJzgnLCAnLW1hJywgJzIwMCcsICctaW1hZScsICc8aW5maWxlLm1hZT4nLCAnLW9tYWUnLCAnPG91dGZpbGUubWFlPic=

>  <r_lp_tautomer_probability>  (308) 
0.99995

>  <r_epik_Ionization_Penalty>  (308) 
0.0168423

>  <r_epik_Ionization_Penalty_Charging>  (308) 
0

>  <r_epik_Ionization_Penalty_Neutral>  (308) 
0.0168423

>  <r_epik_State_Penalty>  (308) 
0.390945

>  <r_epik_Charging_Adjusted_Penalty>  (308) 
0.390945

>  <i_epik_Tot_Q>  (308) 
0

>  <i_epik_Tot_abs_Q>  (308) 
0

>  <s_lp_Force_Field>  (308) 
OPLS3e

>  <r_lp_Energy>  (308) 
12.7469

>  <b_lp_Chiralities_Consistent>  (308) 
1

>  <s_lp_Variant>  (308) 
93:0-1

>  <s_i_glide_gridfile>  (308) 
pfpi4k_grid

>  <i_i_glide_lignum>  (308) 
5

>  <i_i_glide_rotatable_bonds>  (308) 
1

>  <r_i_docking_score>  (308) 
-3.93524

>  <r_i_glide_ligand_efficiency>  (308) 
-0.327936

>  <r_i_glide_ligand_efficiency_sa>  (308) 
-0.750787

>  <r_i_glide_ligand_efficiency_ln>  (308) 
-1.12922

>  <r_i_glide_gscore>  (308) 
-3.93524

>  <r_i_glide_lipo>  (308) 
0

>  <r_i_glide_hbond>  (308) 
-0.16

>  <r_i_glide_metal>  (308) 
-0

>  <r_i_glide_rewards>  (308) 
-2.25

>  <r_i_glide_evdw>  (308) 
-13.8806

>  <r_i_glide_ecoul>  (308) 
-4.93915

>  <r_i_glide_erotb>  (308) 
0

>  <r_i_glide_esite>  (308) 
-0.0903361

>  <r_i_glide_emodel>  (308) 
-24.3581

>  <r_i_glide_energy>  (308) 
-18.8197

>  <r_i_glide_einternal>  (308) 
0.854283

>  <r_i_glide_intrahb_reward>  (308) 
-0

>  <i_i_glide_confnum>  (308) 
2

>  <i_i_glide_posenum>  (308) 
16

>  <r_i_glide_eff_state_penalty>  (308) 
0

>  <ligand_id>  (308) 
93

>  <original_smiles>  (308) 
CC(=O)c1ccc2[nH]cnc2c1

>  <smiles>  (308) 
[H]c1c(C(=O)C([H])([H])[H])c([H])c2nc([H])n([H])c2c1[H]

$$$$
93:1:0
     RDKit          3D

 20 21  0  0  1  0  0  0  0  0999 V2000
   -2.9630    3.0723    2.6862 C   0  0  0  0  0  0  0  0  0  0  0  0
   -1.7923    3.2207    3.6567 C   0  0  0  0  0  0  0  0  0  0  0  0
   -1.8295    4.1518    4.4616 O   0  0  0  0  0  0  0  0  0  0  0  0
   -0.6897    2.2126    3.6477 C   0  0  0  0  0  0  0  0  0  0  0  0
    0.1050    2.0837    4.8139 C   0  0  0  0  0  0  0  0  0  0  0  0
    1.1892    1.1808    4.8623 C   0  0  0  0  0  0  0  0  0  0  0  0
    1.5161    0.3900    3.7444 C   0  0  0  0  0  0  0  0  0  0  0  0
    2.5199   -0.5547    3.5704 N   0  0  0  0  0  0  0  0  0  0  0  0
    2.3082   -0.9434    2.3181 C   0  0  0  0  0  0  0  0  0  0  0  0
    1.2764   -0.3641    1.6780 N   0  0  0  0  0  0  0  0  0  0  0  0
    0.7151    0.5284    2.5717 C   0  0  0  0  0  0  0  0  0  0  0  0
   -0.3707    1.4286    2.5105 C   0  0  0  0  0  0  0  0  0  0  0  0
   -2.8726    2.2095    2.0276 H   0  0  0  0  0  0  0  0  0  0  0  0
   -3.0447    3.9723    2.0773 H   0  0  0  0  0  0  0  0  0  0  0  0
   -3.8887    2.9589    3.2522 H   0  0  0  0  0  0  0  0  0  0  0  0
   -0.1096    2.6849    5.6871 H   0  0  0  0  0  0  0  0  0  0  0  0
    1.7794    1.0871    5.7590 H   0  0  0  0  0  0  0  0  0  0  0  0
    2.9282   -1.6835    1.8350 H   0  0  0  0  0  0  0  0  0  0  0  0
   -0.9143    1.5213    1.5819 H   0  0  0  0  0  0  0  0  0  0  0  0
    1.0201   -0.5513    0.6928 H   0  0  0  0  0  0  0  0  0  0  0  0
  1  2  1  0
  1 13  1  0
  1 14  1  0
  1 15  1  0
  2  3  2  0
  2  4  1  0
  4 12  2  0
  4  5  1  0
  5  6  2  0
  5 16  1  0
  6  7  1  0
  6 17  1  0
  7 11  2  0
  7  8  1  0
  8  9  2  0
  9 10  1  0
  9 18  1  0
 10 11  1  0
 10 20  1  0
 11 12  1  0
 12 19  1  0
M  END
>  <i_m_ct_stereo_status>  (309) 
1

>  <s_m_source_file>  (309) 
/var/tmp/pbs.5076255.sched01/tmpzqmxgpmu/1265eqpa8lp.sdf

>  <i_m_source_file_index>  (309) 
6

>  <i_lp_mmshare_version>  (309) 
48012

>  <i_f3d_flags>  (309) 
0

>  <s_epik_input>  (309) 
W0NIM11DKD1PKWMoW2NIXVtjSF0xKVtjSF1jKGMxMiluW2NIXVtuSF0y

>  <s_epik_cmdline>  (309) 
J2VwaWtfcHl0aG9uJywgJy1waHQnLCAnMi4wJywgJy1waCcsICc3LjAnLCAnLXRuJywgJzgnLCAnLW1hJywgJzIwMCcsICctaW1hZScsICc8aW5maWxlLm1hZT4nLCAnLW9tYWUnLCAnPG91dGZpbGUubWFlPic=

>  <r_epik_Ionization_Penalty>  (309) 
0.0183422

>  <r_epik_Ionization_Penalty_Charging>  (309) 
0

>  <r_epik_Ionization_Penalty_Neutral>  (309) 
0.0183422

>  <r_epik_State_Penalty>  (309) 
0.445678

>  <r_epik_Charging_Adjusted_Penalty>  (309) 
0.445678

>  <i_epik_Tot_Q>  (309) 
0

>  <i_epik_Tot_abs_Q>  (309) 
0

>  <s_lp_Force_Field>  (309) 
OPLS3e

>  <r_lp_Energy>  (309) 
13.5652

>  <b_lp_Chiralities_Consistent>  (309) 
1

>  <s_lp_Variant>  (309) 
93:0-2

>  <s_i_glide_gridfile>  (309) 
pfpi4k_grid

>  <i_i_glide_lignum>  (309) 
6

>  <i_i_glide_rotatable_bonds>  (309) 
1

>  <r_i_docking_score>  (309) 
-4.39422

>  <r_i_glide_ligand_efficiency>  (309) 
-0.366185

>  <r_i_glide_ligand_efficiency_sa>  (309) 
-0.838355

>  <r_i_glide_ligand_efficiency_ln>  (309) 
-1.26093

>  <r_i_glide_gscore>  (309) 
-4.39422

>  <r_i_glide_lipo>  (309) 
0

>  <r_i_glide_hbond>  (309) 
-0.188677

>  <r_i_glide_metal>  (309) 
-0

>  <r_i_glide_rewards>  (309) 
-2.25

>  <r_i_glide_evdw>  (309) 
-11.9104

>  <r_i_glide_ecoul>  (309) 
-7.88349

>  <r_i_glide_erotb>  (309) 
0

>  <r_i_glide_esite>  (309) 
-0.177502

>  <r_i_glide_emodel>  (309) 
-26.5189

>  <r_i_glide_energy>  (309) 
-19.7939

>  <r_i_glide_einternal>  (309) 
0.451116

>  <r_i_glide_intrahb_reward>  (309) 
-0

>  <i_i_glide_confnum>  (309) 
1

>  <i_i_glide_posenum>  (309) 
32

>  <r_i_glide_eff_state_penalty>  (309) 
0

>  <ligand_id>  (309) 
93

>  <original_smiles>  (309) 
CC(=O)c1ccc2[nH]cnc2c1

>  <smiles>  (309) 
[H]c1c(C(=O)C([H])([H])[H])c([H])c2c(nc([H])n2[H])c1[H]

$$$$
93:1:1
     RDKit          3D

 20 21  0  0  1  0  0  0  0  0999 V2000
   -3.0109    3.2337    2.8950 C   0  0  0  0  0  0  0  0  0  0  0  0
   -1.6335    3.4659    3.5161 C   0  0  0  0  0  0  0  0  0  0  0  0
   -1.3945    4.5529    4.0363 O   0  0  0  0  0  0  0  0  0  0  0  0
   -0.6495    2.3553    3.4602 C   0  0  0  0  0  0  0  0  0  0  0  0
   -1.0610    1.0243    3.6933 C   0  0  0  0  0  0  0  0  0  0  0  0
   -0.1165   -0.0245    3.6822 C   0  0  0  0  0  0  0  0  0  0  0  0
    1.2477    0.2312    3.4377 C   0  0  0  0  0  0  0  0  0  0  0  0
    2.3268   -0.6381    3.3717 N   0  0  0  0  0  0  0  0  0  0  0  0
    3.3324    0.1923    3.1043 C   0  0  0  0  0  0  0  0  0  0  0  0
    3.0126    1.4934    3.0007 N   0  0  0  0  0  0  0  0  0  0  0  0
    1.6448    1.5835    3.2172 C   0  0  0  0  0  0  0  0  0  0  0  0
    0.7158    2.6342    3.2511 C   0  0  0  0  0  0  0  0  0  0  0  0
   -3.0763    2.2484    2.4363 H   0  0  0  0  0  0  0  0  0  0  0  0
   -3.2088    3.9731    2.1184 H   0  0  0  0  0  0  0  0  0  0  0  0
   -3.7866    3.3159    3.6566 H   0  0  0  0  0  0  0  0  0  0  0  0
   -2.1000    0.8121    3.8971 H   0  0  0  0  0  0  0  0  0  0  0  0
   -0.4254   -1.0416    3.8636 H   0  0  0  0  0  0  0  0  0  0  0  0
    4.3490   -0.1661    2.9844 H   0  0  0  0  0  0  0  0  0  0  0  0
    1.0364    3.6475    3.0617 H   0  0  0  0  0  0  0  0  0  0  0  0
    3.6738    2.2286    2.7807 H   0  0  0  0  0  0  0  0  0  0  0  0
  1  2  1  0
  1 13  1  0
  1 14  1  0
  1 15  1  0
  2  3  2  0
  2  4  1  0
  4 12  2  0
  4  5  1  0
  5  6  2  0
  5 16  1  0
  6  7  1  0
  6 17  1  0
  7 11  2  0
  7  8  1  0
  8  9  2  0
  9 10  1  0
  9 18  1  0
 10 11  1  0
 10 20  1  0
 11 12  1  0
 12 19  1  0
M  END
>  <i_m_ct_stereo_status>  (310) 
1

>  <s_m_source_file>  (310) 
/var/tmp/pbs.5076255.sched01/tmpzqmxgpmu/1265eqpa8lp.sdf

>  <i_m_source_file_index>  (310) 
6

>  <i_lp_mmshare_version>  (310) 
48012

>  <i_f3d_flags>  (310) 
0

>  <s_epik_input>  (310) 
W0NIM11DKD1PKWMoW2NIXVtjSF0xKVtjSF1jKGMxMiluW2NIXVtuSF0y

>  <s_epik_cmdline>  (310) 
J2VwaWtfcHl0aG9uJywgJy1waHQnLCAnMi4wJywgJy1waCcsICc3LjAnLCAnLXRuJywgJzgnLCAnLW1hJywgJzIwMCcsICctaW1hZScsICc8aW5maWxlLm1hZT4nLCAnLW9tYWUnLCAnPG91dGZpbGUubWFlPic=

>  <r_epik_Ionization_Penalty>  (310) 
0.0183422

>  <r_epik_Ionization_Penalty_Charging>  (310) 
0

>  <r_epik_Ionization_Penalty_Neutral>  (310) 
0.0183422

>  <r_epik_State_Penalty>  (310) 
0.445678

>  <r_epik_Charging_Adjusted_Penalty>  (310) 
0.445678

>  <i_epik_Tot_Q>  (310) 
0

>  <i_epik_Tot_abs_Q>  (310) 
0

>  <s_lp_Force_Field>  (310) 
OPLS3e

>  <r_lp_Energy>  (310) 
13.5652

>  <b_lp_Chiralities_Consistent>  (310) 
1

>  <s_lp_Variant>  (310) 
93:0-2

>  <s_i_glide_gridfile>  (310) 
pfpi4k_grid

>  <i_i_glide_lignum>  (310) 
6

>  <i_i_glide_rotatable_bonds>  (310) 
1

>  <r_i_docking_score>  (310) 
-4.25935

>  <r_i_glide_ligand_efficiency>  (310) 
-0.354946

>  <r_i_glide_ligand_efficiency_sa>  (310) 
-0.812623

>  <r_i_glide_ligand_efficiency_ln>  (310) 
-1.22223

>  <r_i_glide_gscore>  (310) 
-4.25935

>  <r_i_glide_lipo>  (310) 
0

>  <r_i_glide_hbond>  (310) 
-0.422396

>  <r_i_glide_metal>  (310) 
-0

>  <r_i_glide_rewards>  (310) 
-2.25776

>  <r_i_glide_evdw>  (310) 
-13.4557

>  <r_i_glide_ecoul>  (310) 
-5.49538

>  <r_i_glide_erotb>  (310) 
0

>  <r_i_glide_esite>  (310) 
-0.0821077

>  <r_i_glide_emodel>  (310) 
-24.6755

>  <r_i_glide_energy>  (310) 
-18.9511

>  <r_i_glide_einternal>  (310) 
1.93473

>  <r_i_glide_intrahb_reward>  (310) 
-0

>  <i_i_glide_confnum>  (310) 
2

>  <i_i_glide_posenum>  (310) 
11

>  <r_i_glide_eff_state_penalty>  (310) 
0

>  <ligand_id>  (310) 
93

>  <original_smiles>  (310) 
CC(=O)c1ccc2[nH]cnc2c1

>  <smiles>  (310) 
[H]c1c(C(=O)C([H])([H])[H])c([H])c2c(nc([H])n2[H])c1[H]

$$$$
93:1:2
     RDKit          3D

 20 21  0  0  1  0  0  0  0  0999 V2000
   -4.0579    3.3442    2.0794 C   0  0  0  0  0  0  0  0  0  0  0  0
   -2.8332    3.7536    2.9050 C   0  0  0  0  0  0  0  0  0  0  0  0
   -2.4713    4.9301    2.8759 O   0  0  0  0  0  0  0  0  0  0  0  0
   -2.2268    2.7604    3.8315 C   0  0  0  0  0  0  0  0  0  0  0  0
   -2.2776    2.9856    5.2230 C   0  0  0  0  0  0  0  0  0  0  0  0
   -1.6721    2.0786    6.1208 C   0  0  0  0  0  0  0  0  0  0  0  0
   -0.9959    0.9296    5.6434 C   0  0  0  0  0  0  0  0  0  0  0  0
   -0.3690   -0.1003    6.3377 N   0  0  0  0  0  0  0  0  0  0  0  0
    0.0992   -0.8578    5.3480 C   0  0  0  0  0  0  0  0  0  0  0  0
   -0.2062   -0.4479    4.1017 N   0  0  0  0  0  0  0  0  0  0  0  0
   -0.9330    0.7314    4.2364 C   0  0  0  0  0  0  0  0  0  0  0  0
   -1.5228    1.6393    3.3365 C   0  0  0  0  0  0  0  0  0  0  0  0
   -4.3069    2.2988    2.2357 H   0  0  0  0  0  0  0  0  0  0  0  0
   -3.8899    3.4668    1.0154 H   0  0  0  0  0  0  0  0  0  0  0  0
   -4.9241    3.9486    2.3613 H   0  0  0  0  0  0  0  0  0  0  0  0
   -2.7940    3.8521    5.6070 H   0  0  0  0  0  0  0  0  0  0  0  0
   -1.7069    2.2580    7.1851 H   0  0  0  0  0  0  0  0  0  0  0  0
    0.6879   -1.7466    5.5400 H   0  0  0  0  0  0  0  0  0  0  0  0
   -1.4684    1.4718    2.2745 H   0  0  0  0  0  0  0  0  0  0  0  0
    0.0653   -0.9133    3.2464 H   0  0  0  0  0  0  0  0  0  0  0  0
  1  2  1  0
  1 13  1  0
  1 14  1  0
  1 15  1  0
  2  3  2  0
  2  4  1  0
  4 12  2  0
  4  5  1  0
  5  6  2  0
  5 16  1  0
  6  7  1  0
  6 17  1  0
  7 11  2  0
  7  8  1  0
  8  9  2  0
  9 10  1  0
  9 18  1  0
 10 11  1  0
 10 20  1  0
 11 12  1  0
 12 19  1  0
M  END
>  <i_m_ct_stereo_status>  (311) 
1

>  <s_m_source_file>  (311) 
/var/tmp/pbs.5076255.sched01/tmpzqmxgpmu/1265eqpa8lp.sdf

>  <i_m_source_file_index>  (311) 
6

>  <i_lp_mmshare_version>  (311) 
48012

>  <i_f3d_flags>  (311) 
0

>  <s_epik_input>  (311) 
W0NIM11DKD1PKWMoW2NIXVtjSF0xKVtjSF1jKGMxMiluW2NIXVtuSF0y

>  <s_epik_cmdline>  (311) 
J2VwaWtfcHl0aG9uJywgJy1waHQnLCAnMi4wJywgJy1waCcsICc3LjAnLCAnLXRuJywgJzgnLCAnLW1hJywgJzIwMCcsICctaW1hZScsICc8aW5maWxlLm1hZT4nLCAnLW9tYWUnLCAnPG91dGZpbGUubWFlPic=

>  <r_epik_Ionization_Penalty>  (311) 
0.0183422

>  <r_epik_Ionization_Penalty_Charging>  (311) 
0

>  <r_epik_Ionization_Penalty_Neutral>  (311) 
0.0183422

>  <r_epik_State_Penalty>  (311) 
0.445678

>  <r_epik_Charging_Adjusted_Penalty>  (311) 
0.445678

>  <i_epik_Tot_Q>  (311) 
0

>  <i_epik_Tot_abs_Q>  (311) 
0

>  <s_lp_Force_Field>  (311) 
OPLS3e

>  <r_lp_Energy>  (311) 
13.5652

>  <b_lp_Chiralities_Consistent>  (311) 
1

>  <s_lp_Variant>  (311) 
93:0-2

>  <s_i_glide_gridfile>  (311) 
pfpi4k_grid

>  <i_i_glide_lignum>  (311) 
6

>  <i_i_glide_rotatable_bonds>  (311) 
1

>  <r_i_docking_score>  (311) 
-4.16526

>  <r_i_glide_ligand_efficiency>  (311) 
-0.347105

>  <r_i_glide_ligand_efficiency_sa>  (311) 
-0.794673

>  <r_i_glide_ligand_efficiency_ln>  (311) 
-1.19523

>  <r_i_glide_gscore>  (311) 
-4.16526

>  <r_i_glide_lipo>  (311) 
-0.143117

>  <r_i_glide_hbond>  (311) 
-0.16

>  <r_i_glide_metal>  (311) 
-0

>  <r_i_glide_rewards>  (311) 
-2.25

>  <r_i_glide_evdw>  (311) 
-12.0976

>  <r_i_glide_ecoul>  (311) 
-6.11147

>  <r_i_glide_erotb>  (311) 
0

>  <r_i_glide_esite>  (311) 
-0.0905433

>  <r_i_glide_emodel>  (311) 
-22.5057

>  <r_i_glide_energy>  (311) 
-18.2091

>  <r_i_glide_einternal>  (311) 
4.25738

>  <r_i_glide_intrahb_reward>  (311) 
-0

>  <i_i_glide_confnum>  (311) 
2

>  <i_i_glide_posenum>  (311) 
9

>  <r_i_glide_eff_state_penalty>  (311) 
0

>  <ligand_id>  (311) 
93

>  <original_smiles>  (311) 
CC(=O)c1ccc2[nH]cnc2c1

>  <smiles>  (311) 
[H]c1c(C(=O)C([H])([H])[H])c([H])c2c(nc([H])n2[H])c1[H]

$$$$
93:2:0
     RDKit          3D

 21 22  0  0  1  0  0  0  0  0999 V2000
    6.3938   -5.5859    0.8617 C   0  0  0  0  0  0  0  0  0  0  0  0
    6.6991   -4.1371    0.4742 C   0  0  0  0  0  0  0  0  0  0  0  0
    7.7536   -3.6388    0.8597 O   0  0  0  0  0  0  0  0  0  0  0  0
    5.7085   -3.3799   -0.3327 C   0  0  0  0  0  0  0  0  0  0  0  0
    5.5936   -1.9963   -0.0960 C   0  0  0  0  0  0  0  0  0  0  0  0
    4.7091   -1.1850   -0.8314 C   0  0  0  0  0  0  0  0  0  0  0  0
    3.9890   -1.7974   -1.8482 C   0  0  0  0  0  0  0  0  0  0  0  0
    3.0450   -1.2998   -2.7435 N   0  0  0  0  0  0  0  0  0  0  0  0
    2.6049   -2.3177   -3.5338 C   0  0  0  0  0  0  0  0  0  0  0  0
    3.2393   -3.4558   -3.1503 N   0  0  0  0  0  0  0  0  0  0  0  0
    4.1054   -3.1716   -2.1027 C   0  0  0  0  0  0  0  0  0  0  0  0
    4.9461   -3.9988   -1.3486 C   0  0  0  0  0  0  0  0  0  0  0  0
    2.6768   -0.3571   -2.7671 H   0  0  0  0  0  0  0  0  0  0  0  0
    5.4365   -5.9226    0.4768 H   0  0  0  0  0  0  0  0  0  0  0  0
    6.3708   -5.6708    1.9457 H   0  0  0  0  0  0  0  0  0  0  0  0
    7.1745   -6.2516    0.4958 H   0  0  0  0  0  0  0  0  0  0  0  0
    6.1936   -1.5400    0.6774 H   0  0  0  0  0  0  0  0  0  0  0  0
    4.5963   -0.1432   -0.5968 H   0  0  0  0  0  0  0  0  0  0  0  0
    1.8282   -2.2556   -4.2859 H   0  0  0  0  0  0  0  0  0  0  0  0
    5.0073   -5.0554   -1.5621 H   0  0  0  0  0  0  0  0  0  0  0  0
    3.0199   -4.3988   -3.4796 H   0  0  0  0  0  0  0  0  0  0  0  0
  1  2  1  0
  1 14  1  0
  1 15  1  0
  1 16  1  0
  2  3  2  0
  2  4  1  0
  4 12  2  0
  4  5  1  0
  5  6  2  0
  5 17  1  0
  6  7  1  0
  6 18  1  0
  7 11  2  0
  7  8  1  0
  8 13  1  0
  8  9  1  0
  9 10  2  0
  9 19  1  0
 10 11  1  0
 10 21  1  0
 11 12  1  0
 12 20  1  0
M  CHG  1  10   1
M  END
>  <i_m_ct_stereo_status>  (312) 
1

>  <s_m_source_file>  (312) 
/var/tmp/pbs.5076255.sched01/tmpzqmxgpmu/1265eqpa8lp.sdf

>  <i_m_source_file_index>  (312) 
7

>  <i_lp_mmshare_version>  (312) 
48012

>  <i_f3d_flags>  (312) 
0

>  <s_epik_input>  (312) 
W0NIM11DKD1PKWMoW2NIXVtjSF0xKVtjSF1jKGMxMiluW2NIXVtuSF0y

>  <s_epik_cmdline>  (312) 
J2VwaWtfcHl0aG9uJywgJy1waHQnLCAnMi4wJywgJy1waCcsICc3LjAnLCAnLXRuJywgJzgnLCAnLW1hJywgJzIwMCcsICctaW1hZScsICc8aW5maWxlLm1hZT4nLCAnLW9tYWUnLCAnPG91dGZpbGUubWFlPic=

>  <r_lp_tautomer_probability>  (312) 
0.99995

>  <r_epik_Ionization_Penalty>  (312) 
4.18645

>  <r_epik_Ionization_Penalty_Charging>  (312) 
4.18645

>  <r_epik_Ionization_Penalty_Neutral>  (312) 
1.97337e-15

>  <r_epik_State_Penalty>  (312) 
2.63319

>  <r_epik_Charging_Adjusted_Penalty>  (312) 
6.81964

>  <i_epik_Tot_Q>  (312) 
1

>  <i_epik_Tot_abs_Q>  (312) 
1

>  <s_lp_Force_Field>  (312) 
OPLS3e

>  <r_lp_Energy>  (312) 
18.9328

>  <b_lp_Chiralities_Consistent>  (312) 
1

>  <s_lp_Variant>  (312) 
93:0-3

>  <s_i_glide_gridfile>  (312) 
pfpi4k_grid

>  <i_i_glide_lignum>  (312) 
7

>  <i_i_glide_rotatable_bonds>  (312) 
1

>  <r_i_docking_score>  (312) 
-4.71129

>  <r_i_glide_ligand_efficiency>  (312) 
-0.392608

>  <r_i_glide_ligand_efficiency_sa>  (312) 
-0.898847

>  <r_i_glide_ligand_efficiency_ln>  (312) 
-1.35191

>  <r_i_glide_gscore>  (312) 
-4.71129

>  <r_i_glide_lipo>  (312) 
-0.162471

>  <r_i_glide_hbond>  (312) 
0

>  <r_i_glide_metal>  (312) 
-0

>  <r_i_glide_rewards>  (312) 
-2.74356

>  <r_i_glide_evdw>  (312) 
-14.1445

>  <r_i_glide_ecoul>  (312) 
-6.95415

>  <r_i_glide_erotb>  (312) 
0

>  <r_i_glide_esite>  (312) 
-0.0549149

>  <r_i_glide_emodel>  (312) 
-28.4703

>  <r_i_glide_energy>  (312) 
-21.0987

>  <r_i_glide_einternal>  (312) 
1.36342

>  <r_i_glide_intrahb_reward>  (312) 
-0

>  <i_i_glide_confnum>  (312) 
1

>  <i_i_glide_posenum>  (312) 
35

>  <r_i_glide_eff_state_penalty>  (312) 
0

>  <ligand_id>  (312) 
93

>  <original_smiles>  (312) 
CC(=O)c1ccc2[nH]cnc2c1

>  <smiles>  (312) 
[H]c1c(C(=O)C([H])([H])[H])c([H])c2c(c1[H])n([H])c([H])[n+]2[H]

$$$$
93:2:1
     RDKit          3D

 21 22  0  0  1  0  0  0  0  0999 V2000
    3.7460   -5.0721    1.3783 C   0  0  0  0  0  0  0  0  0  0  0  0
    2.8327   -4.6454    0.2237 C   0  0  0  0  0  0  0  0  0  0  0  0
    1.8163   -5.3176    0.0246 O   0  0  0  0  0  0  0  0  0  0  0  0
    3.2140   -3.4605   -0.6112 C   0  0  0  0  0  0  0  0  0  0  0  0
    4.1335   -2.4901   -0.1298 C   0  0  0  0  0  0  0  0  0  0  0  0
    4.5106   -1.3713   -0.8950 C   0  0  0  0  0  0  0  0  0  0  0  0
    3.9363   -1.2529   -2.1538 C   0  0  0  0  0  0  0  0  0  0  0  0
    4.0700   -0.2667   -3.1254 N   0  0  0  0  0  0  0  0  0  0  0  0
    3.2842   -0.5851   -4.1955 C   0  0  0  0  0  0  0  0  0  0  0  0
    2.6476   -1.7580   -3.9138 N   0  0  0  0  0  0  0  0  0  0  0  0
    3.0159   -2.1949   -2.6444 C   0  0  0  0  0  0  0  0  0  0  0  0
    2.6073   -3.2830   -1.8821 C   0  0  0  0  0  0  0  0  0  0  0  0
    4.6045    0.5867   -3.0396 H   0  0  0  0  0  0  0  0  0  0  0  0
    4.6470   -4.4758    1.4675 H   0  0  0  0  0  0  0  0  0  0  0  0
    4.0602   -6.1050    1.2284 H   0  0  0  0  0  0  0  0  0  0  0  0
    3.2000   -5.0160    2.3219 H   0  0  0  0  0  0  0  0  0  0  0  0
    4.5528   -2.5569    0.8583 H   0  0  0  0  0  0  0  0  0  0  0  0
    5.1829   -0.6278   -0.5003 H   0  0  0  0  0  0  0  0  0  0  0  0
    3.1605    0.0123   -5.0874 H   0  0  0  0  0  0  0  0  0  0  0  0
    1.8417   -3.9550   -2.2474 H   0  0  0  0  0  0  0  0  0  0  0  0
    1.9745   -2.1919   -4.5413 H   0  0  0  0  0  0  0  0  0  0  0  0
  1  2  1  0
  1 14  1  0
  1 15  1  0
  1 16  1  0
  2  3  2  0
  2  4  1  0
  4 12  2  0
  4  5  1  0
  5  6  2  0
  5 17  1  0
  6  7  1  0
  6 18  1  0
  7 11  2  0
  7  8  1  0
  8 13  1  0
  8  9  1  0
  9 10  2  0
  9 19  1  0
 10 11  1  0
 10 21  1  0
 11 12  1  0
 12 20  1  0
M  CHG  1  10   1
M  END
>  <i_m_ct_stereo_status>  (313) 
1

>  <s_m_source_file>  (313) 
/var/tmp/pbs.5076255.sched01/tmpzqmxgpmu/1265eqpa8lp.sdf

>  <i_m_source_file_index>  (313) 
7

>  <i_lp_mmshare_version>  (313) 
48012

>  <i_f3d_flags>  (313) 
0

>  <s_epik_input>  (313) 
W0NIM11DKD1PKWMoW2NIXVtjSF0xKVtjSF1jKGMxMiluW2NIXVtuSF0y

>  <s_epik_cmdline>  (313) 
J2VwaWtfcHl0aG9uJywgJy1waHQnLCAnMi4wJywgJy1waCcsICc3LjAnLCAnLXRuJywgJzgnLCAnLW1hJywgJzIwMCcsICctaW1hZScsICc8aW5maWxlLm1hZT4nLCAnLW9tYWUnLCAnPG91dGZpbGUubWFlPic=

>  <r_lp_tautomer_probability>  (313) 
0.99995

>  <r_epik_Ionization_Penalty>  (313) 
4.18645

>  <r_epik_Ionization_Penalty_Charging>  (313) 
4.18645

>  <r_epik_Ionization_Penalty_Neutral>  (313) 
1.97337e-15

>  <r_epik_State_Penalty>  (313) 
2.63319

>  <r_epik_Charging_Adjusted_Penalty>  (313) 
6.81964

>  <i_epik_Tot_Q>  (313) 
1

>  <i_epik_Tot_abs_Q>  (313) 
1

>  <s_lp_Force_Field>  (313) 
OPLS3e

>  <r_lp_Energy>  (313) 
18.9328

>  <b_lp_Chiralities_Consistent>  (313) 
1

>  <s_lp_Variant>  (313) 
93:0-3

>  <s_i_glide_gridfile>  (313) 
pfpi4k_grid

>  <i_i_glide_lignum>  (313) 
7

>  <i_i_glide_rotatable_bonds>  (313) 
1

>  <r_i_docking_score>  (313) 
-4.51703

>  <r_i_glide_ligand_efficiency>  (313) 
-0.376419

>  <r_i_glide_ligand_efficiency_sa>  (313) 
-0.861785

>  <r_i_glide_ligand_efficiency_ln>  (313) 
-1.29617

>  <r_i_glide_gscore>  (313) 
-4.51703

>  <r_i_glide_lipo>  (313) 
-0.175927

>  <r_i_glide_hbond>  (313) 
-0.0738702

>  <r_i_glide_metal>  (313) 
-0

>  <r_i_glide_rewards>  (313) 
-2.58608

>  <r_i_glide_evdw>  (313) 
-15.3542

>  <r_i_glide_ecoul>  (313) 
-5.85732

>  <r_i_glide_erotb>  (313) 
0

>  <r_i_glide_esite>  (313) 
-0.0348485

>  <r_i_glide_emodel>  (313) 
-28.612

>  <r_i_glide_energy>  (313) 
-21.2115

>  <r_i_glide_einternal>  (313) 
0.731032

>  <r_i_glide_intrahb_reward>  (313) 
-0

>  <i_i_glide_confnum>  (313) 
2

>  <i_i_glide_posenum>  (313) 
5

>  <r_i_glide_eff_state_penalty>  (313) 
0

>  <ligand_id>  (313) 
93

>  <original_smiles>  (313) 
CC(=O)c1ccc2[nH]cnc2c1

>  <smiles>  (313) 
[H]c1c(C(=O)C([H])([H])[H])c([H])c2c(c1[H])n([H])c([H])[n+]2[H]

$$$$
93:2:2
     RDKit          3D

 21 22  0  0  1  0  0  0  0  0999 V2000
    2.3552   -3.0549   -3.5176 C   0  0  0  0  0  0  0  0  0  0  0  0
    3.5643   -2.2128   -3.1212 C   0  0  0  0  0  0  0  0  0  0  0  0
    4.1127   -1.5351   -3.9915 O   0  0  0  0  0  0  0  0  0  0  0  0
    4.0310   -2.2297   -1.7006 C   0  0  0  0  0  0  0  0  0  0  0  0
    4.7972   -1.1291   -1.2517 C   0  0  0  0  0  0  0  0  0  0  0  0
    5.3179   -1.0577    0.0598 C   0  0  0  0  0  0  0  0  0  0  0  0
    5.0471   -2.1358    0.8900 C   0  0  0  0  0  0  0  0  0  0  0  0
    5.3990   -2.3811    2.2157 N   0  0  0  0  0  0  0  0  0  0  0  0
    4.9023   -3.5922    2.5930 C   0  0  0  0  0  0  0  0  0  0  0  0
    4.2353   -4.1266    1.5310 N   0  0  0  0  0  0  0  0  0  0  0  0
    4.2969   -3.2426    0.4542 C   0  0  0  0  0  0  0  0  0  0  0  0
    3.7796   -3.3247   -0.8336 C   0  0  0  0  0  0  0  0  0  0  0  0
    5.9357   -1.7676    2.8164 H   0  0  0  0  0  0  0  0  0  0  0  0
    1.9233   -3.6059   -2.6867 H   0  0  0  0  0  0  0  0  0  0  0  0
    2.6323   -3.7622   -4.2974 H   0  0  0  0  0  0  0  0  0  0  0  0
    1.5786   -2.4108   -3.9208 H   0  0  0  0  0  0  0  0  0  0  0  0
    4.9763   -0.3087   -1.9328 H   0  0  0  0  0  0  0  0  0  0  0  0
    5.8845   -0.2054    0.4064 H   0  0  0  0  0  0  0  0  0  0  0  0
    5.0157   -4.0474    3.5692 H   0  0  0  0  0  0  0  0  0  0  0  0
    3.2255   -4.1970   -1.1421 H   0  0  0  0  0  0  0  0  0  0  0  0
    3.7773   -5.0277    1.5404 H   0  0  0  0  0  0  0  0  0  0  0  0
  1  2  1  0
  1 14  1  0
  1 15  1  0
  1 16  1  0
  2  3  2  0
  2  4  1  0
  4 12  2  0
  4  5  1  0
  5  6  2  0
  5 17  1  0
  6  7  1  0
  6 18  1  0
  7 11  2  0
  7  8  1  0
  8 13  1  0
  8  9  1  0
  9 10  2  0
  9 19  1  0
 10 11  1  0
 10 21  1  0
 11 12  1  0
 12 20  1  0
M  CHG  1  10   1
M  END
>  <i_m_ct_stereo_status>  (314) 
1

>  <s_m_source_file>  (314) 
/var/tmp/pbs.5076255.sched01/tmpzqmxgpmu/1265eqpa8lp.sdf

>  <i_m_source_file_index>  (314) 
7

>  <i_lp_mmshare_version>  (314) 
48012

>  <i_f3d_flags>  (314) 
0

>  <s_epik_input>  (314) 
W0NIM11DKD1PKWMoW2NIXVtjSF0xKVtjSF1jKGMxMiluW2NIXVtuSF0y

>  <s_epik_cmdline>  (314) 
J2VwaWtfcHl0aG9uJywgJy1waHQnLCAnMi4wJywgJy1waCcsICc3LjAnLCAnLXRuJywgJzgnLCAnLW1hJywgJzIwMCcsICctaW1hZScsICc8aW5maWxlLm1hZT4nLCAnLW9tYWUnLCAnPG91dGZpbGUubWFlPic=

>  <r_lp_tautomer_probability>  (314) 
0.99995

>  <r_epik_Ionization_Penalty>  (314) 
4.18645

>  <r_epik_Ionization_Penalty_Charging>  (314) 
4.18645

>  <r_epik_Ionization_Penalty_Neutral>  (314) 
1.97337e-15

>  <r_epik_State_Penalty>  (314) 
2.63319

>  <r_epik_Charging_Adjusted_Penalty>  (314) 
6.81964

>  <i_epik_Tot_Q>  (314) 
1

>  <i_epik_Tot_abs_Q>  (314) 
1

>  <s_lp_Force_Field>  (314) 
OPLS3e

>  <r_lp_Energy>  (314) 
18.9328

>  <b_lp_Chiralities_Consistent>  (314) 
1

>  <s_lp_Variant>  (314) 
93:0-3

>  <s_i_glide_gridfile>  (314) 
pfpi4k_grid

>  <i_i_glide_lignum>  (314) 
7

>  <i_i_glide_rotatable_bonds>  (314) 
1

>  <r_i_docking_score>  (314) 
-4.45751

>  <r_i_glide_ligand_efficiency>  (314) 
-0.371459

>  <r_i_glide_ligand_efficiency_sa>  (314) 
-0.850428

>  <r_i_glide_ligand_efficiency_ln>  (314) 
-1.27909

>  <r_i_glide_gscore>  (314) 
-4.45751

>  <r_i_glide_lipo>  (314) 
-0.352384

>  <r_i_glide_hbond>  (314) 
-0.0869682

>  <r_i_glide_metal>  (314) 
-0

>  <r_i_glide_rewards>  (314) 
-2.42686

>  <r_i_glide_evdw>  (314) 
-17.728

>  <r_i_glide_ecoul>  (314) 
-4.69929

>  <r_i_glide_erotb>  (314) 
0

>  <r_i_glide_esite>  (314) 
0

>  <r_i_glide_emodel>  (314) 
-29.8691

>  <r_i_glide_energy>  (314) 
-22.4273

>  <r_i_glide_einternal>  (314) 
0.504233

>  <r_i_glide_intrahb_reward>  (314) 
-0

>  <i_i_glide_confnum>  (314) 
2

>  <i_i_glide_posenum>  (314) 
28

>  <r_i_glide_eff_state_penalty>  (314) 
0

>  <ligand_id>  (314) 
93

>  <original_smiles>  (314) 
CC(=O)c1ccc2[nH]cnc2c1

>  <smiles>  (314) 
[H]c1c(C(=O)C([H])([H])[H])c([H])c2c(c1[H])n([H])c([H])[n+]2[H]

$$$$
94:0:0
     RDKit          3D

 32 34  0  0  1  0  0  0  0  0999 V2000
    2.1930   -0.3183    1.2801 N   0  0  0  0  0  0  0  0  0  0  0  0
    3.4201   -0.7720    1.5731 C   0  0  0  0  0  0  0  0  0  0  0  0
    4.0262   -0.2773    2.6703 N   0  0  0  0  0  0  0  0  0  0  0  0
    4.1024   -1.7897    0.6826 C   0  0  2  0  0  0  0  0  0  0  0  0
    3.1523   -2.9899    0.4431 C   0  0  0  0  0  0  0  0  0  0  0  0
    3.8405   -4.0171   -0.4762 C   0  0  1  0  0  0  0  0  0  0  0  0
    4.1740   -3.3518   -1.8281 C   0  0  0  0  0  0  0  0  0  0  0  0
    5.1387   -2.1719   -1.5924 C   0  0  2  0  0  0  0  0  0  0  0  0
    6.4333   -2.6808   -0.9231 C   0  0  0  0  0  0  0  0  0  0  0  0
    6.0892   -3.3470    0.4212 C   0  0  2  0  0  0  0  0  0  0  0  0
    5.1340   -4.5334    0.1847 C   0  0  0  0  0  0  0  0  0  0  0  0
    5.4122   -2.3125    1.3402 C   0  0  0  0  0  0  0  0  0  0  0  0
    4.4522   -1.1326   -0.6771 C   0  0  0  0  0  0  0  0  0  0  0  0
    1.7237    0.3752    1.8304 H   0  0  0  0  0  0  0  0  0  0  0  0
    3.5951    0.4104    3.2615 H   0  0  0  0  0  0  0  0  0  0  0  0
    4.9468   -0.6171    2.9193 H   0  0  0  0  0  0  0  0  0  0  0  0
    2.8808   -3.4499    1.3943 H   0  0  0  0  0  0  0  0  0  0  0  0
    2.2192   -2.6667   -0.0198 H   0  0  0  0  0  0  0  0  0  0  0  0
    3.1636   -4.8534   -0.6435 H   0  0  0  0  0  0  0  0  0  0  0  0
    4.6196   -4.0799   -2.5053 H   0  0  0  0  0  0  0  0  0  0  0  0
    3.2560   -3.0021   -2.3079 H   0  0  0  0  0  0  0  0  0  0  0  0
    5.3769   -1.7128   -2.5527 H   0  0  0  0  0  0  0  0  0  0  0  0
    6.9510   -3.3849   -1.5769 H   0  0  0  0  0  0  0  0  0  0  0  0
    7.1186   -1.8521   -0.7503 H   0  0  0  0  0  0  0  0  0  0  0  0
    7.0056   -3.7088    0.8901 H   0  0  0  0  0  0  0  0  0  0  0  0
    4.8991   -5.0248    1.1285 H   0  0  0  0  0  0  0  0  0  0  0  0
    5.6058   -5.2838   -0.4484 H   0  0  0  0  0  0  0  0  0  0  0  0
    6.1129   -1.4970    1.5271 H   0  0  0  0  0  0  0  0  0  0  0  0
    5.1913   -2.7743    2.3029 H   0  0  0  0  0  0  0  0  0  0  0  0
    3.5502   -0.7583   -1.1639 H   0  0  0  0  0  0  0  0  0  0  0  0
    5.1014   -0.2711   -0.5252 H   0  0  0  0  0  0  0  0  0  0  0  0
    1.6928   -0.6410    0.4174 H   0  0  0  0  0  0  0  0  0  0  0  0
  1  2  2  3
  1 14  1  0
  1 32  1  0
  2  3  1  0
  4  2  1  1
  3 15  1  0
  3 16  1  0
  4 12  1  0
  4 13  1  0
  4  5  1  0
  5  6  1  0
  5 17  1  0
  5 18  1  0
  6 11  1  0
  6  7  1  0
  6 19  1  6
  7  8  1  0
  7 20  1  0
  7 21  1  0
  8  9  1  0
  8 13  1  0
  8 22  1  6
  9 10  1  0
  9 23  1  0
  9 24  1  0
 10 11  1  0
 10 12  1  0
 10 25  1  1
 11 26  1  0
 11 27  1  0
 12 28  1  0
 12 29  1  0
 13 30  1  0
 13 31  1  0
M  CHG  1   1   1
M  END
>  <i_m_ct_stereo_status>  (315) 
1

>  <s_m_source_file>  (315) 
/var/tmp/pbs.5076255.sched01/tmpzqmxgpmu/1265eqpa8lp.sdf

>  <i_m_source_file_index>  (315) 
8

>  <i_lp_mmshare_version>  (315) 
48012

>  <i_f3d_flags>  (315) 
0

>  <s_epik_input>  (315) 
W0hdL049QyhcW05IMl0pQzEyW0NIMl1bQ0BIXTNbQ0gyXVtDQEBIXShbQ0gyXTIpW0NIMl1bQ0BIXShbQ0gyXTMpW0NIMl0x

>  <s_epik_cmdline>  (315) 
J2VwaWtfcHl0aG9uJywgJy1waHQnLCAnMi4wJywgJy1waCcsICc3LjAnLCAnLXRuJywgJzgnLCAnLW1hJywgJzIwMCcsICctaW1hZScsICc8aW5maWxlLm1hZT4nLCAnLW9tYWUnLCAnPG91dGZpbGUubWFlPic=

>  <r_lp_tautomer_probability>  (315) 
1

>  <r_epik_Ionization_Penalty>  (315) 
4.76976e-06

>  <r_epik_Ionization_Penalty_Charging>  (315) 
4.76976e-06

>  <r_epik_Ionization_Penalty_Neutral>  (315) 
1.23836e-12

>  <r_epik_State_Penalty>  (315) 
-0

>  <r_epik_Charging_Adjusted_Penalty>  (315) 
4.76976e-06

>  <i_epik_Tot_Q>  (315) 
1

>  <i_epik_Tot_abs_Q>  (315) 
1

>  <s_epik_Chemistry_Notes>  (315) 
This compound has an imine and may undergo hydrolysis.

>  <s_lp_Force_Field>  (315) 
OPLS3e

>  <r_lp_Energy>  (315) 
7.17948

>  <b_lp_Chiralities_Consistent>  (315) 
1

>  <s_lp_Variant>  (315) 
94:0-1

>  <s_i_glide_gridfile>  (315) 
pfpi4k_grid

>  <i_i_glide_lignum>  (315) 
8

>  <i_i_glide_rotatable_bonds>  (315) 
1

>  <r_i_docking_score>  (315) 
-4.49321

>  <r_i_glide_ligand_efficiency>  (315) 
-0.345631

>  <r_i_glide_ligand_efficiency_sa>  (315) 
-0.812695

>  <r_i_glide_ligand_efficiency_ln>  (315) 
-1.26038

>  <r_i_glide_gscore>  (315) 
-4.49321

>  <r_i_glide_lipo>  (315) 
-0.194869

>  <r_i_glide_hbond>  (315) 
-0.2

>  <r_i_glide_metal>  (315) 
-0

>  <r_i_glide_rewards>  (315) 
-2.18671

>  <r_i_glide_evdw>  (315) 
-14.1228

>  <r_i_glide_ecoul>  (315) 
-7.3258

>  <r_i_glide_erotb>  (315) 
0

>  <r_i_glide_esite>  (315) 
-0.106615

>  <r_i_glide_emodel>  (315) 
-28.9782

>  <r_i_glide_energy>  (315) 
-21.4486

>  <r_i_glide_einternal>  (315) 
0.00349202

>  <r_i_glide_intrahb_reward>  (315) 
-0

>  <i_i_glide_confnum>  (315) 
2

>  <i_i_glide_posenum>  (315) 
10

>  <r_i_glide_eff_state_penalty>  (315) 
0

>  <ligand_id>  (315) 
94

>  <original_smiles>  (315) 
N=C(N)C12CC3CC(CC(C3)C1)C2

>  <smiles>  (315) 
[H]N([H])C(=[N+]([H])[H])C12C([H])([H])C3([H])C([H])([H])C([H])(C([H])([H])C([H])(C3([H])[H])C1([H])[H])C2([H])[H]

$$$$
94:0:1
     RDKit          3D

 32 34  0  0  1  0  0  0  0  0999 V2000
    1.7190   -0.5548    1.6792 N   0  0  0  0  0  0  0  0  0  0  0  0
    2.8819   -1.0539    2.1391 C   0  0  0  0  0  0  0  0  0  0  0  0
    3.1715   -0.9071    3.4446 N   0  0  0  0  0  0  0  0  0  0  0  0
    3.8606   -1.7521    1.2060 C   0  0  2  0  0  0  0  0  0  0  0  0
    5.0596   -2.3618    1.9854 C   0  0  0  0  0  0  0  0  0  0  0  0
    6.0233   -3.0674    1.0133 C   0  0  1  0  0  0  0  0  0  0  0  0
    5.2709   -4.1941    0.2775 C   0  0  0  0  0  0  0  0  0  0  0  0
    4.1018   -3.5876   -0.5248 C   0  0  2  0  0  0  0  0  0  0  0  0
    4.6361   -2.5614   -1.5448 C   0  0  0  0  0  0  0  0  0  0  0  0
    5.3844   -1.4403   -0.7961 C   0  0  2  0  0  0  0  0  0  0  0  0
    6.5668   -2.0476   -0.0085 C   0  0  0  0  0  0  0  0  0  0  0  0
    4.4190   -0.7331    0.1842 C   0  0  0  0  0  0  0  0  0  0  0  0
    3.1267   -2.8898    0.4440 C   0  0  0  0  0  0  0  0  0  0  0  0
    1.0736   -0.0496    2.2774 H   0  0  0  0  0  0  0  0  0  0  0  0
    2.5373   -0.4369    4.0823 H   0  0  0  0  0  0  0  0  0  0  0  0
    4.0388   -1.2787    3.8111 H   0  0  0  0  0  0  0  0  0  0  0  0
    5.6104   -1.5874    2.5206 H   0  0  0  0  0  0  0  0  0  0  0  0
    4.7081   -3.0796    2.7276 H   0  0  0  0  0  0  0  0  0  0  0  0
    6.8571   -3.4934    1.5746 H   0  0  0  0  0  0  0  0  0  0  0  0
    5.9436   -4.7403   -0.3836 H   0  0  0  0  0  0  0  0  0  0  0  0
    4.8866   -4.9176    0.9994 H   0  0  0  0  0  0  0  0  0  0  0  0
    3.5772   -4.3814   -1.0596 H   0  0  0  0  0  0  0  0  0  0  0  0
    5.2969   -3.0464   -2.2655 H   0  0  0  0  0  0  0  0  0  0  0  0
    3.8071   -2.1412   -2.1208 H   0  0  0  0  0  0  0  0  0  0  0  0
    5.7570   -0.7193   -1.5243 H   0  0  0  0  0  0  0  0  0  0  0  0
    7.1189   -1.2565    0.5041 H   0  0  0  0  0  0  0  0  0  0  0  0
    7.2704   -2.5322   -0.6894 H   0  0  0  0  0  0  0  0  0  0  0  0
    3.5979   -0.2853   -0.3632 H   0  0  0  0  0  0  0  0  0  0  0  0
    4.9281    0.0852    0.6957 H   0  0  0  0  0  0  0  0  0  0  0  0
    2.7122   -3.6091    1.1512 H   0  0  0  0  0  0  0  0  0  0  0  0
    2.2848   -2.5044   -0.1269 H   0  0  0  0  0  0  0  0  0  0  0  0
    1.4448   -0.6695    0.6854 H   0  0  0  0  0  0  0  0  0  0  0  0
  1  2  2  3
  1 14  1  0
  1 32  1  0
  2  3  1  0
  4  2  1  1
  3 15  1  0
  3 16  1  0
  4 12  1  0
  4 13  1  0
  4  5  1  0
  5  6  1  0
  5 17  1  0
  5 18  1  0
  6 11  1  0
  6  7  1  0
  6 19  1  1
  7  8  1  0
  7 20  1  0
  7 21  1  0
  8  9  1  0
  8 13  1  0
  8 22  1  6
  9 10  1  0
  9 23  1  0
  9 24  1  0
 10 11  1  0
 10 12  1  0
 10 25  1  6
 11 26  1  0
 11 27  1  0
 12 28  1  0
 12 29  1  0
 13 30  1  0
 13 31  1  0
M  CHG  1   1   1
M  END
>  <i_m_ct_stereo_status>  (316) 
1

>  <s_m_source_file>  (316) 
/var/tmp/pbs.5076255.sched01/tmpzqmxgpmu/1265eqpa8lp.sdf

>  <i_m_source_file_index>  (316) 
8

>  <i_lp_mmshare_version>  (316) 
48012

>  <i_f3d_flags>  (316) 
0

>  <s_epik_input>  (316) 
W0hdL049QyhcW05IMl0pQzEyW0NIMl1bQ0BIXTNbQ0gyXVtDQEBIXShbQ0gyXTIpW0NIMl1bQ0BIXShbQ0gyXTMpW0NIMl0x

>  <s_epik_cmdline>  (316) 
J2VwaWtfcHl0aG9uJywgJy1waHQnLCAnMi4wJywgJy1waCcsICc3LjAnLCAnLXRuJywgJzgnLCAnLW1hJywgJzIwMCcsICctaW1hZScsICc8aW5maWxlLm1hZT4nLCAnLW9tYWUnLCAnPG91dGZpbGUubWFlPic=

>  <r_lp_tautomer_probability>  (316) 
1

>  <r_epik_Ionization_Penalty>  (316) 
4.76976e-06

>  <r_epik_Ionization_Penalty_Charging>  (316) 
4.76976e-06

>  <r_epik_Ionization_Penalty_Neutral>  (316) 
1.23836e-12

>  <r_epik_State_Penalty>  (316) 
-0

>  <r_epik_Charging_Adjusted_Penalty>  (316) 
4.76976e-06

>  <i_epik_Tot_Q>  (316) 
1

>  <i_epik_Tot_abs_Q>  (316) 
1

>  <s_epik_Chemistry_Notes>  (316) 
This compound has an imine and may undergo hydrolysis.

>  <s_lp_Force_Field>  (316) 
OPLS3e

>  <r_lp_Energy>  (316) 
7.17948

>  <b_lp_Chiralities_Consistent>  (316) 
1

>  <s_lp_Variant>  (316) 
94:0-1

>  <s_i_glide_gridfile>  (316) 
pfpi4k_grid

>  <i_i_glide_lignum>  (316) 
8

>  <i_i_glide_rotatable_bonds>  (316) 
1

>  <r_i_docking_score>  (316) 
-4.3639

>  <r_i_glide_ligand_efficiency>  (316) 
-0.335685

>  <r_i_glide_ligand_efficiency_sa>  (316) 
-0.789307

>  <r_i_glide_ligand_efficiency_ln>  (316) 
-1.22411

>  <r_i_glide_gscore>  (316) 
-4.3639

>  <r_i_glide_lipo>  (316) 
-0.252777

>  <r_i_glide_hbond>  (316) 
-0.2

>  <r_i_glide_metal>  (316) 
-0

>  <r_i_glide_rewards>  (316) 
-2.18671

>  <r_i_glide_evdw>  (316) 
-12.9756

>  <r_i_glide_ecoul>  (316) 
-6.3792

>  <r_i_glide_erotb>  (316) 
0

>  <r_i_glide_esite>  (316) 
-0.118748

>  <r_i_glide_emodel>  (316) 
-26.7467

>  <r_i_glide_energy>  (316) 
-19.3549

>  <r_i_glide_einternal>  (316) 
0.0231285

>  <r_i_glide_intrahb_reward>  (316) 
-0

>  <i_i_glide_confnum>  (316) 
1

>  <i_i_glide_posenum>  (316) 
18

>  <r_i_glide_eff_state_penalty>  (316) 
0

>  <ligand_id>  (316) 
94

>  <original_smiles>  (316) 
N=C(N)C12CC3CC(CC(C3)C1)C2

>  <smiles>  (316) 
[H]N([H])C(=[N+]([H])[H])C12C([H])([H])C3([H])C([H])([H])C([H])(C([H])([H])C([H])(C3([H])[H])C1([H])[H])C2([H])[H]

$$$$
94:0:2
     RDKit          3D

 32 34  0  0  1  0  0  0  0  0999 V2000
    3.3906   -2.0284    3.1452 N   0  0  0  0  0  0  0  0  0  0  0  0
    2.9908   -1.8134    1.8816 C   0  0  0  0  0  0  0  0  0  0  0  0
    1.8020   -1.2141    1.6772 N   0  0  0  0  0  0  0  0  0  0  0  0
    3.8768   -2.2138    0.7088 C   0  0  2  0  0  0  0  0  0  0  0  0
    5.0364   -3.1421    1.1760 C   0  0  0  0  0  0  0  0  0  0  0  0
    5.9134   -3.5329   -0.0249 C   0  0  1  0  0  0  0  0  0  0  0  0
    5.0451   -4.2636   -1.0668 C   0  0  0  0  0  0  0  0  0  0  0  0
    3.9291   -3.3350   -1.5581 C   0  0  2  0  0  0  0  0  0  0  0  0
    4.5347   -2.0635   -2.1829 C   0  0  0  0  0  0  0  0  0  0  0  0
    5.3859   -1.3352   -1.1266 C   0  0  2  0  0  0  0  0  0  0  0  0
    6.5252   -2.2639   -0.6517 C   0  0  0  0  0  0  0  0  0  0  0  0
    4.4953   -0.9422    0.0762 C   0  0  0  0  0  0  0  0  0  0  0  0
    3.0399   -2.9644   -0.3636 C   0  0  0  0  0  0  0  0  0  0  0  0
    2.8209   -1.7744    3.9445 H   0  0  0  0  0  0  0  0  0  0  0  0
    1.1980   -0.9274    2.4407 H   0  0  0  0  0  0  0  0  0  0  0  0
    1.4585   -1.0570    0.7116 H   0  0  0  0  0  0  0  0  0  0  0  0
    5.6639   -2.6446    1.9150 H   0  0  0  0  0  0  0  0  0  0  0  0
    4.6286   -4.0397    1.6401 H   0  0  0  0  0  0  0  0  0  0  0  0
    6.7133   -4.1906    0.3168 H   0  0  0  0  0  0  0  0  0  0  0  0
    5.6467   -4.5823   -1.9148 H   0  0  0  0  0  0  0  0  0  0  0  0
    4.6161   -5.1668   -0.6277 H   0  0  0  0  0  0  0  0  0  0  0  0
    3.3302   -3.8385   -2.3144 H   0  0  0  0  0  0  0  0  0  0  0  0
    5.1443   -2.3170   -3.0530 H   0  0  0  0  0  0  0  0  0  0  0  0
    3.7391   -1.4072   -2.5429 H   0  0  0  0  0  0  0  0  0  0  0  0
    5.8118   -0.4398   -1.5777 H   0  0  0  0  0  0  0  0  0  0  0  0
    7.1528   -1.7481    0.0779 H   0  0  0  0  0  0  0  0  0  0  0  0
    7.1745   -2.5377   -1.4871 H   0  0  0  0  0  0  0  0  0  0  0  0
    3.7113   -0.2663   -0.2545 H   0  0  0  0  0  0  0  0  0  0  0  0
    5.0809   -0.3940    0.8154 H   0  0  0  0  0  0  0  0  0  0  0  0
    2.5811   -3.8551    0.0632 H   0  0  0  0  0  0  0  0  0  0  0  0
    2.2329   -2.3540   -0.7490 H   0  0  0  0  0  0  0  0  0  0  0  0
    4.2842   -2.4733    3.3086 H   0  0  0  0  0  0  0  0  0  0  0  0
  1  2  2  3
  1 14  1  0
  1 32  1  0
  2  3  1  0
  4  2  1  1
  3 15  1  0
  3 16  1  0
  4 12  1  0
  4 13  1  0
  4  5  1  0
  5  6  1  0
  5 17  1  0
  5 18  1  0
  6 11  1  0
  6  7  1  0
  6 19  1  1
  7  8  1  0
  7 20  1  0
  7 21  1  0
  8  9  1  0
  8 13  1  0
  8 22  1  6
  9 10  1  0
  9 23  1  0
  9 24  1  0
 10 11  1  0
 10 12  1  0
 10 25  1  6
 11 26  1  0
 11 27  1  0
 12 28  1  0
 12 29  1  0
 13 30  1  0
 13 31  1  0
M  CHG  1   1   1
M  END
>  <i_m_ct_stereo_status>  (317) 
1

>  <s_m_source_file>  (317) 
/var/tmp/pbs.5076255.sched01/tmpzqmxgpmu/1265eqpa8lp.sdf

>  <i_m_source_file_index>  (317) 
8

>  <i_lp_mmshare_version>  (317) 
48012

>  <i_f3d_flags>  (317) 
0

>  <s_epik_input>  (317) 
W0hdL049QyhcW05IMl0pQzEyW0NIMl1bQ0BIXTNbQ0gyXVtDQEBIXShbQ0gyXTIpW0NIMl1bQ0BIXShbQ0gyXTMpW0NIMl0x

>  <s_epik_cmdline>  (317) 
J2VwaWtfcHl0aG9uJywgJy1waHQnLCAnMi4wJywgJy1waCcsICc3LjAnLCAnLXRuJywgJzgnLCAnLW1hJywgJzIwMCcsICctaW1hZScsICc8aW5maWxlLm1hZT4nLCAnLW9tYWUnLCAnPG91dGZpbGUubWFlPic=

>  <r_lp_tautomer_probability>  (317) 
1

>  <r_epik_Ionization_Penalty>  (317) 
4.76976e-06

>  <r_epik_Ionization_Penalty_Charging>  (317) 
4.76976e-06

>  <r_epik_Ionization_Penalty_Neutral>  (317) 
1.23836e-12

>  <r_epik_State_Penalty>  (317) 
-0

>  <r_epik_Charging_Adjusted_Penalty>  (317) 
4.76976e-06

>  <i_epik_Tot_Q>  (317) 
1

>  <i_epik_Tot_abs_Q>  (317) 
1

>  <s_epik_Chemistry_Notes>  (317) 
This compound has an imine and may undergo hydrolysis.

>  <s_lp_Force_Field>  (317) 
OPLS3e

>  <r_lp_Energy>  (317) 
7.17948

>  <b_lp_Chiralities_Consistent>  (317) 
1

>  <s_lp_Variant>  (317) 
94:0-1

>  <s_i_glide_gridfile>  (317) 
pfpi4k_grid

>  <i_i_glide_lignum>  (317) 
8

>  <i_i_glide_rotatable_bonds>  (317) 
1

>  <r_i_docking_score>  (317) 
-4.20964

>  <r_i_glide_ligand_efficiency>  (317) 
-0.323819

>  <r_i_glide_ligand_efficiency_sa>  (317) 
-0.761406

>  <r_i_glide_ligand_efficiency_ln>  (317) 
-1.18084

>  <r_i_glide_gscore>  (317) 
-4.20964

>  <r_i_glide_lipo>  (317) 
-0.102946

>  <r_i_glide_hbond>  (317) 
-0.2

>  <r_i_glide_metal>  (317) 
-0

>  <r_i_glide_rewards>  (317) 
-2.18671

>  <r_i_glide_evdw>  (317) 
-12.4593

>  <r_i_glide_ecoul>  (317) 
-6.57469

>  <r_i_glide_erotb>  (317) 
0

>  <r_i_glide_esite>  (317) 
-0.110814

>  <r_i_glide_emodel>  (317) 
-26.0286

>  <r_i_glide_energy>  (317) 
-19.034

>  <r_i_glide_einternal>  (317) 
0.233973

>  <r_i_glide_intrahb_reward>  (317) 
-0

>  <i_i_glide_confnum>  (317) 
1

>  <i_i_glide_posenum>  (317) 
1

>  <r_i_glide_eff_state_penalty>  (317) 
0

>  <ligand_id>  (317) 
94

>  <original_smiles>  (317) 
N=C(N)C12CC3CC(CC(C3)C1)C2

>  <smiles>  (317) 
[H]N([H])C(=[N+]([H])[H])C12C([H])([H])C3([H])C([H])([H])C([H])(C([H])([H])C([H])(C3([H])[H])C1([H])[H])C2([H])[H]

$$$$
95:0:0
     RDKit          3D

 50 56  0  0  1  0  0  0  0  0999 V2000
    3.2534   -1.7103    5.6626 C   0  0  0  0  0  0  0  0  0  0  0  0
    3.8056   -1.6428    4.3438 O   0  0  0  0  0  0  0  0  0  0  0  0
    3.9414   -2.8903    3.6517 C   0  0  2  0  0  0  0  0  0  0  0  0
    5.3325   -3.4603    4.0936 C   0  0  0  0  0  0  0  0  0  0  0  0
    5.6629   -4.8654    3.5560 C   0  0  0  0  0  0  0  0  0  0  0  0
    5.4638   -4.7702    2.0887 C   0  0  2  0  0  0  0  0  0  0  0  0
    6.5619   -4.6444    1.0560 C   0  0  2  0  0  0  0  0  0  0  0  0
    6.4603   -3.5362    0.0725 C   0  0  0  0  0  0  0  0  0  0  0  0
    6.1155   -2.1735    0.6925 C   0  0  1  0  0  0  0  0  0  0  0  0
    5.0536   -1.3030    0.0834 C   0  0  1  0  0  0  0  0  0  0  0  0
    4.3114   -1.7053   -1.1564 C   0  0  0  0  0  0  0  0  0  0  0  0
    4.6134   -0.9507   -2.3125 C   0  0  0  0  0  0  0  0  0  0  0  0
    4.0780   -1.2286   -3.5765 C   0  0  0  0  0  0  0  0  0  0  0  0
    3.1869   -2.3080   -3.7055 C   0  0  0  0  0  0  0  0  0  0  0  0
    2.8427   -3.0493   -2.5764 C   0  0  0  0  0  0  0  0  0  0  0  0
    3.3774   -2.7874   -1.2968 C   0  0  0  0  0  0  0  0  0  0  0  0
    2.8020   -3.6989   -0.2016 C   0  0  0  0  0  0  0  0  0  0  0  0
    3.3381   -3.8875    1.2421 C   0  0  1  0  0  0  0  0  0  0  0  0
    4.1226   -5.1415    1.5400 C   0  0  1  0  0  0  0  0  0  0  0  0
    5.4438   -5.7059    0.9752 C   0  0  2  0  0  0  0  0  0  0  0  0
    3.7000   -2.6234    2.0969 C   0  0  1  0  0  0  0  0  0  0  0  0
    2.5313   -1.7903    1.9699 O   0  0  0  0  0  0  0  0  0  0  0  0
    1.3508   -2.1194    2.7065 C   0  0  0  0  0  0  0  0  0  0  0  0
    4.8536   -1.7683    1.5075 C   0  0  1  0  0  0  0  0  0  0  0  0
    3.1872   -0.6973    6.0588 H   0  0  0  0  0  0  0  0  0  0  0  0
    3.8675   -2.2993    6.3447 H   0  0  0  0  0  0  0  0  0  0  0  0
    2.2496   -2.1250    5.6904 H   0  0  0  0  0  0  0  0  0  0  0  0
    3.1872   -3.5929    4.0039 H   0  0  0  0  0  0  0  0  0  0  0  0
    6.0881   -2.7378    3.7674 H   0  0  0  0  0  0  0  0  0  0  0  0
    5.3872   -3.4705    5.1841 H   0  0  0  0  0  0  0  0  0  0  0  0
    6.6829   -5.1444    3.8289 H   0  0  0  0  0  0  0  0  0  0  0  0
    4.9887   -5.5968    4.0178 H   0  0  0  0  0  0  0  0  0  0  0  0
    7.5627   -5.0292    1.3060 H   0  0  0  0  0  0  0  0  0  0  0  0
    7.3536   -3.4636   -0.5380 H   0  0  0  0  0  0  0  0  0  0  0  0
    5.6640   -3.8252   -0.6196 H   0  0  0  0  0  0  0  0  0  0  0  0
    7.0263   -1.6598    1.0052 H   0  0  0  0  0  0  0  0  0  0  0  0
    5.3132   -0.2489   -0.0172 H   0  0  0  0  0  0  0  0  0  0  0  0
    5.3074   -0.1174   -2.2547 H   0  0  0  0  0  0  0  0  0  0  0  0
    4.3462   -0.6384   -4.4495 H   0  0  0  0  0  0  0  0  0  0  0  0
    2.7523   -2.5506   -4.6781 H   0  0  0  0  0  0  0  0  0  0  0  0
    2.1233   -3.8660   -2.7024 H   0  0  0  0  0  0  0  0  0  0  0  0
    1.8106   -3.2694   -0.0744 H   0  0  0  0  0  0  0  0  0  0  0  0
    2.6406   -4.6832   -0.6363 H   0  0  0  0  0  0  0  0  0  0  0  0
    2.4297   -4.2415    1.6926 H   0  0  0  0  0  0  0  0  0  0  0  0
    3.5393   -5.9376    2.0173 H   0  0  0  0  0  0  0  0  0  0  0  0
    5.6928   -6.7346    1.2110 H   0  0  0  0  0  0  0  0  0  0  0  0
    0.4934   -1.5757    2.3005 H   0  0  0  0  0  0  0  0  0  0  0  0
    1.4147   -1.8177    3.7246 H   0  0  0  0  0  0  0  0  0  0  0  0
    1.0727   -3.1803    2.7213 H   0  0  0  0  0  0  0  0  0  0  0  0
    5.0933   -0.9678    2.2056 H   0  0  0  0  0  0  0  0  0  0  0  0
  1  2  1  0
  1 25  1  0
  1 26  1  0
  1 27  1  0
  2  3  1  0
  3 21  1  0
  3  4  1  0
  3 28  1  1
  4  5  1  0
  4 29  1  0
  4 30  1  0
  6  5  1  1
  5 31  1  0
  5 32  1  0
  6 19  1  0
  6 20  1  0
  6  7  1  0
  7 20  1  0
  7  8  1  0
  7 33  1  1
  8  9  1  0
  8 34  1  0
  8 35  1  0
  9 24  1  0
  9 10  1  0
  9 36  1  1
 10 24  1  0
 10 11  1  0
 10 37  1  1
 11 16  2  0
 11 12  1  0
 12 13  2  0
 12 38  1  0
 13 14  1  0
 13 39  1  0
 14 15  2  0
 14 40  1  0
 15 16  1  0
 15 41  1  0
 16 17  1  0
 17 18  1  0
 17 42  1  0
 17 43  1  0
 18 19  1  0
 18 21  1  0
 18 44  1  1
 19 20  1  0
 19 45  1  1
 20 46  1  1
 21 22  1  1
 21 24  1  0
 22 23  1  0
 23 47  1  0
 23 48  1  0
 23 49  1  0
 24 50  1  1
M  END
>  <i_m_ct_stereo_status>  (318) 
1

>  <s_m_source_file>  (318) 
/var/tmp/pbs.5076255.sched01/tmpzqmxgpmu/1265eqpa8lp.sdf

>  <i_m_source_file_index>  (318) 
9

>  <i_lp_mmshare_version>  (318) 
48012

>  <i_f3d_flags>  (318) 
0

>  <s_epik_input>  (318) 
QzEyM1tDQEhdNFtDQEBIXTNbQ0BASF0yW0NASF01W0NAQF0oT1tDSDNdKShbQ0BIXShPW0NIM10pW0NIMl1bQ0gyXTEpW0NASF02W0NAQEhdKFtDSDJdNClbQ0BIXTZjN2MoW0NIMl01KVtjSF1bY0hdW2NIXVtjSF03

>  <s_epik_cmdline>  (318) 
J2VwaWtfcHl0aG9uJywgJy1waHQnLCAnMi4wJywgJy1waCcsICc3LjAnLCAnLXRuJywgJzgnLCAnLW1hJywgJzIwMCcsICctaW1hZScsICc8aW5maWxlLm1hZT4nLCAnLW9tYWUnLCAnPG91dGZpbGUubWFlPic=

>  <r_lp_tautomer_probability>  (318) 
1

>  <r_epik_Ionization_Penalty>  (318) 
1.86676e-11

>  <r_epik_Ionization_Penalty_Charging>  (318) 
0

>  <r_epik_Ionization_Penalty_Neutral>  (318) 
1.86676e-11

>  <r_epik_State_Penalty>  (318) 
-0

>  <r_epik_Charging_Adjusted_Penalty>  (318) 
0

>  <i_epik_Tot_Q>  (318) 
0

>  <i_epik_Tot_abs_Q>  (318) 
0

>  <s_lp_Force_Field>  (318) 
OPLS3e

>  <r_lp_Energy>  (318) 
94.0955

>  <b_lp_Chiralities_Consistent>  (318) 
1

>  <s_lp_Variant>  (318) 
95:0-1

>  <s_i_glide_gridfile>  (318) 
pfpi4k_grid

>  <i_i_glide_lignum>  (318) 
9

>  <i_i_glide_rotatable_bonds>  (318) 
2

>  <r_i_docking_score>  (318) 
-3.22349

>  <r_i_glide_ligand_efficiency>  (318) 
-0.134312

>  <r_i_glide_ligand_efficiency_sa>  (318) 
-0.387424

>  <r_i_glide_ligand_efficiency_ln>  (318) 
-0.77153

>  <r_i_glide_gscore>  (318) 
-3.22349

>  <r_i_glide_lipo>  (318) 
-0.954812

>  <r_i_glide_hbond>  (318) 
0

>  <r_i_glide_metal>  (318) 
-0

>  <r_i_glide_rewards>  (318) 
-1.21063

>  <r_i_glide_evdw>  (318) 
-20.4709

>  <r_i_glide_ecoul>  (318) 
-0.230021

>  <r_i_glide_erotb>  (318) 
0

>  <r_i_glide_esite>  (318) 
0

>  <r_i_glide_emodel>  (318) 
-22.5663

>  <r_i_glide_energy>  (318) 
-20.701

>  <r_i_glide_einternal>  (318) 
2.80116

>  <r_i_glide_intrahb_reward>  (318) 
-0

>  <i_i_glide_confnum>  (318) 
1

>  <i_i_glide_posenum>  (318) 
11

>  <r_i_glide_eff_state_penalty>  (318) 
0

>  <ligand_id>  (318) 
95

>  <original_smiles>  (318) 
COC1CCC23C4CC5C6c7ccccc7CC(C2C43)C1(OC)C56

>  <smiles>  (318) 
[H]c1c([H])c([H])c2c(c1[H])C([H])([H])C1([H])C3([H])C4([H])C5([H])C([H])([H])C6([H])C2([H])C6([H])C1(OC([H])([H])[H])C([H])(OC([H])([H])[H])C([H])([H])C([H])([H])C534

$$$$
95:0:1
     RDKit          3D

 50 56  0  0  1  0  0  0  0  0999 V2000
    4.4843   -0.8449    4.7989 C   0  0  0  0  0  0  0  0  0  0  0  0
    3.4637   -1.7220    4.3653 O   0  0  0  0  0  0  0  0  0  0  0  0
    3.7291   -2.9055    3.5959 C   0  0  2  0  0  0  0  0  0  0  0  0
    5.0433   -3.5149    4.1518 C   0  0  0  0  0  0  0  0  0  0  0  0
    5.4923   -4.8943    3.6487 C   0  0  0  0  0  0  0  0  0  0  0  0
    5.4060   -4.8110    2.1495 C   0  0  2  0  0  0  0  0  0  0  0  0
    6.5487   -4.5311    1.1891 C   0  0  2  0  0  0  0  0  0  0  0  0
    6.4432   -3.3952    0.2106 C   0  0  0  0  0  0  0  0  0  0  0  0
    6.0215   -2.0778    0.8341 C   0  0  1  0  0  0  0  0  0  0  0  0
    4.9420   -1.2197    0.1451 C   0  0  1  0  0  0  0  0  0  0  0  0
    4.2869   -1.6530   -1.1198 C   0  0  0  0  0  0  0  0  0  0  0  0
    4.6181   -0.8116   -2.2411 C   0  0  0  0  0  0  0  0  0  0  0  0
    4.1658   -1.1108   -3.5344 C   0  0  0  0  0  0  0  0  0  0  0  0
    3.3667   -2.2075   -3.7430 C   0  0  0  0  0  0  0  0  0  0  0  0
    2.9807   -3.0254   -2.6585 C   0  0  0  0  0  0  0  0  0  0  0  0
    3.4395   -2.7453   -1.3378 C   0  0  0  0  0  0  0  0  0  0  0  0
    2.8275   -3.7332   -0.2872 C   0  0  0  0  0  0  0  0  0  0  0  0
    3.2945   -3.9087    1.1935 C   0  0  1  0  0  0  0  0  0  0  0  0
    4.1156   -5.1702    1.4915 C   0  0  1  0  0  0  0  0  0  0  0  0
    5.5039   -5.6346    0.9957 C   0  0  2  0  0  0  0  0  0  0  0  0
    3.5780   -2.6211    2.0386 C   0  0  1  0  0  0  0  0  0  0  0  0
    2.2825   -2.0139    1.9212 O   0  0  0  0  0  0  0  0  0  0  0  0
    2.1259   -0.6036    1.8549 C   0  0  0  0  0  0  0  0  0  0  0  0
    4.6908   -1.7042    1.5144 C   0  0  1  0  0  0  0  0  0  0  0  0
    4.0513    0.0069    5.2682 H   0  0  0  0  0  0  0  0  0  0  0  0
    5.1079   -0.4681    4.0135 H   0  0  0  0  0  0  0  0  0  0  0  0
    5.1315   -1.3074    5.4895 H   0  0  0  0  0  0  0  0  0  0  0  0
    2.9288   -3.6357    3.8453 H   0  0  0  0  0  0  0  0  0  0  0  0
    5.8497   -2.8360    3.8984 H   0  0  0  0  0  0  0  0  0  0  0  0
    4.9909   -3.5685    5.2428 H   0  0  0  0  0  0  0  0  0  0  0  0
    6.5221   -5.0924    3.9950 H   0  0  0  0  0  0  0  0  0  0  0  0
    4.8482   -5.6794    4.0662 H   0  0  0  0  0  0  0  0  0  0  0  0
    7.5425   -4.8415    1.4844 H   0  0  0  0  0  0  0  0  0  0  0  0
    7.3842   -3.2758   -0.3298 H   0  0  0  0  0  0  0  0  0  0  0  0
    5.7051   -3.7172   -0.5436 H   0  0  0  0  0  0  0  0  0  0  0  0
    6.8808   -1.5273    1.2023 H   0  0  0  0  0  0  0  0  0  0  0  0
    5.1273   -0.1548    0.1037 H   0  0  0  0  0  0  0  0  0  0  0  0
    5.2521    0.0414   -2.0978 H   0  0  0  0  0  0  0  0  0  0  0  0
    4.4601   -0.4622   -4.3574 H   0  0  0  0  0  0  0  0  0  0  0  0
    3.0107   -2.4585   -4.7140 H   0  0  0  0  0  0  0  0  0  0  0  0
    2.3315   -3.8584   -2.8397 H   0  0  0  0  0  0  0  0  0  0  0  0
    1.8122   -3.3618   -0.2136 H   0  0  0  0  0  0  0  0  0  0  0  0
    2.7538   -4.7164   -0.7360 H   0  0  0  0  0  0  0  0  0  0  0  0
    2.3570   -4.2617    1.6222 H   0  0  0  0  0  0  0  0  0  0  0  0
    3.5424   -6.0015    1.8773 H   0  0  0  0  0  0  0  0  0  0  0  0
    5.8001   -6.6656    1.1060 H   0  0  0  0  0  0  0  0  0  0  0  0
    1.0654   -0.3602    1.8878 H   0  0  0  0  0  0  0  0  0  0  0  0
    2.5094   -0.1928    0.9207 H   0  0  0  0  0  0  0  0  0  0  0  0
    2.5977   -0.0817    2.6863 H   0  0  0  0  0  0  0  0  0  0  0  0
    4.7495   -0.8371    2.1186 H   0  0  0  0  0  0  0  0  0  0  0  0
  1  2  1  0
  1 25  1  0
  1 26  1  0
  1 27  1  0
  2  3  1  0
  3 21  1  0
  3  4  1  0
  3 28  1  1
  4  5  1  0
  4 29  1  0
  4 30  1  0
  6  5  1  1
  5 31  1  0
  5 32  1  0
  6 19  1  0
  6 20  1  0
  6  7  1  0
  7 20  1  0
  7  8  1  0
  7 33  1  1
  8  9  1  0
  8 34  1  0
  8 35  1  0
  9 24  1  0
  9 10  1  0
  9 36  1  1
 10 24  1  0
 10 11  1  0
 10 37  1  1
 11 16  2  0
 11 12  1  0
 12 13  2  0
 12 38  1  0
 13 14  1  0
 13 39  1  0
 14 15  2  0
 14 40  1  0
 15 16  1  0
 15 41  1  0
 16 17  1  0
 17 18  1  0
 17 42  1  0
 17 43  1  0
 18 19  1  0
 18 21  1  0
 18 44  1  1
 19 20  1  0
 19 45  1  1
 20 46  1  1
 21 22  1  1
 21 24  1  0
 22 23  1  0
 23 47  1  0
 23 48  1  0
 23 49  1  0
 24 50  1  1
M  END
>  <i_m_ct_stereo_status>  (319) 
1

>  <s_m_source_file>  (319) 
/var/tmp/pbs.5076255.sched01/tmpzqmxgpmu/1265eqpa8lp.sdf

>  <i_m_source_file_index>  (319) 
9

>  <i_lp_mmshare_version>  (319) 
48012

>  <i_f3d_flags>  (319) 
0

>  <s_epik_input>  (319) 
QzEyM1tDQEhdNFtDQEBIXTNbQ0BASF0yW0NASF01W0NAQF0oT1tDSDNdKShbQ0BIXShPW0NIM10pW0NIMl1bQ0gyXTEpW0NASF02W0NAQEhdKFtDSDJdNClbQ0BIXTZjN2MoW0NIMl01KVtjSF1bY0hdW2NIXVtjSF03

>  <s_epik_cmdline>  (319) 
J2VwaWtfcHl0aG9uJywgJy1waHQnLCAnMi4wJywgJy1waCcsICc3LjAnLCAnLXRuJywgJzgnLCAnLW1hJywgJzIwMCcsICctaW1hZScsICc8aW5maWxlLm1hZT4nLCAnLW9tYWUnLCAnPG91dGZpbGUubWFlPic=

>  <r_lp_tautomer_probability>  (319) 
1

>  <r_epik_Ionization_Penalty>  (319) 
1.86676e-11

>  <r_epik_Ionization_Penalty_Charging>  (319) 
0

>  <r_epik_Ionization_Penalty_Neutral>  (319) 
1.86676e-11

>  <r_epik_State_Penalty>  (319) 
-0

>  <r_epik_Charging_Adjusted_Penalty>  (319) 
0

>  <i_epik_Tot_Q>  (319) 
0

>  <i_epik_Tot_abs_Q>  (319) 
0

>  <s_lp_Force_Field>  (319) 
OPLS3e

>  <r_lp_Energy>  (319) 
94.0955

>  <b_lp_Chiralities_Consistent>  (319) 
1

>  <s_lp_Variant>  (319) 
95:0-1

>  <s_i_glide_gridfile>  (319) 
pfpi4k_grid

>  <i_i_glide_lignum>  (319) 
9

>  <i_i_glide_rotatable_bonds>  (319) 
2

>  <r_i_docking_score>  (319) 
-3.16748

>  <r_i_glide_ligand_efficiency>  (319) 
-0.131978

>  <r_i_glide_ligand_efficiency_sa>  (319) 
-0.380692

>  <r_i_glide_ligand_efficiency_ln>  (319) 
-0.758124

>  <r_i_glide_gscore>  (319) 
-3.16748

>  <r_i_glide_lipo>  (319) 
-0.927751

>  <r_i_glide_hbond>  (319) 
0

>  <r_i_glide_metal>  (319) 
-0

>  <r_i_glide_rewards>  (319) 
-1.21063

>  <r_i_glide_evdw>  (319) 
-22.4744

>  <r_i_glide_ecoul>  (319) 
0.630828

>  <r_i_glide_erotb>  (319) 
0

>  <r_i_glide_esite>  (319) 
0

>  <r_i_glide_emodel>  (319) 
-20.14

>  <r_i_glide_energy>  (319) 
-21.8436

>  <r_i_glide_einternal>  (319) 
9.56878

>  <r_i_glide_intrahb_reward>  (319) 
-0

>  <i_i_glide_confnum>  (319) 
1

>  <i_i_glide_posenum>  (319) 
15

>  <r_i_glide_eff_state_penalty>  (319) 
0

>  <ligand_id>  (319) 
95

>  <original_smiles>  (319) 
COC1CCC23C4CC5C6c7ccccc7CC(C2C43)C1(OC)C56

>  <smiles>  (319) 
[H]c1c([H])c([H])c2c(c1[H])C([H])([H])C1([H])C3([H])C4([H])C5([H])C([H])([H])C6([H])C2([H])C6([H])C1(OC([H])([H])[H])C([H])(OC([H])([H])[H])C([H])([H])C([H])([H])C534

$$$$
95:0:2
     RDKit          3D

 50 56  0  0  1  0  0  0  0  0999 V2000
    3.1320   -5.9057    5.3024 C   0  0  0  0  0  0  0  0  0  0  0  0
    3.6541   -4.9882    4.3461 O   0  0  0  0  0  0  0  0  0  0  0  0
    4.5860   -5.5267    3.3974 C   0  0  2  0  0  0  0  0  0  0  0  0
    5.9845   -5.4359    4.0959 C   0  0  0  0  0  0  0  0  0  0  0  0
    7.1519   -6.0697    3.3020 C   0  0  0  0  0  0  0  0  0  0  0  0
    7.0796   -5.4361    1.9455 C   0  0  2  0  0  0  0  0  0  0  0  0
    7.9872   -4.3470    1.4506 C   0  0  2  0  0  0  0  0  0  0  0  0
    7.3122   -3.1236    0.8747 C   0  0  0  0  0  0  0  0  0  0  0  0
    6.1711   -2.5795    1.7252 C   0  0  1  0  0  0  0  0  0  0  0  0
    4.8594   -2.1947    1.0936 C   0  0  1  0  0  0  0  0  0  0  0  0
    4.6428   -2.3063   -0.3804 C   0  0  0  0  0  0  0  0  0  0  0  0
    4.5536   -1.0660   -1.0624 C   0  0  0  0  0  0  0  0  0  0  0  0
    4.4059   -0.9805   -2.4563 C   0  0  0  0  0  0  0  0  0  0  0  0
    4.3506   -2.1565   -3.2143 C   0  0  0  0  0  0  0  0  0  0  0  0
    4.4353   -3.4025   -2.5546 C   0  0  0  0  0  0  0  0  0  0  0  0
    4.5668   -3.5145   -1.1559 C   0  0  0  0  0  0  0  0  0  0  0  0
    4.5460   -4.9628   -0.6619 C   0  0  0  0  0  0  0  0  0  0  0  0
    4.9407   -5.4845    0.7437 C   0  0  1  0  0  0  0  0  0  0  0  0
    6.2873   -6.1654    0.9047 C   0  0  1  0  0  0  0  0  0  0  0  0
    7.7202   -5.6544    0.6752 C   0  0  2  0  0  0  0  0  0  0  0  0
    4.3701   -4.7615    2.0108 C   0  0  1  0  0  0  0  0  0  0  0  0
    2.9633   -4.6840    1.7536 O   0  0  0  0  0  0  0  0  0  0  0  0
    2.1466   -5.8738    1.8791 C   0  0  0  0  0  0  0  0  0  0  0  0
    4.8391   -3.2795    2.1444 C   0  0  1  0  0  0  0  0  0  0  0  0
    2.4359   -5.3761    5.9499 H   0  0  0  0  0  0  0  0  0  0  0  0
    3.9075   -6.3426    5.9325 H   0  0  0  0  0  0  0  0  0  0  0  0
    2.5766   -6.7214    4.8356 H   0  0  0  0  0  0  0  0  0  0  0  0
    4.3772   -6.5787    3.2385 H   0  0  0  0  0  0  0  0  0  0  0  0
    6.1943   -4.3867    4.3174 H   0  0  0  0  0  0  0  0  0  0  0  0
    5.9387   -5.9281    5.0712 H   0  0  0  0  0  0  0  0  0  0  0  0
    8.1046   -5.8795    3.7893 H   0  0  0  0  0  0  0  0  0  0  0  0
    7.0089   -7.1473    3.2359 H   0  0  0  0  0  0  0  0  0  0  0  0
    8.9624   -4.2546    1.8867 H   0  0  0  0  0  0  0  0  0  0  0  0
    8.0491   -2.3403    0.6659 H   0  0  0  0  0  0  0  0  0  0  0  0
    6.9338   -3.4303   -0.0889 H   0  0  0  0  0  0  0  0  0  0  0  0
    6.5360   -1.8653    2.4715 H   0  0  0  0  0  0  0  0  0  0  0  0
    4.4448   -1.2452    1.4185 H   0  0  0  0  0  0  0  0  0  0  0  0
    4.6035   -0.1411   -0.5107 H   0  0  0  0  0  0  0  0  0  0  0  0
    4.3317   -0.0207   -2.9448 H   0  0  0  0  0  0  0  0  0  0  0  0
    4.2380   -2.1165   -4.2840 H   0  0  0  0  0  0  0  0  0  0  0  0
    4.3657   -4.2943   -3.1592 H   0  0  0  0  0  0  0  0  0  0  0  0
    3.4841   -5.1935   -0.7137 H   0  0  0  0  0  0  0  0  0  0  0  0
    5.0360   -5.5893   -1.4101 H   0  0  0  0  0  0  0  0  0  0  0  0
    4.3860   -6.4214    0.7152 H   0  0  0  0  0  0  0  0  0  0  0  0
    6.2516   -7.2306    0.9533 H   0  0  0  0  0  0  0  0  0  0  0  0
    8.5240   -6.4025    0.6408 H   0  0  0  0  0  0  0  0  0  0  0  0
    1.1893   -5.7282    1.3854 H   0  0  0  0  0  0  0  0  0  0  0  0
    1.9394   -6.0959    2.9149 H   0  0  0  0  0  0  0  0  0  0  0  0
    2.5790   -6.7679    1.4396 H   0  0  0  0  0  0  0  0  0  0  0  0
    4.4806   -2.8871    3.1057 H   0  0  0  0  0  0  0  0  0  0  0  0
  1  2  1  0
  1 25  1  0
  1 26  1  0
  1 27  1  0
  2  3  1  0
  3 21  1  0
  3  4  1  0
  3 28  1  6
  4  5  1  0
  4 29  1  0
  4 30  1  0
  6  5  1  1
  5 31  1  0
  5 32  1  0
  6 19  1  0
  6 20  1  0
  6  7  1  0
  7 20  1  0
  7  8  1  0
  7 33  1  1
  8  9  1  0
  8 34  1  0
  8 35  1  0
  9 24  1  0
  9 10  1  0
  9 36  1  1
 10 24  1  0
 10 11  1  0
 10 37  1  1
 11 16  2  0
 11 12  1  0
 12 13  2  0
 12 38  1  0
 13 14  1  0
 13 39  1  0
 14 15  2  0
 14 40  1  0
 15 16  1  0
 15 41  1  0
 16 17  1  0
 17 18  1  0
 17 42  1  0
 17 43  1  0
 18 19  1  0
 18 21  1  0
 18 44  1  6
 19 20  1  0
 19 45  1  1
 20 46  1  1
 21 22  1  6
 21 24  1  0
 22 23  1  0
 23 47  1  0
 23 48  1  0
 23 49  1  0
 24 50  1  1
M  END
>  <i_m_ct_stereo_status>  (320) 
1

>  <s_m_source_file>  (320) 
/var/tmp/pbs.5076255.sched01/tmpzqmxgpmu/1265eqpa8lp.sdf

>  <i_m_source_file_index>  (320) 
9

>  <i_lp_mmshare_version>  (320) 
48012

>  <i_f3d_flags>  (320) 
0

>  <s_epik_input>  (320) 
QzEyM1tDQEhdNFtDQEBIXTNbQ0BASF0yW0NASF01W0NAQF0oT1tDSDNdKShbQ0BIXShPW0NIM10pW0NIMl1bQ0gyXTEpW0NASF02W0NAQEhdKFtDSDJdNClbQ0BIXTZjN2MoW0NIMl01KVtjSF1bY0hdW2NIXVtjSF03

>  <s_epik_cmdline>  (320) 
J2VwaWtfcHl0aG9uJywgJy1waHQnLCAnMi4wJywgJy1waCcsICc3LjAnLCAnLXRuJywgJzgnLCAnLW1hJywgJzIwMCcsICctaW1hZScsICc8aW5maWxlLm1hZT4nLCAnLW9tYWUnLCAnPG91dGZpbGUubWFlPic=

>  <r_lp_tautomer_probability>  (320) 
1

>  <r_epik_Ionization_Penalty>  (320) 
1.86676e-11

>  <r_epik_Ionization_Penalty_Charging>  (320) 
0

>  <r_epik_Ionization_Penalty_Neutral>  (320) 
1.86676e-11

>  <r_epik_State_Penalty>  (320) 
-0

>  <r_epik_Charging_Adjusted_Penalty>  (320) 
0

>  <i_epik_Tot_Q>  (320) 
0

>  <i_epik_Tot_abs_Q>  (320) 
0

>  <s_lp_Force_Field>  (320) 
OPLS3e

>  <r_lp_Energy>  (320) 
94.0955

>  <b_lp_Chiralities_Consistent>  (320) 
1

>  <s_lp_Variant>  (320) 
95:0-1

>  <s_i_glide_gridfile>  (320) 
pfpi4k_grid

>  <i_i_glide_lignum>  (320) 
9

>  <i_i_glide_rotatable_bonds>  (320) 
2

>  <r_i_docking_score>  (320) 
-2.9141

>  <r_i_glide_ligand_efficiency>  (320) 
-0.121421

>  <r_i_glide_ligand_efficiency_sa>  (320) 
-0.350238

>  <r_i_glide_ligand_efficiency_ln>  (320) 
-0.697477

>  <r_i_glide_gscore>  (320) 
-2.9141

>  <r_i_glide_lipo>  (320) 
-0.755872

>  <r_i_glide_hbond>  (320) 
0

>  <r_i_glide_metal>  (320) 
-0

>  <r_i_glide_rewards>  (320) 
-1.21063

>  <r_i_glide_evdw>  (320) 
-19.9156

>  <r_i_glide_ecoul>  (320) 
0.321261

>  <r_i_glide_erotb>  (320) 
0

>  <r_i_glide_esite>  (320) 
0

>  <r_i_glide_emodel>  (320) 
-20.9974

>  <r_i_glide_energy>  (320) 
-19.5944

>  <r_i_glide_einternal>  (320) 
2.91036

>  <r_i_glide_intrahb_reward>  (320) 
-0

>  <i_i_glide_confnum>  (320) 
2

>  <i_i_glide_posenum>  (320) 
23

>  <r_i_glide_eff_state_penalty>  (320) 
0

>  <ligand_id>  (320) 
95

>  <original_smiles>  (320) 
COC1CCC23C4CC5C6c7ccccc7CC(C2C43)C1(OC)C56

>  <smiles>  (320) 
[H]c1c([H])c([H])c2c(c1[H])C([H])([H])C1([H])C3([H])C4([H])C5([H])C([H])([H])C6([H])C2([H])C6([H])C1(OC([H])([H])[H])C([H])(OC([H])([H])[H])C([H])([H])C([H])([H])C534

$$$$
96:0:0
     RDKit          3D

 50 55  0  0  1  0  0  0  0  0999 V2000
    8.7530   -2.7034   -0.2018 C   0  0  0  0  0  0  0  0  0  0  0  0
    7.2642   -2.8833   -0.3518 C   0  0  0  0  0  0  0  0  0  0  0  0
    6.7850   -3.3905   -1.5550 C   0  0  0  0  0  0  0  0  0  0  0  0
    5.2879   -3.8007   -1.9383 C   0  0  1  0  0  0  0  0  0  0  0  0
    4.6408   -4.1785   -0.7067 N   0  0  0  0  0  0  0  0  0  0  0  0
    3.1647   -4.3916   -0.5578 C   0  0  1  0  0  0  0  0  0  0  0  0
    2.7286   -5.5860    0.3056 C   0  0  0  0  0  0  0  0  0  0  0  0
    3.6721   -6.4099    0.9414 C   0  0  0  0  0  0  0  0  0  0  0  0
    3.2318   -7.4020    1.8244 C   0  0  0  0  0  0  0  0  0  0  0  0
    1.8582   -7.7064    1.8617 C   0  0  0  0  0  0  0  0  0  0  0  0
    0.9920   -6.9461    1.0621 C   0  0  0  0  0  0  0  0  0  0  0  0
    1.4033   -5.8577    0.3497 N   0  0  0  0  0  0  0  0  0  0  0  0
    2.7157   -2.9546   -0.1383 C   0  0  1  0  0  0  0  0  0  0  0  0
    3.4488   -2.3683    1.1398 C   0  0  0  0  0  0  0  0  0  0  0  0
    2.9157   -1.6422    1.9771 O   0  0  0  0  0  0  0  0  0  0  0  0
    4.9253   -2.8190    1.1634 C   0  0  2  0  0  0  0  0  0  0  0  0
    5.0110   -4.0151    2.1431 C   0  0  0  0  0  0  0  0  0  0  0  0
    6.4350   -2.3400    0.9264 C   0  0  0  0  0  0  0  0  0  0  0  0
    4.6605   -2.7910   -0.3184 C   0  0  2  0  0  0  0  0  0  0  0  0
    3.5324   -2.2356   -1.1582 C   0  0  2  0  0  0  0  0  0  0  0  0
    3.4347   -0.7185   -1.2838 C   0  0  0  0  0  0  0  0  0  0  0  0
    4.2919   -0.3602   -2.4359 C   0  0  0  0  0  0  0  0  0  0  0  0
    4.7150   -1.4440   -3.0664 C   0  0  0  0  0  0  0  0  0  0  0  0
    4.2123   -2.7446   -2.4965 C   0  0  1  0  0  0  0  0  0  0  0  0
    3.2841   -3.2817   -3.6184 C   0  0  0  0  0  0  0  0  0  0  0  0
    4.0065   -4.2248   -4.3235 O   0  0  0  0  0  0  0  0  0  0  0  0
    9.1664   -3.3087    0.6075 H   0  0  0  0  0  0  0  0  0  0  0  0
    8.9918   -1.6559   -0.0267 H   0  0  0  0  0  0  0  0  0  0  0  0
    9.2641   -3.0136   -1.1117 H   0  0  0  0  0  0  0  0  0  0  0  0
    7.4964   -3.6448   -2.3228 H   0  0  0  0  0  0  0  0  0  0  0  0
    5.4010   -4.6847   -2.5525 H   0  0  0  0  0  0  0  0  0  0  0  0
    2.7023   -4.5872   -1.5087 H   0  0  0  0  0  0  0  0  0  0  0  0
    4.7054   -6.3023    0.8005 H   0  0  0  0  0  0  0  0  0  0  0  0
    3.9348   -7.9175    2.4490 H   0  0  0  0  0  0  0  0  0  0  0  0
    1.5012   -8.5369    2.4568 H   0  0  0  0  0  0  0  0  0  0  0  0
   -0.0725   -7.2254    0.9714 H   0  0  0  0  0  0  0  0  0  0  0  0
    1.6489   -2.7469   -0.1984 H   0  0  0  0  0  0  0  0  0  0  0  0
    5.4387   -3.7420    3.1033 H   0  0  0  0  0  0  0  0  0  0  0  0
    5.6836   -4.7572    1.7312 H   0  0  0  0  0  0  0  0  0  0  0  0
    4.0345   -4.4117    2.4047 H   0  0  0  0  0  0  0  0  0  0  0  0
    7.0053   -2.6769    1.7863 H   0  0  0  0  0  0  0  0  0  0  0  0
    6.4997   -1.2493    0.9430 H   0  0  0  0  0  0  0  0  0  0  0  0
    5.2519   -1.9508   -0.7227 H   0  0  0  0  0  0  0  0  0  0  0  0
    2.4950   -0.4304   -1.7053 H   0  0  0  0  0  0  0  0  0  0  0  0
    3.7320   -0.2537   -0.3484 H   0  0  0  0  0  0  0  0  0  0  0  0
    4.4165    0.6591   -2.7562 H   0  0  0  0  0  0  0  0  0  0  0  0
    5.2661   -1.4370   -3.9814 H   0  0  0  0  0  0  0  0  0  0  0  0
    2.3460   -3.6838   -3.2492 H   0  0  0  0  0  0  0  0  0  0  0  0
    2.9952   -2.4936   -4.3245 H   0  0  0  0  0  0  0  0  0  0  0  0
    3.8385   -5.0502   -3.8595 H   0  0  0  0  0  0  0  0  0  0  0  0
  1  2  1  0
  1 27  1  0
  1 28  1  0
  1 29  1  0
  2 18  1  0
  2  3  2  0
  3  4  1  0
  3 30  1  0
  4 24  1  0
  4  5  1  0
  4 31  1  6
  5 19  1  0
  5  6  1  0
  6  7  1  0
  6 13  1  0
  6 32  1  6
  7 12  1  0
  7  8  2  0
  8  9  1  0
  8 33  1  0
  9 10  2  0
  9 34  1  0
 10 11  1  0
 10 35  1  0
 11 12  2  0
 11 36  1  0
 13 20  1  0
 13 14  1  0
 13 37  1  1
 14 15  2  0
 14 16  1  0
 16 17  1  1
 16 18  1  0
 16 19  1  0
 17 38  1  0
 17 39  1  0
 17 40  1  0
 18 41  1  0
 18 42  1  0
 19 20  1  0
 19 43  1  6
 20 24  1  0
 20 21  1  6
 21 22  1  0
 21 44  1  0
 21 45  1  0
 22 23  2  0
 22 46  1  0
 23 24  1  0
 23 47  1  0
 24 25  1  6
 25 26  1  0
 25 48  1  0
 25 49  1  0
 26 50  1  0
M  END
>  <i_m_ct_stereo_status>  (321) 
1

>  <s_m_source_file>  (321) 
/var/tmp/pbs.5076255.sched01/tmpzqmxgpmu/1265eqpa8lp.sdf

>  <i_m_source_file_index>  (321) 
10

>  <i_lp_mmshare_version>  (321) 
48012

>  <i_f3d_flags>  (321) 
0

>  <s_epik_input>  (321) 
Tz1DMVtDQEBdKFtDSDNdKShbQ0hdMjMpW0NIMl1DKFtDSDNdKT1bQ0hdW0NASF0oW0NAXTQoW0NIMl1bT0hdKVtDSF09W0NIXVtDSDJdNSlOMltDQEhdKFtDQEBIXTFbQ0BAXTM0NSljNltjSF1bY0hdW2NIXVtjSF1uNg==

>  <s_epik_cmdline>  (321) 
J2VwaWtfcHl0aG9uJywgJy1waHQnLCAnMi4wJywgJy1waCcsICc3LjAnLCAnLXRuJywgJzgnLCAnLW1hJywgJzIwMCcsICctaW1hZScsICc8aW5maWxlLm1hZT4nLCAnLW9tYWUnLCAnPG91dGZpbGUubWFlPic=

>  <r_epik_Ionization_Penalty>  (321) 
0.281704

>  <r_epik_Ionization_Penalty_Charging>  (321) 
0

>  <r_epik_Ionization_Penalty_Neutral>  (321) 
0.281704

>  <r_epik_State_Penalty>  (321) 
0.274127

>  <r_epik_Charging_Adjusted_Penalty>  (321) 
0.274127

>  <i_epik_Tot_Q>  (321) 
0

>  <i_epik_Tot_abs_Q>  (321) 
0

>  <s_lp_Force_Field>  (321) 
OPLS3e

>  <r_lp_Energy>  (321) 
209.848

>  <b_lp_Chiralities_Consistent>  (321) 
1

>  <s_lp_Variant>  (321) 
96:0-1

>  <s_i_glide_gridfile>  (321) 
pfpi4k_grid

>  <i_i_glide_lignum>  (321) 
10

>  <i_i_glide_rotatable_bonds>  (321) 
3

>  <r_i_docking_score>  (321) 
-3.6188

>  <r_i_glide_ligand_efficiency>  (321) 
-0.139184

>  <r_i_glide_ligand_efficiency_sa>  (321) 
-0.412333

>  <r_i_glide_ligand_efficiency_ln>  (321) 
-0.849862

>  <r_i_glide_gscore>  (321) 
-3.6188

>  <r_i_glide_lipo>  (321) 
-0.834865

>  <r_i_glide_hbond>  (321) 
-0.474368

>  <r_i_glide_metal>  (321) 
-0

>  <r_i_glide_rewards>  (321) 
-1.03338

>  <r_i_glide_evdw>  (321) 
-6.1782

>  <r_i_glide_ecoul>  (321) 
-10.0024

>  <r_i_glide_erotb>  (321) 
0.313594

>  <r_i_glide_esite>  (321) 
-0.0161412

>  <r_i_glide_emodel>  (321) 
-12.0858

>  <r_i_glide_energy>  (321) 
-16.1806

>  <r_i_glide_einternal>  (321) 
4.8604

>  <r_i_glide_intrahb_reward>  (321) 
-0

>  <i_i_glide_confnum>  (321) 
5

>  <i_i_glide_posenum>  (321) 
35

>  <r_i_glide_eff_state_penalty>  (321) 
0

>  <ligand_id>  (321) 
96

>  <original_smiles>  (321) 
CC1=CC2N3C(c4ccccn4)C4C(=O)C(C)(C1)C3C41CC=CC21CO

>  <smiles>  (321) 
[H]OC([H])([H])C12C([H])=C([H])C([H])([H])C13C1([H])C(=O)C4(C([H])([H])[H])C([H])([H])C(C([H])([H])[H])=C([H])C2([H])N(C1([H])c1nc([H])c([H])c([H])c1[H])C43[H]

$$$$
96:0:1
     RDKit          3D

 50 55  0  0  1  0  0  0  0  0999 V2000
    8.3128   -5.6002    1.0858 C   0  0  0  0  0  0  0  0  0  0  0  0
    7.0754   -4.7319    0.9003 C   0  0  0  0  0  0  0  0  0  0  0  0
    7.1625   -3.3952    1.2427 C   0  0  0  0  0  0  0  0  0  0  0  0
    6.0850   -2.2116    1.1980 C   0  0  1  0  0  0  0  0  0  0  0  0
    5.2845   -2.5628    0.0463 N   0  0  0  0  0  0  0  0  0  0  0  0
    3.9740   -1.9724   -0.3416 C   0  0  1  0  0  0  0  0  0  0  0  0
    3.7317   -1.6595   -1.8131 C   0  0  0  0  0  0  0  0  0  0  0  0
    2.9456   -2.5124   -2.6054 C   0  0  0  0  0  0  0  0  0  0  0  0
    2.9290   -2.3201   -3.9866 C   0  0  0  0  0  0  0  0  0  0  0  0
    3.4501   -1.1368   -4.4956 C   0  0  0  0  0  0  0  0  0  0  0  0
    4.0467   -0.2296   -3.6052 C   0  0  0  0  0  0  0  0  0  0  0  0
    4.2711   -0.5363   -2.3066 N   0  0  0  0  0  0  0  0  0  0  0  0
    2.9575   -2.8531    0.4522 C   0  0  1  0  0  0  0  0  0  0  0  0
    3.0530   -4.3965    0.0943 C   0  0  0  0  0  0  0  0  0  0  0  0
    2.0894   -5.1670    0.0619 O   0  0  0  0  0  0  0  0  0  0  0  0
    4.5338   -4.7469   -0.1920 C   0  0  2  0  0  0  0  0  0  0  0  0
    4.8632   -4.6719   -1.7149 C   0  0  0  0  0  0  0  0  0  0  0  0
    5.7732   -5.5628    0.4303 C   0  0  0  0  0  0  0  0  0  0  0  0
    4.6981   -3.6386    0.8258 C   0  0  2  0  0  0  0  0  0  0  0  0
    3.7299   -2.9076    1.7363 C   0  0  2  0  0  0  0  0  0  0  0  0
    3.0915   -3.6354    2.9573 C   0  0  0  0  0  0  0  0  0  0  0  0
    4.1009   -3.4475    4.0562 C   0  0  0  0  0  0  0  0  0  0  0  0
    5.0999   -2.6351    3.7016 C   0  0  0  0  0  0  0  0  0  0  0  0
    4.9279   -2.0081    2.3063 C   0  0  1  0  0  0  0  0  0  0  0  0
    4.6476   -0.4956    2.6101 C   0  0  0  0  0  0  0  0  0  0  0  0
    4.4370    0.2679    1.4684 O   0  0  0  0  0  0  0  0  0  0  0  0
    8.6530   -5.9974    0.1313 H   0  0  0  0  0  0  0  0  0  0  0  0
    8.0993   -6.4328    1.7528 H   0  0  0  0  0  0  0  0  0  0  0  0
    9.1461   -5.0462    1.5242 H   0  0  0  0  0  0  0  0  0  0  0  0
    8.1143   -3.0866    1.6206 H   0  0  0  0  0  0  0  0  0  0  0  0
    6.6065   -1.2733    1.0051 H   0  0  0  0  0  0  0  0  0  0  0  0
    3.8154   -0.9732   -0.0656 H   0  0  0  0  0  0  0  0  0  0  0  0
    2.4586   -3.3651   -2.1906 H   0  0  0  0  0  0  0  0  0  0  0  0
    2.4892   -3.0810   -4.6128 H   0  0  0  0  0  0  0  0  0  0  0  0
    3.3424   -0.9022   -5.5430 H   0  0  0  0  0  0  0  0  0  0  0  0
    4.4067    0.7163   -3.9734 H   0  0  0  0  0  0  0  0  0  0  0  0
    1.9550   -2.4356    0.5749 H   0  0  0  0  0  0  0  0  0  0  0  0
    5.0359   -5.6837   -2.0903 H   0  0  0  0  0  0  0  0  0  0  0  0
    5.6931   -4.0470   -2.0141 H   0  0  0  0  0  0  0  0  0  0  0  0
    4.0813   -4.4411   -2.3748 H   0  0  0  0  0  0  0  0  0  0  0  0
    6.1302   -6.2524   -0.3160 H   0  0  0  0  0  0  0  0  0  0  0  0
    5.4474   -6.2212    1.2277 H   0  0  0  0  0  0  0  0  0  0  0  0
    5.0666   -4.1254    1.7362 H   0  0  0  0  0  0  0  0  0  0  0  0
    2.1548   -3.1488    3.2338 H   0  0  0  0  0  0  0  0  0  0  0  0
    2.8991   -4.6920    2.8006 H   0  0  0  0  0  0  0  0  0  0  0  0
    3.9803   -3.9196    5.0243 H   0  0  0  0  0  0  0  0  0  0  0  0
    5.8847   -2.3699    4.3853 H   0  0  0  0  0  0  0  0  0  0  0  0
    3.7806   -0.3735    3.2710 H   0  0  0  0  0  0  0  0  0  0  0  0
    5.5166   -0.0340    3.0969 H   0  0  0  0  0  0  0  0  0  0  0  0
    4.2006    1.1609    1.6769 H   0  0  0  0  0  0  0  0  0  0  0  0
  1  2  1  0
  1 27  1  0
  1 28  1  0
  1 29  1  0
  2 18  1  0
  2  3  2  0
  3  4  1  0
  3 30  1  0
  4 24  1  0
  4  5  1  0
  4 31  1  6
  5 19  1  0
  5  6  1  0
  6  7  1  0
  6 13  1  0
  6 32  1  1
  7 12  1  0
  7  8  2  0
  8  9  1  0
  8 33  1  0
  9 10  2  0
  9 34  1  0
 10 11  1  0
 10 35  1  0
 11 12  2  0
 11 36  1  0
 13 20  1  0
 13 14  1  0
 13 37  1  1
 14 15  2  0
 14 16  1  0
 16 17  1  6
 16 18  1  0
 16 19  1  0
 17 38  1  0
 17 39  1  0
 17 40  1  0
 18 41  1  0
 18 42  1  0
 19 20  1  0
 19 43  1  1
 20 24  1  0
 20 21  1  1
 21 22  1  0
 21 44  1  0
 21 45  1  0
 22 23  2  0
 22 46  1  0
 23 24  1  0
 23 47  1  0
 24 25  1  1
 25 26  1  0
 25 48  1  0
 25 49  1  0
 26 50  1  0
M  END
>  <i_m_ct_stereo_status>  (322) 
1

>  <s_m_source_file>  (322) 
/var/tmp/pbs.5076255.sched01/tmpzqmxgpmu/1265eqpa8lp.sdf

>  <i_m_source_file_index>  (322) 
10

>  <i_lp_mmshare_version>  (322) 
48012

>  <i_f3d_flags>  (322) 
0

>  <s_epik_input>  (322) 
Tz1DMVtDQEBdKFtDSDNdKShbQ0hdMjMpW0NIMl1DKFtDSDNdKT1bQ0hdW0NASF0oW0NAXTQoW0NIMl1bT0hdKVtDSF09W0NIXVtDSDJdNSlOMltDQEhdKFtDQEBIXTFbQ0BAXTM0NSljNltjSF1bY0hdW2NIXVtjSF1uNg==

>  <s_epik_cmdline>  (322) 
J2VwaWtfcHl0aG9uJywgJy1waHQnLCAnMi4wJywgJy1waCcsICc3LjAnLCAnLXRuJywgJzgnLCAnLW1hJywgJzIwMCcsICctaW1hZScsICc8aW5maWxlLm1hZT4nLCAnLW9tYWUnLCAnPG91dGZpbGUubWFlPic=

>  <r_epik_Ionization_Penalty>  (322) 
0.281704

>  <r_epik_Ionization_Penalty_Charging>  (322) 
0

>  <r_epik_Ionization_Penalty_Neutral>  (322) 
0.281704

>  <r_epik_State_Penalty>  (322) 
0.274127

>  <r_epik_Charging_Adjusted_Penalty>  (322) 
0.274127

>  <i_epik_Tot_Q>  (322) 
0

>  <i_epik_Tot_abs_Q>  (322) 
0

>  <s_lp_Force_Field>  (322) 
OPLS3e

>  <r_lp_Energy>  (322) 
209.848

>  <b_lp_Chiralities_Consistent>  (322) 
1

>  <s_lp_Variant>  (322) 
96:0-1

>  <s_i_glide_gridfile>  (322) 
pfpi4k_grid

>  <i_i_glide_lignum>  (322) 
10

>  <i_i_glide_rotatable_bonds>  (322) 
3

>  <r_i_docking_score>  (322) 
-2.97119

>  <r_i_glide_ligand_efficiency>  (322) 
-0.114277

>  <r_i_glide_ligand_efficiency_sa>  (322) 
-0.338544

>  <r_i_glide_ligand_efficiency_ln>  (322) 
-0.697775

>  <r_i_glide_gscore>  (322) 
-2.97119

>  <r_i_glide_lipo>  (322) 
-0.928369

>  <r_i_glide_hbond>  (322) 
-0.24145

>  <r_i_glide_metal>  (322) 
-0

>  <r_i_glide_rewards>  (322) 
-1.03338

>  <r_i_glide_evdw>  (322) 
-10.3983

>  <r_i_glide_ecoul>  (322) 
-4.04156

>  <r_i_glide_erotb>  (322) 
0.313594

>  <r_i_glide_esite>  (322) 
-0.0265878

>  <r_i_glide_emodel>  (322) 
-10.3444

>  <r_i_glide_energy>  (322) 
-14.4399

>  <r_i_glide_einternal>  (322) 
4.79627

>  <r_i_glide_intrahb_reward>  (322) 
-0

>  <i_i_glide_confnum>  (322) 
5

>  <i_i_glide_posenum>  (322) 
28

>  <r_i_glide_eff_state_penalty>  (322) 
0

>  <ligand_id>  (322) 
96

>  <original_smiles>  (322) 
CC1=CC2N3C(c4ccccn4)C4C(=O)C(C)(C1)C3C41CC=CC21CO

>  <smiles>  (322) 
[H]OC([H])([H])C12C([H])=C([H])C([H])([H])C13C1([H])C(=O)C4(C([H])([H])[H])C([H])([H])C(C([H])([H])[H])=C([H])C2([H])N(C1([H])c1nc([H])c([H])c([H])c1[H])C43[H]

$$$$
96:0:2
     RDKit          3D

 50 55  0  0  1  0  0  0  0  0999 V2000
    9.8170   -2.5516    0.7442 C   0  0  0  0  0  0  0  0  0  0  0  0
    8.3434   -2.4938    0.4228 C   0  0  0  0  0  0  0  0  0  0  0  0
    7.6099   -1.4065    0.8768 C   0  0  0  0  0  0  0  0  0  0  0  0
    6.0456   -1.0707    0.8721 C   0  0  1  0  0  0  0  0  0  0  0  0
    5.6196   -1.6438   -0.3736 N   0  0  0  0  0  0  0  0  0  0  0  0
    4.2125   -1.8143   -0.7743 C   0  0  1  0  0  0  0  0  0  0  0  0
    3.9191   -1.5308   -2.2306 C   0  0  0  0  0  0  0  0  0  0  0  0
    4.2065   -0.2573   -2.7613 C   0  0  0  0  0  0  0  0  0  0  0  0
    3.8925    0.0151   -4.0948 C   0  0  0  0  0  0  0  0  0  0  0  0
    3.4108   -1.0413   -4.8589 C   0  0  0  0  0  0  0  0  0  0  0  0
    3.1412   -2.2803   -4.2499 C   0  0  0  0  0  0  0  0  0  0  0  0
    3.3690   -2.5254   -2.9570 N   0  0  0  0  0  0  0  0  0  0  0  0
    3.9147   -3.2641   -0.2620 C   0  0  1  0  0  0  0  0  0  0  0  0
    4.9344   -4.3790   -0.7402 C   0  0  0  0  0  0  0  0  0  0  0  0
    4.7054   -5.5912   -0.6708 O   0  0  0  0  0  0  0  0  0  0  0  0
    6.3351   -3.7676   -0.9289 C   0  0  2  0  0  0  0  0  0  0  0  0
    6.5057   -3.3036   -2.4093 C   0  0  0  0  0  0  0  0  0  0  0  0
    7.8100   -3.8350   -0.2844 C   0  0  0  0  0  0  0  0  0  0  0  0
    5.7828   -2.9619    0.2255 C   0  0  2  0  0  0  0  0  0  0  0  0
    4.5395   -3.0831    1.0747 C   0  0  2  0  0  0  0  0  0  0  0  0
    4.4223   -4.2465    2.1087 C   0  0  0  0  0  0  0  0  0  0  0  0
    5.0799   -3.6655    3.3225 C   0  0  0  0  0  0  0  0  0  0  0  0
    5.4008   -2.3827    3.1816 C   0  0  0  0  0  0  0  0  0  0  0  0
    4.9624   -1.7594    1.8590 C   0  0  1  0  0  0  0  0  0  0  0  0
    3.8190   -0.7895    2.2508 C   0  0  0  0  0  0  0  0  0  0  0  0
    4.2615    0.1597    3.2010 O   0  0  0  0  0  0  0  0  0  0  0  0
   10.3401   -2.6063   -0.1937 H   0  0  0  0  0  0  0  0  0  0  0  0
   10.0876   -3.4323    1.3239 H   0  0  0  0  0  0  0  0  0  0  0  0
   10.1572   -1.6566    1.2740 H   0  0  0  0  0  0  0  0  0  0  0  0
    8.1646   -0.6572    1.3855 H   0  0  0  0  0  0  0  0  0  0  0  0
    5.9238    0.0091    0.8691 H   0  0  0  0  0  0  0  0  0  0  0  0
    3.5627   -1.0950   -0.2901 H   0  0  0  0  0  0  0  0  0  0  0  0
    4.6153    0.5241   -2.1631 H   0  0  0  0  0  0  0  0  0  0  0  0
    4.0984    0.9689   -4.5474 H   0  0  0  0  0  0  0  0  0  0  0  0
    3.2601   -0.8305   -5.9037 H   0  0  0  0  0  0  0  0  0  0  0  0
    2.7858   -3.1203   -4.8276 H   0  0  0  0  0  0  0  0  0  0  0  0
    2.8712   -3.5587   -0.2488 H   0  0  0  0  0  0  0  0  0  0  0  0
    7.2514   -3.9066   -2.9095 H   0  0  0  0  0  0  0  0  0  0  0  0
    6.8824   -2.2860   -2.5141 H   0  0  0  0  0  0  0  0  0  0  0  0
    5.6227   -3.4644   -3.0261 H   0  0  0  0  0  0  0  0  0  0  0  0
    8.5307   -4.0670   -1.0708 H   0  0  0  0  0  0  0  0  0  0  0  0
    7.8863   -4.6589    0.4234 H   0  0  0  0  0  0  0  0  0  0  0  0
    6.3580   -3.2760    1.1161 H   0  0  0  0  0  0  0  0  0  0  0  0
    3.3772   -4.4500    2.3443 H   0  0  0  0  0  0  0  0  0  0  0  0
    4.9112   -5.1842    1.8325 H   0  0  0  0  0  0  0  0  0  0  0  0
    5.2252   -4.2430    4.2223 H   0  0  0  0  0  0  0  0  0  0  0  0
    5.7964   -1.7785    3.9849 H   0  0  0  0  0  0  0  0  0  0  0  0
    3.4375   -0.1990    1.4266 H   0  0  0  0  0  0  0  0  0  0  0  0
    2.9798   -1.3270    2.6937 H   0  0  0  0  0  0  0  0  0  0  0  0
    3.6162    0.8419    3.2829 H   0  0  0  0  0  0  0  0  0  0  0  0
  1  2  1  0
  1 27  1  0
  1 28  1  0
  1 29  1  0
  2 18  1  0
  2  3  2  0
  3  4  1  0
  3 30  1  0
  4 24  1  0
  4  5  1  0
  4 31  1  6
  5 19  1  0
  5  6  1  0
  6  7  1  0
  6 13  1  0
  6 32  1  1
  7 12  1  0
  7  8  2  0
  8  9  1  0
  8 33  1  0
  9 10  2  0
  9 34  1  0
 10 11  1  0
 10 35  1  0
 11 12  2  0
 11 36  1  0
 13 20  1  0
 13 14  1  0
 13 37  1  1
 14 15  2  0
 14 16  1  0
 16 17  1  6
 16 18  1  0
 16 19  1  0
 17 38  1  0
 17 39  1  0
 17 40  1  0
 18 41  1  0
 18 42  1  0
 19 20  1  0
 19 43  1  1
 20 24  1  0
 20 21  1  1
 21 22  1  0
 21 44  1  0
 21 45  1  0
 22 23  2  0
 22 46  1  0
 23 24  1  0
 23 47  1  0
 24 25  1  1
 25 26  1  0
 25 48  1  0
 25 49  1  0
 26 50  1  0
M  END
>  <i_m_ct_stereo_status>  (323) 
1

>  <s_m_source_file>  (323) 
/var/tmp/pbs.5076255.sched01/tmpzqmxgpmu/1265eqpa8lp.sdf

>  <i_m_source_file_index>  (323) 
10

>  <i_lp_mmshare_version>  (323) 
48012

>  <i_f3d_flags>  (323) 
0

>  <s_epik_input>  (323) 
Tz1DMVtDQEBdKFtDSDNdKShbQ0hdMjMpW0NIMl1DKFtDSDNdKT1bQ0hdW0NASF0oW0NAXTQoW0NIMl1bT0hdKVtDSF09W0NIXVtDSDJdNSlOMltDQEhdKFtDQEBIXTFbQ0BAXTM0NSljNltjSF1bY0hdW2NIXVtjSF1uNg==

>  <s_epik_cmdline>  (323) 
J2VwaWtfcHl0aG9uJywgJy1waHQnLCAnMi4wJywgJy1waCcsICc3LjAnLCAnLXRuJywgJzgnLCAnLW1hJywgJzIwMCcsICctaW1hZScsICc8aW5maWxlLm1hZT4nLCAnLW9tYWUnLCAnPG91dGZpbGUubWFlPic=

>  <r_epik_Ionization_Penalty>  (323) 
0.281704

>  <r_epik_Ionization_Penalty_Charging>  (323) 
0

>  <r_epik_Ionization_Penalty_Neutral>  (323) 
0.281704

>  <r_epik_State_Penalty>  (323) 
0.274127

>  <r_epik_Charging_Adjusted_Penalty>  (323) 
0.274127

>  <i_epik_Tot_Q>  (323) 
0

>  <i_epik_Tot_abs_Q>  (323) 
0

>  <s_lp_Force_Field>  (323) 
OPLS3e

>  <r_lp_Energy>  (323) 
209.848

>  <b_lp_Chiralities_Consistent>  (323) 
1

>  <s_lp_Variant>  (323) 
96:0-1

>  <s_i_glide_gridfile>  (323) 
pfpi4k_grid

>  <i_i_glide_lignum>  (323) 
10

>  <i_i_glide_rotatable_bonds>  (323) 
3

>  <r_i_docking_score>  (323) 
-2.71604

>  <r_i_glide_ligand_efficiency>  (323) 
-0.104463

>  <r_i_glide_ligand_efficiency_sa>  (323) 
-0.309472

>  <r_i_glide_ligand_efficiency_ln>  (323) 
-0.637854

>  <r_i_glide_gscore>  (323) 
-2.71604

>  <r_i_glide_lipo>  (323) 
-1.22288

>  <r_i_glide_hbond>  (323) 
0

>  <r_i_glide_metal>  (323) 
-0

>  <r_i_glide_rewards>  (323) 
-1.09771

>  <r_i_glide_evdw>  (323) 
-9.76452

>  <r_i_glide_ecoul>  (323) 
-1.47207

>  <r_i_glide_erotb>  (323) 
0.313594

>  <r_i_glide_esite>  (323) 
0

>  <r_i_glide_emodel>  (323) 
-9.81154

>  <r_i_glide_energy>  (323) 
-11.2366

>  <r_i_glide_einternal>  (323) 
3.97464

>  <r_i_glide_intrahb_reward>  (323) 
-0

>  <i_i_glide_confnum>  (323) 
4

>  <i_i_glide_posenum>  (323) 
8

>  <r_i_glide_eff_state_penalty>  (323) 
0

>  <ligand_id>  (323) 
96

>  <original_smiles>  (323) 
CC1=CC2N3C(c4ccccn4)C4C(=O)C(C)(C1)C3C41CC=CC21CO

>  <smiles>  (323) 
[H]OC([H])([H])C12C([H])=C([H])C([H])([H])C13C1([H])C(=O)C4(C([H])([H])[H])C([H])([H])C(C([H])([H])[H])=C([H])C2([H])N(C1([H])c1nc([H])c([H])c([H])c1[H])C43[H]

$$$$
98:0:0
     RDKit          3D

 52 57  0  0  1  0  0  0  0  0999 V2000
    3.8102   -6.4545    1.4109 O   0  0  0  0  0  0  0  0  0  0  0  0
    4.4820   -5.4369    1.5399 C   0  0  0  0  0  0  0  0  0  0  0  0
    5.0928   -4.9811    2.8835 C   0  0  0  0  0  0  0  0  0  0  0  0
    5.0433   -3.4234    3.1503 C   0  0  0  0  0  0  0  0  0  0  0  0
    5.2087   -2.5071    1.8860 C   0  0  2  0  0  0  0  0  0  0  0  0
    6.5762   -2.5661    1.5178 O   0  0  0  0  0  0  0  0  0  0  0  0
    4.8007   -0.9969    1.9526 C   0  0  1  0  0  0  0  0  0  0  0  0
    5.0795   -0.2987    0.5646 C   0  0  0  0  0  0  0  0  0  0  0  0
    4.7126   -1.0708   -0.7211 C   0  0  0  0  0  0  0  0  0  0  0  0
    4.6133   -0.6555   -2.0680 C   0  0  0  0  0  0  0  0  0  0  0  0
    4.3203   -1.5995   -3.0858 C   0  0  0  0  0  0  0  0  0  0  0  0
    4.1703   -2.9817   -2.7953 C   0  0  0  0  0  0  0  0  0  0  0  0
    3.9350   -3.8591   -3.8076 O   0  0  0  0  0  0  0  0  0  0  0  0
    4.2742   -3.4198   -1.4579 C   0  0  0  0  0  0  0  0  0  0  0  0
    4.4886   -2.4289   -0.5238 C   0  0  0  0  0  0  0  0  0  0  0  0
    4.3549   -3.0928    0.7867 C   0  0  2  0  0  0  0  0  0  0  0  0
    2.8600   -2.9972    1.2050 C   0  0  0  0  0  0  0  0  0  0  0  0
    2.4466   -1.5471    1.4522 C   0  0  0  0  0  0  0  0  0  0  0  0
    3.3729   -0.8491    2.3728 N   0  0  2  0  0  0  0  0  0  0  0  0
    2.9719    0.5574    2.6626 C   0  0  0  0  0  0  0  0  0  0  0  0
    1.5781    0.6829    3.2856 C   0  0  0  0  0  0  0  0  0  0  0  0
    0.3449    0.7127    2.3622 C   0  0  0  0  0  0  0  0  0  0  0  0
   -0.2899    1.7598    3.2649 C   0  0  0  0  0  0  0  0  0  0  0  0
    1.1146    2.0642    3.7826 C   0  0  0  0  0  0  0  0  0  0  0  0
    4.8009   -4.4876    0.3994 C   0  0  2  0  0  0  0  0  0  0  0  0
    4.2140   -4.6717   -0.8881 O   0  0  0  0  0  0  0  0  0  0  0  0
    4.6053   -5.5180    3.6991 H   0  0  0  0  0  0  0  0  0  0  0  0
    6.1288   -5.3227    2.8762 H   0  0  0  0  0  0  0  0  0  0  0  0
    4.1127   -3.1965    3.6690 H   0  0  0  0  0  0  0  0  0  0  0  0
    5.8112   -3.1741    3.8808 H   0  0  0  0  0  0  0  0  0  0  0  0
    6.8239   -3.4695    1.3948 H   0  0  0  0  0  0  0  0  0  0  0  0
    5.4061   -0.5063    2.7140 H   0  0  0  0  0  0  0  0  0  0  0  0
    4.6067    0.6745    0.5083 H   0  0  0  0  0  0  0  0  0  0  0  0
    6.1484   -0.0886    0.5082 H   0  0  0  0  0  0  0  0  0  0  0  0
    4.7370    0.3783   -2.3476 H   0  0  0  0  0  0  0  0  0  0  0  0
    4.2321   -1.2467   -4.0961 H   0  0  0  0  0  0  0  0  0  0  0  0
    3.7029   -4.7254   -3.4764 H   0  0  0  0  0  0  0  0  0  0  0  0
    2.2155   -3.4295    0.4408 H   0  0  0  0  0  0  0  0  0  0  0  0
    2.6319   -3.5598    2.1105 H   0  0  0  0  0  0  0  0  0  0  0  0
    2.3809   -0.9919    0.5166 H   0  0  0  0  0  0  0  0  0  0  0  0
    1.4455   -1.5982    1.8614 H   0  0  0  0  0  0  0  0  0  0  0  0
    3.7087    1.0083    3.3276 H   0  0  0  0  0  0  0  0  0  0  0  0
    2.9827    1.1621    1.7571 H   0  0  0  0  0  0  0  0  0  0  0  0
    1.4183   -0.0381    4.0937 H   0  0  0  0  0  0  0  0  0  0  0  0
    0.5770    1.0897    1.3625 H   0  0  0  0  0  0  0  0  0  0  0  0
   -0.2153   -0.2188    2.3186 H   0  0  0  0  0  0  0  0  0  0  0  0
   -0.7650    2.5731    2.7199 H   0  0  0  0  0  0  0  0  0  0  0  0
   -0.9480    1.3225    4.0155 H   0  0  0  0  0  0  0  0  0  0  0  0
    1.1745    2.2086    4.8622 H   0  0  0  0  0  0  0  0  0  0  0  0
    1.5893    2.8836    3.2386 H   0  0  0  0  0  0  0  0  0  0  0  0
    5.8735   -4.5367    0.2364 H   0  0  0  0  0  0  0  0  0  0  0  0
    3.2917   -1.3329    3.2549 H   0  0  0  0  0  0  0  0  0  0  0  0
  1  2  2  0
  2 25  1  0
  2  3  1  0
  3  4  1  0
  3 27  1  0
  3 28  1  0
  4  5  1  0
  4 29  1  0
  4 30  1  0
  5 16  1  0
  5  6  1  6
  5  7  1  0
  6 31  1  0
  7 19  1  0
  7  8  1  0
  7 32  1  1
  8  9  1  0
  8 33  1  0
  8 34  1  0
  9 15  2  0
  9 10  1  0
 10 11  2  0
 10 35  1  0
 11 12  1  0
 11 36  1  0
 12 13  1  0
 12 14  2  0
 13 37  1  0
 14 26  1  0
 14 15  1  0
 15 16  1  0
 16 17  1  1
 16 25  1  0
 17 18  1  0
 17 38  1  0
 17 39  1  0
 18 19  1  0
 18 40  1  0
 18 41  1  0
 19 20  1  0
 19 52  1  1
 20 21  1  0
 20 42  1  0
 20 43  1  0
 21 24  1  0
 21 22  1  0
 21 44  1  0
 22 23  1  0
 22 45  1  0
 22 46  1  0
 23 24  1  0
 23 47  1  0
 23 48  1  0
 24 49  1  0
 24 50  1  0
 25 26  1  0
 25 51  1  6
M  CHG  1  19   1
M  END
>  <i_m_ct_stereo_status>  (324) 
1

>  <s_m_source_file>  (324) 
/var/tmp/pbs.5076255.sched01/tmpzqmxgpmu/1265eqpa8lp.sdf

>  <i_m_source_file_index>  (324) 
13

>  <i_lp_mmshare_version>  (324) 
48012

>  <i_f3d_flags>  (324) 
0

>  <s_epik_input>  (324) 
W0NIMl0xW0NIMl1DKD1PKVtDQEhdMk9jKGMoW09IXSlbY0hdW2NIXTMpYzRjM1tDSDJdW0NASF0oW0NAQF0xKFtDQF0yNDUpW09IXSlOKFtDSDJdW0NIMl01KVtDSDJdW0NIXTZbQ0gyXVtDSDJdW0NIMl02

>  <s_epik_cmdline>  (324) 
J2VwaWtfcHl0aG9uJywgJy1waHQnLCAnMi4wJywgJy1waCcsICc3LjAnLCAnLXRuJywgJzgnLCAnLW1hJywgJzIwMCcsICctaW1hZScsICc8aW5maWxlLm1hZT4nLCAnLW9tYWUnLCAnPG91dGZpbGUubWFlPic=

>  <r_lp_tautomer_probability>  (324) 
1

>  <r_epik_Ionization_Penalty>  (324) 
0.0647411

>  <r_epik_Ionization_Penalty_Charging>  (324) 
0.0399915

>  <r_epik_Ionization_Penalty_Neutral>  (324) 
0.0247495

>  <r_epik_State_Penalty>  (324) 
0.0526502

>  <r_epik_Charging_Adjusted_Penalty>  (324) 
0.0926417

>  <i_epik_Tot_Q>  (324) 
1

>  <i_epik_Tot_abs_Q>  (324) 
1

>  <s_lp_Force_Field>  (324) 
OPLS3e

>  <r_lp_Energy>  (324) 
78.523

>  <b_lp_Chiralities_Consistent>  (324) 
1

>  <s_lp_Variant>  (324) 
98:0-1

>  <s_i_glide_gridfile>  (324) 
pfpi4k_grid

>  <i_i_glide_lignum>  (324) 
13

>  <i_i_glide_rotatable_bonds>  (324) 
4

>  <r_i_docking_score>  (324) 
-3.64961

>  <r_i_glide_ligand_efficiency>  (324) 
-0.14037

>  <r_i_glide_ligand_efficiency_sa>  (324) 
-0.415845

>  <r_i_glide_ligand_efficiency_ln>  (324) 
-0.8571

>  <r_i_glide_gscore>  (324) 
-3.64961

>  <r_i_glide_lipo>  (324) 
-0.531125

>  <r_i_glide_hbond>  (324) 
0

>  <r_i_glide_metal>  (324) 
-0

>  <r_i_glide_rewards>  (324) 
-1.02067

>  <r_i_glide_evdw>  (324) 
-24.7095

>  <r_i_glide_ecoul>  (324) 
-7.74609

>  <r_i_glide_erotb>  (324) 
0.301187

>  <r_i_glide_esite>  (324) 
-0.00161994

>  <r_i_glide_emodel>  (324) 
-41.4427

>  <r_i_glide_energy>  (324) 
-32.4556

>  <r_i_glide_einternal>  (324) 
0.47429

>  <r_i_glide_intrahb_reward>  (324) 
-0

>  <i_i_glide_confnum>  (324) 
5

>  <i_i_glide_posenum>  (324) 
4

>  <r_i_glide_eff_state_penalty>  (324) 
0

>  <ligand_id>  (324) 
98

>  <original_smiles>  (324) 
O=C1CCC2(O)C3Cc4ccc(O)c5c4C2(CCN3CC2CCC2)C1O5

>  <smiles>  (324) 
[H]Oc1c([H])c([H])c2c3c1OC1([H])C(=O)C([H])([H])C([H])([H])C4(O[H])C31C([H])([H])C([H])([H])[N+]([H])(C([H])([H])C1([H])C([H])([H])C([H])([H])C1([H])[H])C4([H])C2([H])[H]

$$$$
98:0:1
     RDKit          3D

 52 57  0  0  1  0  0  0  0  0999 V2000
    4.5751   -6.6110    1.1612 O   0  0  0  0  0  0  0  0  0  0  0  0
    5.0804   -5.5033    1.3051 C   0  0  0  0  0  0  0  0  0  0  0  0
    5.6558   -4.9947    2.6464 C   0  0  0  0  0  0  0  0  0  0  0  0
    5.3792   -3.4689    2.9622 C   0  0  0  0  0  0  0  0  0  0  0  0
    5.3458   -2.5005    1.7266 C   0  0  2  0  0  0  0  0  0  0  0  0
    6.6718   -2.3262    1.2679 O   0  0  0  0  0  0  0  0  0  0  0  0
    4.7103   -1.0804    1.8669 C   0  0  1  0  0  0  0  0  0  0  0  0
    4.8228   -0.3001    0.5072 C   0  0  0  0  0  0  0  0  0  0  0  0
    4.5549   -1.0874   -0.7953 C   0  0  0  0  0  0  0  0  0  0  0  0
    4.3718   -0.6508   -2.1228 C   0  0  0  0  0  0  0  0  0  0  0  0
    4.1922   -1.5894   -3.1684 C   0  0  0  0  0  0  0  0  0  0  0  0
    4.2504   -2.9833   -2.9169 C   0  0  0  0  0  0  0  0  0  0  0  0
    4.0870   -3.8638   -3.9339 O   0  0  0  0  0  0  0  0  0  0  0  0
    4.4609   -3.4543   -1.6078 C   0  0  0  0  0  0  0  0  0  0  0  0
    4.5407   -2.4706   -0.6402 C   0  0  0  0  0  0  0  0  0  0  0  0
    4.5463   -3.1857    0.6417 C   0  0  2  0  0  0  0  0  0  0  0  0
    3.0642   -3.3365    1.1141 C   0  0  0  0  0  0  0  0  0  0  0  0
    2.4369   -1.9712    1.4303 C   0  0  0  0  0  0  0  0  0  0  0  0
    3.2948   -1.1684    2.3399 N   0  0  2  0  0  0  0  0  0  0  0  0
    2.7013    0.1577    2.6773 C   0  0  0  0  0  0  0  0  0  0  0  0
    1.6096    0.0552    3.7431 C   0  0  0  0  0  0  0  0  0  0  0  0
    0.1649   -0.2341    3.3112 C   0  0  0  0  0  0  0  0  0  0  0  0
   -0.3319    0.7472    4.3679 C   0  0  0  0  0  0  0  0  0  0  0  0
    1.0671    1.3574    4.3602 C   0  0  0  0  0  0  0  0  0  0  0  0
    5.2011   -4.4837    0.1882 C   0  0  2  0  0  0  0  0  0  0  0  0
    4.6199   -4.7253   -1.0975 O   0  0  0  0  0  0  0  0  0  0  0  0
    5.2830   -5.6260    3.4559 H   0  0  0  0  0  0  0  0  0  0  0  0
    6.7284   -5.1707    2.5988 H   0  0  0  0  0  0  0  0  0  0  0  0
    4.4414   -3.4143    3.5161 H   0  0  0  0  0  0  0  0  0  0  0  0
    6.1001   -3.1192    3.6937 H   0  0  0  0  0  0  0  0  0  0  0  0
    7.1580   -1.8013    1.8848 H   0  0  0  0  0  0  0  0  0  0  0  0
    5.2604   -0.5324    2.6305 H   0  0  0  0  0  0  0  0  0  0  0  0
    4.1992    0.5919    0.5161 H   0  0  0  0  0  0  0  0  0  0  0  0
    5.8435    0.0764    0.4340 H   0  0  0  0  0  0  0  0  0  0  0  0
    4.3369    0.4036   -2.3504 H   0  0  0  0  0  0  0  0  0  0  0  0
    4.0013   -1.2267   -4.1626 H   0  0  0  0  0  0  0  0  0  0  0  0
    3.9083   -4.7311   -3.5829 H   0  0  0  0  0  0  0  0  0  0  0  0
    2.4684   -3.8422    0.3531 H   0  0  0  0  0  0  0  0  0  0  0  0
    2.9710   -3.9593    2.0036 H   0  0  0  0  0  0  0  0  0  0  0  0
    2.2646   -1.4279    0.5030 H   0  0  0  0  0  0  0  0  0  0  0  0
    1.4578   -2.1286    1.8742 H   0  0  0  0  0  0  0  0  0  0  0  0
    3.4763    0.8335    3.0376 H   0  0  0  0  0  0  0  0  0  0  0  0
    2.3009    0.6268    1.7783 H   0  0  0  0  0  0  0  0  0  0  0  0
    1.8883   -0.6151    4.5644 H   0  0  0  0  0  0  0  0  0  0  0  0
   -0.0411    0.1101    2.2944 H   0  0  0  0  0  0  0  0  0  0  0  0
   -0.1615   -1.2639    3.4677 H   0  0  0  0  0  0  0  0  0  0  0  0
   -1.1161    1.4162    4.0217 H   0  0  0  0  0  0  0  0  0  0  0  0
   -0.5886    0.2681    5.3113 H   0  0  0  0  0  0  0  0  0  0  0  0
    1.4610    1.5951    5.3498 H   0  0  0  0  0  0  0  0  0  0  0  0
    1.1525    2.2080    3.6800 H   0  0  0  0  0  0  0  0  0  0  0  0
    6.2648   -4.3511    0.0043 H   0  0  0  0  0  0  0  0  0  0  0  0
    3.3288   -1.6807    3.2089 H   0  0  0  0  0  0  0  0  0  0  0  0
  1  2  2  0
  2 25  1  0
  2  3  1  0
  3  4  1  0
  3 27  1  0
  3 28  1  0
  4  5  1  0
  4 29  1  0
  4 30  1  0
  5 16  1  0
  5  6  1  6
  5  7  1  0
  6 31  1  0
  7 19  1  0
  7  8  1  0
  7 32  1  1
  8  9  1  0
  8 33  1  0
  8 34  1  0
  9 15  2  0
  9 10  1  0
 10 11  2  0
 10 35  1  0
 11 12  1  0
 11 36  1  0
 12 13  1  0
 12 14  2  0
 13 37  1  0
 14 26  1  0
 14 15  1  0
 15 16  1  0
 16 17  1  1
 16 25  1  0
 17 18  1  0
 17 38  1  0
 17 39  1  0
 18 19  1  0
 18 40  1  0
 18 41  1  0
 19 20  1  0
 19 52  1  1
 20 21  1  0
 20 42  1  0
 20 43  1  0
 21 24  1  0
 21 22  1  0
 21 44  1  0
 22 23  1  0
 22 45  1  0
 22 46  1  0
 23 24  1  0
 23 47  1  0
 23 48  1  0
 24 49  1  0
 24 50  1  0
 25 26  1  0
 25 51  1  6
M  CHG  1  19   1
M  END
>  <i_m_ct_stereo_status>  (325) 
1

>  <s_m_source_file>  (325) 
/var/tmp/pbs.5076255.sched01/tmpzqmxgpmu/1265eqpa8lp.sdf

>  <i_m_source_file_index>  (325) 
13

>  <i_lp_mmshare_version>  (325) 
48012

>  <i_f3d_flags>  (325) 
0

>  <s_epik_input>  (325) 
W0NIMl0xW0NIMl1DKD1PKVtDQEhdMk9jKGMoW09IXSlbY0hdW2NIXTMpYzRjM1tDSDJdW0NASF0oW0NAQF0xKFtDQF0yNDUpW09IXSlOKFtDSDJdW0NIMl01KVtDSDJdW0NIXTZbQ0gyXVtDSDJdW0NIMl02

>  <s_epik_cmdline>  (325) 
J2VwaWtfcHl0aG9uJywgJy1waHQnLCAnMi4wJywgJy1waCcsICc3LjAnLCAnLXRuJywgJzgnLCAnLW1hJywgJzIwMCcsICctaW1hZScsICc8aW5maWxlLm1hZT4nLCAnLW9tYWUnLCAnPG91dGZpbGUubWFlPic=

>  <r_lp_tautomer_probability>  (325) 
1

>  <r_epik_Ionization_Penalty>  (325) 
0.0647411

>  <r_epik_Ionization_Penalty_Charging>  (325) 
0.0399915

>  <r_epik_Ionization_Penalty_Neutral>  (325) 
0.0247495

>  <r_epik_State_Penalty>  (325) 
0.0526502

>  <r_epik_Charging_Adjusted_Penalty>  (325) 
0.0926417

>  <i_epik_Tot_Q>  (325) 
1

>  <i_epik_Tot_abs_Q>  (325) 
1

>  <s_lp_Force_Field>  (325) 
OPLS3e

>  <r_lp_Energy>  (325) 
78.523

>  <b_lp_Chiralities_Consistent>  (325) 
1

>  <s_lp_Variant>  (325) 
98:0-1

>  <s_i_glide_gridfile>  (325) 
pfpi4k_grid

>  <i_i_glide_lignum>  (325) 
13

>  <i_i_glide_rotatable_bonds>  (325) 
4

>  <r_i_docking_score>  (325) 
-3.59926

>  <r_i_glide_ligand_efficiency>  (325) 
-0.138433

>  <r_i_glide_ligand_efficiency_sa>  (325) 
-0.410107

>  <r_i_glide_ligand_efficiency_ln>  (325) 
-0.845274

>  <r_i_glide_gscore>  (325) 
-3.59926

>  <r_i_glide_lipo>  (325) 
-0.556796

>  <r_i_glide_hbond>  (325) 
0

>  <r_i_glide_metal>  (325) 
-0

>  <r_i_glide_rewards>  (325) 
-1.0548

>  <r_i_glide_evdw>  (325) 
-24.8832

>  <r_i_glide_ecoul>  (325) 
-6.93813

>  <r_i_glide_erotb>  (325) 
0.301187

>  <r_i_glide_esite>  (325) 
-0.00396981

>  <r_i_glide_emodel>  (325) 
-40.5508

>  <r_i_glide_energy>  (325) 
-31.8213

>  <r_i_glide_einternal>  (325) 
0.68034

>  <r_i_glide_intrahb_reward>  (325) 
-0

>  <i_i_glide_confnum>  (325) 
5

>  <i_i_glide_posenum>  (325) 
24

>  <r_i_glide_eff_state_penalty>  (325) 
0

>  <ligand_id>  (325) 
98

>  <original_smiles>  (325) 
O=C1CCC2(O)C3Cc4ccc(O)c5c4C2(CCN3CC2CCC2)C1O5

>  <smiles>  (325) 
[H]Oc1c([H])c([H])c2c3c1OC1([H])C(=O)C([H])([H])C([H])([H])C4(O[H])C31C([H])([H])C([H])([H])[N+]([H])(C([H])([H])C1([H])C([H])([H])C([H])([H])C1([H])[H])C4([H])C2([H])[H]

$$$$
98:0:2
     RDKit          3D

 52 57  0  0  1  0  0  0  0  0999 V2000
    3.9672    6.0241    4.3594 O   0  0  0  0  0  0  0  0  0  0  0  0
    2.7760    5.9100    4.0806 C   0  0  0  0  0  0  0  0  0  0  0  0
    1.7131    6.9433    4.5022 C   0  0  0  0  0  0  0  0  0  0  0  0
    0.3274    6.3380    4.9504 C   0  0  0  0  0  0  0  0  0  0  0  0
   -0.1274    5.0236    4.2197 C   0  0  2  0  0  0  0  0  0  0  0  0
   -0.6235    5.4533    2.9607 O   0  0  0  0  0  0  0  0  0  0  0  0
   -1.2407    4.1134    4.8264 C   0  0  1  0  0  0  0  0  0  0  0  0
   -1.5382    2.8837    3.9001 C   0  0  0  0  0  0  0  0  0  0  0  0
   -0.3277    2.1691    3.2840 C   0  0  0  0  0  0  0  0  0  0  0  0
   -0.2489    0.9413    2.6070 C   0  0  0  0  0  0  0  0  0  0  0  0
    1.0032    0.5306    2.0728 C   0  0  0  0  0  0  0  0  0  0  0  0
    2.1612    1.3518    2.1558 C   0  0  0  0  0  0  0  0  0  0  0  0
    3.3521    0.9353    1.6364 O   0  0  0  0  0  0  0  0  0  0  0  0
    2.0884    2.6039    2.7890 C   0  0  0  0  0  0  0  0  0  0  0  0
    0.8639    2.8911    3.3520 C   0  0  0  0  0  0  0  0  0  0  0  0
    1.0837    4.1190    4.1298 C   0  0  2  0  0  0  0  0  0  0  0  0
    1.5077    3.6830    5.5782 C   0  0  0  0  0  0  0  0  0  0  0  0
    0.3752    2.9376    6.3051 C   0  0  0  0  0  0  0  0  0  0  0  0
   -0.9007    3.6966    6.2245 N   0  0  2  0  0  0  0  0  0  0  0  0
   -2.0290    3.0280    6.9327 C   0  0  0  0  0  0  0  0  0  0  0  0
   -2.1932    3.5074    8.3751 C   0  0  0  0  0  0  0  0  0  0  0  0
   -1.6676    2.6316    9.5242 C   0  0  0  0  0  0  0  0  0  0  0  0
   -2.9105    2.9990   10.3317 C   0  0  0  0  0  0  0  0  0  0  0  0
   -3.5827    3.3713    9.0159 C   0  0  0  0  0  0  0  0  0  0  0  0
    2.1961    4.7421    3.3045 C   0  0  2  0  0  0  0  0  0  0  0  0
    3.0142    3.6099    2.9695 O   0  0  0  0  0  0  0  0  0  0  0  0
    2.1217    7.5875    5.2836 H   0  0  0  0  0  0  0  0  0  0  0  0
    1.5644    7.5892    3.6381 H   0  0  0  0  0  0  0  0  0  0  0  0
    0.3575    6.1924    6.0283 H   0  0  0  0  0  0  0  0  0  0  0  0
   -0.4115    7.1168    4.7949 H   0  0  0  0  0  0  0  0  0  0  0  0
   -0.2328    4.9405    2.2411 H   0  0  0  0  0  0  0  0  0  0  0  0
   -2.1537    4.6967    4.8756 H   0  0  0  0  0  0  0  0  0  0  0  0
   -2.1574    2.1494    4.4148 H   0  0  0  0  0  0  0  0  0  0  0  0
   -2.1517    3.2361    3.0699 H   0  0  0  0  0  0  0  0  0  0  0  0
   -1.1322    0.3186    2.5089 H   0  0  0  0  0  0  0  0  0  0  0  0
    1.0710   -0.4195    1.5695 H   0  0  0  0  0  0  0  0  0  0  0  0
    4.0145    1.6160    1.6925 H   0  0  0  0  0  0  0  0  0  0  0  0
    2.3944    3.0505    5.5503 H   0  0  0  0  0  0  0  0  0  0  0  0
    1.7932    4.5331    6.1959 H   0  0  0  0  0  0  0  0  0  0  0  0
    0.2527    1.9413    5.8784 H   0  0  0  0  0  0  0  0  0  0  0  0
    0.6406    2.7837    7.3503 H   0  0  0  0  0  0  0  0  0  0  0  0
   -2.9697    3.1915    6.4011 H   0  0  0  0  0  0  0  0  0  0  0  0
   -1.8850    1.9461    6.9062 H   0  0  0  0  0  0  0  0  0  0  0  0
   -1.8636    4.5413    8.5200 H   0  0  0  0  0  0  0  0  0  0  0  0
   -1.6406    1.5709    9.2709 H   0  0  0  0  0  0  0  0  0  0  0  0
   -0.7288    2.9623    9.9697 H   0  0  0  0  0  0  0  0  0  0  0  0
   -3.3727    2.1642   10.8547 H   0  0  0  0  0  0  0  0  0  0  0  0
   -2.7625    3.8478   10.9990 H   0  0  0  0  0  0  0  0  0  0  0  0
   -4.1657    4.2909    9.0550 H   0  0  0  0  0  0  0  0  0  0  0  0
   -4.1659    2.5526    8.5950 H   0  0  0  0  0  0  0  0  0  0  0  0
    1.8215    5.1409    2.3639 H   0  0  0  0  0  0  0  0  0  0  0  0
   -0.7330    4.5550    6.7355 H   0  0  0  0  0  0  0  0  0  0  0  0
  1  2  2  0
  2 25  1  0
  2  3  1  0
  3  4  1  0
  3 27  1  0
  3 28  1  0
  4  5  1  0
  4 29  1  0
  4 30  1  0
  5 16  1  0
  5  6  1  6
  5  7  1  0
  6 31  1  0
  7 19  1  0
  7  8  1  0
  7 32  1  1
  8  9  1  0
  8 33  1  0
  8 34  1  0
  9 15  2  0
  9 10  1  0
 10 11  2  0
 10 35  1  0
 11 12  1  0
 11 36  1  0
 12 13  1  0
 12 14  2  0
 13 37  1  0
 14 26  1  0
 14 15  1  0
 15 16  1  0
 16 17  1  1
 16 25  1  0
 17 18  1  0
 17 38  1  0
 17 39  1  0
 18 19  1  0
 18 40  1  0
 18 41  1  0
 19 20  1  0
 19 52  1  1
 20 21  1  0
 20 42  1  0
 20 43  1  0
 21 24  1  0
 21 22  1  0
 21 44  1  0
 22 23  1  0
 22 45  1  0
 22 46  1  0
 23 24  1  0
 23 47  1  0
 23 48  1  0
 24 49  1  0
 24 50  1  0
 25 26  1  0
 25 51  1  6
M  CHG  1  19   1
M  END
>  <i_m_ct_stereo_status>  (326) 
1

>  <s_m_source_file>  (326) 
/var/tmp/pbs.5076255.sched01/tmpzqmxgpmu/1265eqpa8lp.sdf

>  <i_m_source_file_index>  (326) 
13

>  <i_lp_mmshare_version>  (326) 
48012

>  <i_f3d_flags>  (326) 
0

>  <s_epik_input>  (326) 
W0NIMl0xW0NIMl1DKD1PKVtDQEhdMk9jKGMoW09IXSlbY0hdW2NIXTMpYzRjM1tDSDJdW0NASF0oW0NAQF0xKFtDQF0yNDUpW09IXSlOKFtDSDJdW0NIMl01KVtDSDJdW0NIXTZbQ0gyXVtDSDJdW0NIMl02

>  <s_epik_cmdline>  (326) 
J2VwaWtfcHl0aG9uJywgJy1waHQnLCAnMi4wJywgJy1waCcsICc3LjAnLCAnLXRuJywgJzgnLCAnLW1hJywgJzIwMCcsICctaW1hZScsICc8aW5maWxlLm1hZT4nLCAnLW9tYWUnLCAnPG91dGZpbGUubWFlPic=

>  <r_lp_tautomer_probability>  (326) 
1

>  <r_epik_Ionization_Penalty>  (326) 
0.0647411

>  <r_epik_Ionization_Penalty_Charging>  (326) 
0.0399915

>  <r_epik_Ionization_Penalty_Neutral>  (326) 
0.0247495

>  <r_epik_State_Penalty>  (326) 
0.0526502

>  <r_epik_Charging_Adjusted_Penalty>  (326) 
0.0926417

>  <i_epik_Tot_Q>  (326) 
1

>  <i_epik_Tot_abs_Q>  (326) 
1

>  <s_lp_Force_Field>  (326) 
OPLS3e

>  <r_lp_Energy>  (326) 
78.523

>  <b_lp_Chiralities_Consistent>  (326) 
1

>  <s_lp_Variant>  (326) 
98:0-1

>  <s_i_glide_gridfile>  (326) 
pfpi4k_grid

>  <i_i_glide_lignum>  (326) 
13

>  <i_i_glide_rotatable_bonds>  (326) 
4

>  <r_i_docking_score>  (326) 
-3.51863

>  <r_i_glide_ligand_efficiency>  (326) 
-0.135332

>  <r_i_glide_ligand_efficiency_sa>  (326) 
-0.400921

>  <r_i_glide_ligand_efficiency_ln>  (326) 
-0.82634

>  <r_i_glide_gscore>  (326) 
-3.51863

>  <r_i_glide_lipo>  (326) 
-0.16772

>  <r_i_glide_hbond>  (326) 
-0.222646

>  <r_i_glide_metal>  (326) 
-0

>  <r_i_glide_rewards>  (326) 
-0.978849

>  <r_i_glide_evdw>  (326) 
-25.3391

>  <r_i_glide_ecoul>  (326) 
-7.85177

>  <r_i_glide_erotb>  (326) 
0.301187

>  <r_i_glide_esite>  (326) 
-0.00588483

>  <r_i_glide_emodel>  (326) 
-40.5614

>  <r_i_glide_energy>  (326) 
-33.1909

>  <r_i_glide_einternal>  (326) 
2.45059

>  <r_i_glide_intrahb_reward>  (326) 
-0

>  <i_i_glide_confnum>  (326) 
5

>  <i_i_glide_posenum>  (326) 
5

>  <r_i_glide_eff_state_penalty>  (326) 
0

>  <ligand_id>  (326) 
98

>  <original_smiles>  (326) 
O=C1CCC2(O)C3Cc4ccc(O)c5c4C2(CCN3CC2CCC2)C1O5

>  <smiles>  (326) 
[H]Oc1c([H])c([H])c2c3c1OC1([H])C(=O)C([H])([H])C([H])([H])C4(O[H])C31C([H])([H])C([H])([H])[N+]([H])(C([H])([H])C1([H])C([H])([H])C([H])([H])C1([H])[H])C4([H])C2([H])[H]

$$$$
98:1:0
     RDKit          3D

 51 56  0  0  1  0  0  0  0  0999 V2000
    7.7126   -7.7150    5.2614 O   0  0  0  0  0  0  0  0  0  0  0  0
    7.2047   -8.2711    4.2851 C   0  0  0  0  0  0  0  0  0  0  0  0
    7.7767   -8.1559    2.8650 C   0  0  0  0  0  0  0  0  0  0  0  0
    6.7061   -8.0600    1.7128 C   0  0  0  0  0  0  0  0  0  0  0  0
    5.3670   -8.8541    1.9311 C   0  0  2  0  0  0  0  0  0  0  0  0
    5.7398  -10.1947    1.6162 O   0  0  0  0  0  0  0  0  0  0  0  0
    4.0589   -8.5196    1.1104 C   0  0  1  0  0  0  0  0  0  0  0  0
    2.8922   -9.4659    1.5056 C   0  0  0  0  0  0  0  0  0  0  0  0
    2.7266   -9.8513    2.9728 C   0  0  0  0  0  0  0  0  0  0  0  0
    1.6929  -10.5481    3.6312 C   0  0  0  0  0  0  0  0  0  0  0  0
    1.7968  -10.7834    5.0277 C   0  0  0  0  0  0  0  0  0  0  0  0
    2.9415  -10.3846    5.7783 C   0  0  0  0  0  0  0  0  0  0  0  0
    3.0132  -10.6509    7.1018 O   0  0  0  0  0  0  0  0  0  0  0  0
    4.0280   -9.7100    5.1412 C   0  0  0  0  0  0  0  0  0  0  0  0
    3.7953   -9.4712    3.7981 C   0  0  0  0  0  0  0  0  0  0  0  0
    4.9422   -8.6468    3.3676 C   0  0  2  0  0  0  0  0  0  0  0  0
    4.5532   -7.1462    3.5882 C   0  0  0  0  0  0  0  0  0  0  0  0
    3.3664   -6.7864    2.6925 C   0  0  0  0  0  0  0  0  0  0  0  0
    3.5547   -7.1456    1.2789 N   0  0  0  0  0  0  0  0  0  0  0  0
    4.1471   -6.1511    0.4070 C   0  0  0  0  0  0  0  0  0  0  0  0
    3.3585   -4.8667    0.2812 C   0  0  0  0  0  0  0  0  0  0  0  0
    3.8043   -3.8235   -0.7509 C   0  0  0  0  0  0  0  0  0  0  0  0
    3.5405   -2.7198    0.2674 C   0  0  0  0  0  0  0  0  0  0  0  0
    3.5299   -3.7744    1.3488 C   0  0  0  0  0  0  0  0  0  0  0  0
    5.9807   -9.1549    4.3654 C   0  0  2  0  0  0  0  0  0  0  0  0
    5.2421   -9.2872    5.5939 O   0  0  0  0  0  0  0  0  0  0  0  0
    8.4655   -7.3096    2.8094 H   0  0  0  0  0  0  0  0  0  0  0  0
    8.3751   -9.0501    2.7314 H   0  0  0  0  0  0  0  0  0  0  0  0
    6.5344   -7.0036    1.5794 H   0  0  0  0  0  0  0  0  0  0  0  0
    7.1876   -8.4030    0.8037 H   0  0  0  0  0  0  0  0  0  0  0  0
    4.9731  -10.7283    1.4391 H   0  0  0  0  0  0  0  0  0  0  0  0
    4.2619   -8.6854    0.0534 H   0  0  0  0  0  0  0  0  0  0  0  0
    1.9390   -9.0817    1.1298 H   0  0  0  0  0  0  0  0  0  0  0  0
    3.0116  -10.3859    0.9609 H   0  0  0  0  0  0  0  0  0  0  0  0
    0.8283  -10.8834    3.0781 H   0  0  0  0  0  0  0  0  0  0  0  0
    0.9898  -11.2828    5.5293 H   0  0  0  0  0  0  0  0  0  0  0  0
    2.3425  -11.3206    7.3547 H   0  0  0  0  0  0  0  0  0  0  0  0
    4.2956   -6.9391    4.6250 H   0  0  0  0  0  0  0  0  0  0  0  0
    5.3743   -6.4641    3.3648 H   0  0  0  0  0  0  0  0  0  0  0  0
    2.4624   -7.2586    3.0786 H   0  0  0  0  0  0  0  0  0  0  0  0
    3.1747   -5.7303    2.8220 H   0  0  0  0  0  0  0  0  0  0  0  0
    5.1457   -5.8829    0.7487 H   0  0  0  0  0  0  0  0  0  0  0  0
    4.2861   -6.5819   -0.5911 H   0  0  0  0  0  0  0  0  0  0  0  0
    2.2811   -5.0538    0.1162 H   0  0  0  0  0  0  0  0  0  0  0  0
    4.8753   -3.9444   -0.9657 H   0  0  0  0  0  0  0  0  0  0  0  0
    3.2130   -3.7920   -1.6615 H   0  0  0  0  0  0  0  0  0  0  0  0
    4.3320   -1.9832    0.3825 H   0  0  0  0  0  0  0  0  0  0  0  0
    2.5538   -2.2602    0.1434 H   0  0  0  0  0  0  0  0  0  0  0  0
    2.7088   -3.6891    2.0602 H   0  0  0  0  0  0  0  0  0  0  0  0
    4.4990   -3.8829    1.8600 H   0  0  0  0  0  0  0  0  0  0  0  0
    6.2965  -10.1598    4.0826 H   0  0  0  0  0  0  0  0  0  0  0  0
  1  2  2  0
  2 25  1  0
  2  3  1  0
  3  4  1  0
  3 27  1  0
  3 28  1  0
  4  5  1  0
  4 29  1  0
  4 30  1  0
  5 16  1  0
  5  6  1  1
  5  7  1  0
  6 31  1  0
  7 19  1  0
  7  8  1  0
  7 32  1  6
  8  9  1  0
  8 33  1  0
  8 34  1  0
  9 15  2  0
  9 10  1  0
 10 11  2  0
 10 35  1  0
 11 12  1  0
 11 36  1  0
 12 13  1  0
 12 14  2  0
 13 37  1  0
 14 26  1  0
 14 15  1  0
 15 16  1  0
 16 17  1  1
 16 25  1  0
 17 18  1  0
 17 38  1  0
 17 39  1  0
 18 19  1  0
 18 40  1  0
 18 41  1  0
 19 20  1  0
 20 21  1  0
 20 42  1  0
 20 43  1  0
 21 24  1  0
 21 22  1  0
 21 44  1  0
 22 23  1  0
 22 45  1  0
 22 46  1  0
 23 24  1  0
 23 47  1  0
 23 48  1  0
 24 49  1  0
 24 50  1  0
 25 26  1  0
 25 51  1  6
M  END
>  <i_m_ct_stereo_status>  (327) 
1

>  <s_m_source_file>  (327) 
/var/tmp/pbs.5076255.sched01/tmpzqmxgpmu/1265eqpa8lp.sdf

>  <i_m_source_file_index>  (327) 
14

>  <i_lp_mmshare_version>  (327) 
48012

>  <i_f3d_flags>  (327) 
0

>  <s_epik_input>  (327) 
W0NIMl0xW0NIMl1DKD1PKVtDQEhdMk9jKGMoW09IXSlbY0hdW2NIXTMpYzRjM1tDSDJdW0NASF0oW0NAQF0xKFtDQF0yNDUpW09IXSlOKFtDSDJdW0NIMl01KVtDSDJdW0NIXTZbQ0gyXVtDSDJdW0NIMl02

>  <s_epik_cmdline>  (327) 
J2VwaWtfcHl0aG9uJywgJy1waHQnLCAnMi4wJywgJy1waCcsICc3LjAnLCAnLXRuJywgJzgnLCAnLW1hJywgJzIwMCcsICctaW1hZScsICc8aW5maWxlLm1hZT4nLCAnLW9tYWUnLCAnPG91dGZpbGUubWFlPic=

>  <r_lp_tautomer_probability>  (327) 
1

>  <r_epik_Ionization_Penalty>  (327) 
1.61846

>  <r_epik_Ionization_Penalty_Charging>  (327) 
0

>  <r_epik_Ionization_Penalty_Neutral>  (327) 
1.61846

>  <r_epik_State_Penalty>  (327) 
1.73547

>  <r_epik_Charging_Adjusted_Penalty>  (327) 
1.73547

>  <i_epik_Tot_Q>  (327) 
0

>  <i_epik_Tot_abs_Q>  (327) 
0

>  <s_lp_Force_Field>  (327) 
OPLS3e

>  <r_lp_Energy>  (327) 
79.5576

>  <b_lp_Chiralities_Consistent>  (327) 
1

>  <s_lp_Variant>  (327) 
98:0-2

>  <s_i_glide_gridfile>  (327) 
pfpi4k_grid

>  <i_i_glide_lignum>  (327) 
14

>  <i_i_glide_rotatable_bonds>  (327) 
4

>  <r_i_docking_score>  (327) 
-3.46983

>  <r_i_glide_ligand_efficiency>  (327) 
-0.133455

>  <r_i_glide_ligand_efficiency_sa>  (327) 
-0.39536

>  <r_i_glide_ligand_efficiency_ln>  (327) 
-0.814878

>  <r_i_glide_gscore>  (327) 
-3.46983

>  <r_i_glide_lipo>  (327) 
-0.308107

>  <r_i_glide_hbond>  (327) 
-0.146542

>  <r_i_glide_metal>  (327) 
-0

>  <r_i_glide_rewards>  (327) 
-0.988287

>  <r_i_glide_evdw>  (327) 
-14.3539

>  <r_i_glide_ecoul>  (327) 
-10.7461

>  <r_i_glide_erotb>  (327) 
0.302709

>  <r_i_glide_esite>  (327) 
0

>  <r_i_glide_emodel>  (327) 
-30.5247

>  <r_i_glide_energy>  (327) 
-25.1

>  <r_i_glide_einternal>  (327) 
1.15474

>  <r_i_glide_intrahb_reward>  (327) 
-0

>  <i_i_glide_confnum>  (327) 
2

>  <i_i_glide_posenum>  (327) 
19

>  <r_i_glide_eff_state_penalty>  (327) 
0

>  <ligand_id>  (327) 
98

>  <original_smiles>  (327) 
O=C1CCC2(O)C3Cc4ccc(O)c5c4C2(CCN3CC2CCC2)C1O5

>  <smiles>  (327) 
[H]Oc1c([H])c([H])c2c3c1OC1([H])C(=O)C([H])([H])C([H])([H])C4(O[H])C([H])(N(C([H])([H])C5([H])C([H])([H])C([H])([H])C5([H])[H])C([H])([H])C([H])([H])C314)C2([H])[H]

$$$$
98:1:1
     RDKit          3D

 51 56  0  0  1  0  0  0  0  0999 V2000
    3.8389    5.7464    4.0647 O   0  0  0  0  0  0  0  0  0  0  0  0
    2.6185    5.6494    3.9526 C   0  0  0  0  0  0  0  0  0  0  0  0
    1.6441    6.7193    4.4835 C   0  0  0  0  0  0  0  0  0  0  0  0
    0.3270    6.1609    5.1388 C   0  0  0  0  0  0  0  0  0  0  0  0
   -0.2600    4.8441    4.5128 C   0  0  2  0  0  0  0  0  0  0  0  0
   -0.8850    5.2686    3.2986 O   0  0  0  0  0  0  0  0  0  0  0  0
   -1.2910    3.9475    5.2907 C   0  0  1  0  0  0  0  0  0  0  0  0
   -1.7710    2.7539    4.4030 C   0  0  0  0  0  0  0  0  0  0  0  0
   -0.6918    2.0279    3.5837 C   0  0  0  0  0  0  0  0  0  0  0  0
   -0.7642    0.8305    2.8569 C   0  0  0  0  0  0  0  0  0  0  0  0
    0.3717    0.3846    2.1250 C   0  0  0  0  0  0  0  0  0  0  0  0
    1.5727    1.1363    2.0714 C   0  0  0  0  0  0  0  0  0  0  0  0
    2.6175    0.6734    1.3244 O   0  0  0  0  0  0  0  0  0  0  0  0
    1.6614    2.3607    2.7698 C   0  0  0  0  0  0  0  0  0  0  0  0
    0.5364    2.6871    3.5067 C   0  0  0  0  0  0  0  0  0  0  0  0
    0.9032    3.8960    4.2583 C   0  0  2  0  0  0  0  0  0  0  0  0
    1.5158    3.4439    5.6282 C   0  0  0  0  0  0  0  0  0  0  0  0
    0.4714    2.6971    6.4684 C   0  0  0  0  0  0  0  0  0  0  0  0
   -0.8089    3.4076    6.5783 N   0  0  0  0  0  0  0  0  0  0  0  0
   -0.9417    4.2937    7.7261 C   0  0  0  0  0  0  0  0  0  0  0  0
   -1.0010    3.5679    9.0635 C   0  0  0  0  0  0  0  0  0  0  0  0
   -2.2976    2.8325    9.4202 C   0  0  0  0  0  0  0  0  0  0  0  0
   -2.1570    3.3566   10.8488 C   0  0  0  0  0  0  0  0  0  0  0  0
   -1.2009    4.4229   10.3160 C   0  0  0  0  0  0  0  0  0  0  0  0
    1.9177    4.4769    3.2892 C   0  0  2  0  0  0  0  0  0  0  0  0
    2.6478    3.3260    2.8327 O   0  0  0  0  0  0  0  0  0  0  0  0
    2.1765    7.3543    5.1956 H   0  0  0  0  0  0  0  0  0  0  0  0
    1.3933    7.3511    3.6339 H   0  0  0  0  0  0  0  0  0  0  0  0
    0.5633    6.0344    6.1893 H   0  0  0  0  0  0  0  0  0  0  0  0
   -0.4214    6.9488    5.1194 H   0  0  0  0  0  0  0  0  0  0  0  0
   -0.3792    4.9514    2.5532 H   0  0  0  0  0  0  0  0  0  0  0  0
   -2.1766    4.5442    5.4775 H   0  0  0  0  0  0  0  0  0  0  0  0
   -2.2716    2.0165    5.0304 H   0  0  0  0  0  0  0  0  0  0  0  0
   -2.5255    3.1087    3.7040 H   0  0  0  0  0  0  0  0  0  0  0  0
   -1.6763    0.2550    2.8637 H   0  0  0  0  0  0  0  0  0  0  0  0
    0.3165   -0.5472    1.5912 H   0  0  0  0  0  0  0  0  0  0  0  0
    2.3417   -0.0108    0.7277 H   0  0  0  0  0  0  0  0  0  0  0  0
    2.3851    2.8010    5.4798 H   0  0  0  0  0  0  0  0  0  0  0  0
    1.8820    4.2859    6.2146 H   0  0  0  0  0  0  0  0  0  0  0  0
    0.2963    1.7144    6.0216 H   0  0  0  0  0  0  0  0  0  0  0  0
    0.8955    2.4979    7.4495 H   0  0  0  0  0  0  0  0  0  0  0  0
   -0.1366    5.0205    7.7633 H   0  0  0  0  0  0  0  0  0  0  0  0
   -1.8651    4.8667    7.6235 H   0  0  0  0  0  0  0  0  0  0  0  0
   -0.1476    2.9059    9.2437 H   0  0  0  0  0  0  0  0  0  0  0  0
   -3.1696    3.2311    8.8924 H   0  0  0  0  0  0  0  0  0  0  0  0
   -2.2247    1.7509    9.3154 H   0  0  0  0  0  0  0  0  0  0  0  0
   -3.0803    3.7505   11.2742 H   0  0  0  0  0  0  0  0  0  0  0  0
   -1.6596    2.6432   11.5100 H   0  0  0  0  0  0  0  0  0  0  0  0
   -0.2899    4.5567   10.8967 H   0  0  0  0  0  0  0  0  0  0  0  0
   -1.6900    5.3743   10.0906 H   0  0  0  0  0  0  0  0  0  0  0  0
    1.4108    4.8971    2.4235 H   0  0  0  0  0  0  0  0  0  0  0  0
  1  2  2  0
  2 25  1  0
  2  3  1  0
  3  4  1  0
  3 27  1  0
  3 28  1  0
  4  5  1  0
  4 29  1  0
  4 30  1  0
  5 16  1  0
  5  6  1  6
  5  7  1  0
  6 31  1  0
  7 19  1  0
  7  8  1  0
  7 32  1  1
  8  9  1  0
  8 33  1  0
  8 34  1  0
  9 15  2  0
  9 10  1  0
 10 11  2  0
 10 35  1  0
 11 12  1  0
 11 36  1  0
 12 13  1  0
 12 14  2  0
 13 37  1  0
 14 26  1  0
 14 15  1  0
 15 16  1  0
 16 17  1  1
 16 25  1  0
 17 18  1  0
 17 38  1  0
 17 39  1  0
 18 19  1  0
 18 40  1  0
 18 41  1  0
 19 20  1  0
 20 21  1  0
 20 42  1  0
 20 43  1  0
 21 24  1  0
 21 22  1  0
 21 44  1  0
 22 23  1  0
 22 45  1  0
 22 46  1  0
 23 24  1  0
 23 47  1  0
 23 48  1  0
 24 49  1  0
 24 50  1  0
 25 26  1  0
 25 51  1  6
M  END
>  <i_m_ct_stereo_status>  (328) 
1

>  <s_m_source_file>  (328) 
/var/tmp/pbs.5076255.sched01/tmpzqmxgpmu/1265eqpa8lp.sdf

>  <i_m_source_file_index>  (328) 
14

>  <i_lp_mmshare_version>  (328) 
48012

>  <i_f3d_flags>  (328) 
0

>  <s_epik_input>  (328) 
W0NIMl0xW0NIMl1DKD1PKVtDQEhdMk9jKGMoW09IXSlbY0hdW2NIXTMpYzRjM1tDSDJdW0NASF0oW0NAQF0xKFtDQF0yNDUpW09IXSlOKFtDSDJdW0NIMl01KVtDSDJdW0NIXTZbQ0gyXVtDSDJdW0NIMl02

>  <s_epik_cmdline>  (328) 
J2VwaWtfcHl0aG9uJywgJy1waHQnLCAnMi4wJywgJy1waCcsICc3LjAnLCAnLXRuJywgJzgnLCAnLW1hJywgJzIwMCcsICctaW1hZScsICc8aW5maWxlLm1hZT4nLCAnLW9tYWUnLCAnPG91dGZpbGUubWFlPic=

>  <r_lp_tautomer_probability>  (328) 
1

>  <r_epik_Ionization_Penalty>  (328) 
1.61846

>  <r_epik_Ionization_Penalty_Charging>  (328) 
0

>  <r_epik_Ionization_Penalty_Neutral>  (328) 
1.61846

>  <r_epik_State_Penalty>  (328) 
1.73547

>  <r_epik_Charging_Adjusted_Penalty>  (328) 
1.73547

>  <i_epik_Tot_Q>  (328) 
0

>  <i_epik_Tot_abs_Q>  (328) 
0

>  <s_lp_Force_Field>  (328) 
OPLS3e

>  <r_lp_Energy>  (328) 
79.5576

>  <b_lp_Chiralities_Consistent>  (328) 
1

>  <s_lp_Variant>  (328) 
98:0-2

>  <s_i_glide_gridfile>  (328) 
pfpi4k_grid

>  <i_i_glide_lignum>  (328) 
14

>  <i_i_glide_rotatable_bonds>  (328) 
4

>  <r_i_docking_score>  (328) 
-3.02889

>  <r_i_glide_ligand_efficiency>  (328) 
-0.116496

>  <r_i_glide_ligand_efficiency_sa>  (328) 
-0.345118

>  <r_i_glide_ligand_efficiency_ln>  (328) 
-0.711324

>  <r_i_glide_gscore>  (328) 
-3.02889

>  <r_i_glide_lipo>  (328) 
0

>  <r_i_glide_hbond>  (328) 
-0.306936

>  <r_i_glide_metal>  (328) 
-0

>  <r_i_glide_rewards>  (328) 
-0.985722

>  <r_i_glide_evdw>  (328) 
-20.9266

>  <r_i_glide_ecoul>  (328) 
-6.58889

>  <r_i_glide_erotb>  (328) 
0.302709

>  <r_i_glide_esite>  (328) 
-0.0042749

>  <r_i_glide_emodel>  (328) 
-32.1438

>  <r_i_glide_energy>  (328) 
-27.5155

>  <r_i_glide_einternal>  (328) 
1.38937

>  <r_i_glide_intrahb_reward>  (328) 
-0

>  <i_i_glide_confnum>  (328) 
2

>  <i_i_glide_posenum>  (328) 
38

>  <r_i_glide_eff_state_penalty>  (328) 
0

>  <ligand_id>  (328) 
98

>  <original_smiles>  (328) 
O=C1CCC2(O)C3Cc4ccc(O)c5c4C2(CCN3CC2CCC2)C1O5

>  <smiles>  (328) 
[H]Oc1c([H])c([H])c2c3c1OC1([H])C(=O)C([H])([H])C([H])([H])C4(O[H])C([H])(N(C([H])([H])C5([H])C([H])([H])C([H])([H])C5([H])[H])C([H])([H])C([H])([H])C314)C2([H])[H]

$$$$
98:1:2
     RDKit          3D

 51 56  0  0  1  0  0  0  0  0999 V2000
    3.9826    5.6010    4.6543 O   0  0  0  0  0  0  0  0  0  0  0  0
    2.7817    5.5657    4.3893 C   0  0  0  0  0  0  0  0  0  0  0  0
    1.7787    6.6331    4.8773 C   0  0  0  0  0  0  0  0  0  0  0  0
    0.3732    6.0816    5.3286 C   0  0  0  0  0  0  0  0  0  0  0  0
   -0.1694    4.8316    4.5462 C   0  0  2  0  0  0  0  0  0  0  0  0
   -0.6360    5.3488    3.3018 O   0  0  0  0  0  0  0  0  0  0  0  0
   -1.3145    3.9312    5.1249 C   0  0  1  0  0  0  0  0  0  0  0  0
   -1.7153    2.8155    4.1054 C   0  0  0  0  0  0  0  0  0  0  0  0
   -0.5638    2.1048    3.3761 C   0  0  0  0  0  0  0  0  0  0  0  0
   -0.5832    0.9629    2.5591 C   0  0  0  0  0  0  0  0  0  0  0  0
    0.6239    0.5244    1.9478 C   0  0  0  0  0  0  0  0  0  0  0  0
    1.8439    1.2338    2.0933 C   0  0  0  0  0  0  0  0  0  0  0  0
    2.9688    0.7771    1.4721 O   0  0  0  0  0  0  0  0  0  0  0  0
    1.8788    2.4084    2.8748 C   0  0  0  0  0  0  0  0  0  0  0  0
    0.6813    2.7233    3.4926 C   0  0  0  0  0  0  0  0  0  0  0  0
    0.9892    3.8645    4.3655 C   0  0  2  0  0  0  0  0  0  0  0  0
    1.4132    3.2995    5.7678 C   0  0  0  0  0  0  0  0  0  0  0  0
    0.2472    2.5441    6.4270 C   0  0  0  0  0  0  0  0  0  0  0  0
   -1.0108    3.2968    6.4204 N   0  0  0  0  0  0  0  0  0  0  0  0
   -1.2512    4.1117    7.6002 C   0  0  0  0  0  0  0  0  0  0  0  0
   -1.6417    3.2908    8.8195 C   0  0  0  0  0  0  0  0  0  0  0  0
   -2.8884    2.4081    8.7050 C   0  0  0  0  0  0  0  0  0  0  0  0
   -3.2850    2.8348   10.1171 C   0  0  0  0  0  0  0  0  0  0  0  0
   -2.3302    4.0190    9.9800 C   0  0  0  0  0  0  0  0  0  0  0  0
    2.1307    4.4706    3.5625 C   0  0  2  0  0  0  0  0  0  0  0  0
    2.8826    3.3277    3.1265 O   0  0  0  0  0  0  0  0  0  0  0  0
    2.2390    7.2033    5.6888 H   0  0  0  0  0  0  0  0  0  0  0  0
    1.6429    7.3284    4.0487 H   0  0  0  0  0  0  0  0  0  0  0  0
    0.4612    5.8761    6.3901 H   0  0  0  0  0  0  0  0  0  0  0  0
   -0.3435    6.8968    5.2666 H   0  0  0  0  0  0  0  0  0  0  0  0
   -0.2589    4.8518    2.5787 H   0  0  0  0  0  0  0  0  0  0  0  0
   -2.1992    4.5461    5.2454 H   0  0  0  0  0  0  0  0  0  0  0  0
   -2.3150    2.0585    4.6101 H   0  0  0  0  0  0  0  0  0  0  0  0
   -2.3620    3.2455    3.3443 H   0  0  0  0  0  0  0  0  0  0  0  0
   -1.5088    0.4337    2.4060 H   0  0  0  0  0  0  0  0  0  0  0  0
    0.6044   -0.3648    1.3414 H   0  0  0  0  0  0  0  0  0  0  0  0
    2.7734    0.0708    0.8717 H   0  0  0  0  0  0  0  0  0  0  0  0
    2.2743    2.6331    5.6831 H   0  0  0  0  0  0  0  0  0  0  0  0
    1.7326    4.0864    6.4511 H   0  0  0  0  0  0  0  0  0  0  0  0
    0.1018    1.5964    5.9023 H   0  0  0  0  0  0  0  0  0  0  0  0
    0.5209    2.2710    7.4449 H   0  0  0  0  0  0  0  0  0  0  0  0
   -0.3924    4.7331    7.8424 H   0  0  0  0  0  0  0  0  0  0  0  0
   -2.0800    4.7846    7.3958 H   0  0  0  0  0  0  0  0  0  0  0  0
   -0.8176    2.6853    9.2099 H   0  0  0  0  0  0  0  0  0  0  0  0
   -3.5884    2.7679    7.9438 H   0  0  0  0  0  0  0  0  0  0  0  0
   -2.6398    1.3529    8.5706 H   0  0  0  0  0  0  0  0  0  0  0  0
   -4.3330    3.1124   10.2257 H   0  0  0  0  0  0  0  0  0  0  0  0
   -2.9660    2.1296   10.8804 H   0  0  0  0  0  0  0  0  0  0  0  0
   -1.6815    4.1915   10.8373 H   0  0  0  0  0  0  0  0  0  0  0  0
   -2.8321    4.9338    9.6536 H   0  0  0  0  0  0  0  0  0  0  0  0
    1.7477    4.9554    2.6628 H   0  0  0  0  0  0  0  0  0  0  0  0
  1  2  2  0
  2 25  1  0
  2  3  1  0
  3  4  1  0
  3 27  1  0
  3 28  1  0
  4  5  1  0
  4 29  1  0
  4 30  1  0
  5 16  1  0
  5  6  1  6
  5  7  1  0
  6 31  1  0
  7 19  1  0
  7  8  1  0
  7 32  1  1
  8  9  1  0
  8 33  1  0
  8 34  1  0
  9 15  2  0
  9 10  1  0
 10 11  2  0
 10 35  1  0
 11 12  1  0
 11 36  1  0
 12 13  1  0
 12 14  2  0
 13 37  1  0
 14 26  1  0
 14 15  1  0
 15 16  1  0
 16 17  1  1
 16 25  1  0
 17 18  1  0
 17 38  1  0
 17 39  1  0
 18 19  1  0
 18 40  1  0
 18 41  1  0
 19 20  1  0
 20 21  1  0
 20 42  1  0
 20 43  1  0
 21 24  1  0
 21 22  1  0
 21 44  1  0
 22 23  1  0
 22 45  1  0
 22 46  1  0
 23 24  1  0
 23 47  1  0
 23 48  1  0
 24 49  1  0
 24 50  1  0
 25 26  1  0
 25 51  1  6
M  END
>  <i_m_ct_stereo_status>  (329) 
1

>  <s_m_source_file>  (329) 
/var/tmp/pbs.5076255.sched01/tmpzqmxgpmu/1265eqpa8lp.sdf

>  <i_m_source_file_index>  (329) 
14

>  <i_lp_mmshare_version>  (329) 
48012

>  <i_f3d_flags>  (329) 
0

>  <s_epik_input>  (329) 
W0NIMl0xW0NIMl1DKD1PKVtDQEhdMk9jKGMoW09IXSlbY0hdW2NIXTMpYzRjM1tDSDJdW0NASF0oW0NAQF0xKFtDQF0yNDUpW09IXSlOKFtDSDJdW0NIMl01KVtDSDJdW0NIXTZbQ0gyXVtDSDJdW0NIMl02

>  <s_epik_cmdline>  (329) 
J2VwaWtfcHl0aG9uJywgJy1waHQnLCAnMi4wJywgJy1waCcsICc3LjAnLCAnLXRuJywgJzgnLCAnLW1hJywgJzIwMCcsICctaW1hZScsICc8aW5maWxlLm1hZT4nLCAnLW9tYWUnLCAnPG91dGZpbGUubWFlPic=

>  <r_lp_tautomer_probability>  (329) 
1

>  <r_epik_Ionization_Penalty>  (329) 
1.61846

>  <r_epik_Ionization_Penalty_Charging>  (329) 
0

>  <r_epik_Ionization_Penalty_Neutral>  (329) 
1.61846

>  <r_epik_State_Penalty>  (329) 
1.73547

>  <r_epik_Charging_Adjusted_Penalty>  (329) 
1.73547

>  <i_epik_Tot_Q>  (329) 
0

>  <i_epik_Tot_abs_Q>  (329) 
0

>  <s_lp_Force_Field>  (329) 
OPLS3e

>  <r_lp_Energy>  (329) 
79.5576

>  <b_lp_Chiralities_Consistent>  (329) 
1

>  <s_lp_Variant>  (329) 
98:0-2

>  <s_i_glide_gridfile>  (329) 
pfpi4k_grid

>  <i_i_glide_lignum>  (329) 
14

>  <i_i_glide_rotatable_bonds>  (329) 
4

>  <r_i_docking_score>  (329) 
-2.78362

>  <r_i_glide_ligand_efficiency>  (329) 
-0.107062

>  <r_i_glide_ligand_efficiency_sa>  (329) 
-0.317172

>  <r_i_glide_ligand_efficiency_ln>  (329) 
-0.653724

>  <r_i_glide_gscore>  (329) 
-2.78362

>  <r_i_glide_lipo>  (329) 
-0.0030409

>  <r_i_glide_hbond>  (329) 
-0.25783

>  <r_i_glide_metal>  (329) 
-0

>  <r_i_glide_rewards>  (329) 
-0.985722

>  <r_i_glide_evdw>  (329) 
-22.3819

>  <r_i_glide_ecoul>  (329) 
-4.75029

>  <r_i_glide_erotb>  (329) 
0.302709

>  <r_i_glide_esite>  (329) 
-0.00809854

>  <r_i_glide_emodel>  (329) 
-31.2436

>  <r_i_glide_energy>  (329) 
-27.1322

>  <r_i_glide_einternal>  (329) 
1.82279

>  <r_i_glide_intrahb_reward>  (329) 
-0

>  <i_i_glide_confnum>  (329) 
2

>  <i_i_glide_posenum>  (329) 
1

>  <r_i_glide_eff_state_penalty>  (329) 
0

>  <ligand_id>  (329) 
98

>  <original_smiles>  (329) 
O=C1CCC2(O)C3Cc4ccc(O)c5c4C2(CCN3CC2CCC2)C1O5

>  <smiles>  (329) 
[H]Oc1c([H])c([H])c2c3c1OC1([H])C(=O)C([H])([H])C([H])([H])C4(O[H])C([H])(N(C([H])([H])C5([H])C([H])([H])C([H])([H])C5([H])[H])C([H])([H])C([H])([H])C314)C2([H])[H]

$$$$
98:2:0
     RDKit          3D

 51 56  0  0  1  0  0  0  0  0999 V2000
    0.9517   -1.8804    4.6265 O   0  0  0  0  0  0  0  0  0  0  0  0
    2.0006   -1.4695    4.1323 C   0  0  0  0  0  0  0  0  0  0  0  0
    2.1802   -0.0209    3.6225 C   0  0  0  0  0  0  0  0  0  0  0  0
    3.0293    0.1378    2.2993 C   0  0  0  0  0  0  0  0  0  0  0  0
    4.2065   -0.8829    2.1197 C   0  0  2  0  0  0  0  0  0  0  0  0
    5.2352   -0.4452    2.9996 O   0  0  0  0  0  0  0  0  0  0  0  0
    4.8439   -1.1067    0.7072 C   0  0  1  0  0  0  0  0  0  0  0  0
    6.0242   -2.1550    0.7990 C   0  0  0  0  0  0  0  0  0  0  0  0
    5.7937   -3.4101    1.6562 C   0  0  0  0  0  0  0  0  0  0  0  0
    6.5269   -4.6086    1.7397 C   0  0  0  0  0  0  0  0  0  0  0  0
    6.1333   -5.5940    2.6909 C   0  0  0  0  0  0  0  0  0  0  0  0
    5.0399   -5.3942    3.5808 C   0  0  0  0  0  0  0  0  0  0  0  0
    4.7089   -6.3562    4.4928 O   0  0  0  0  0  0  0  0  0  0  0  0
    4.2980   -4.1946    3.5216 C   0  0  0  0  0  0  0  0  0  0  0  0
    4.7108   -3.3184    2.5351 C   0  0  0  0  0  0  0  0  0  0  0  0
    3.6908   -2.2565    2.5160 C   0  0  2  0  0  0  0  0  0  0  0  0
    2.5860   -2.7065    1.5064 C   0  0  0  0  0  0  0  0  0  0  0  0
    3.1179   -2.7881    0.0718 C   0  0  0  0  0  0  0  0  0  0  0  0
    3.8129   -1.5278   -0.2989 N   0  0  2  0  0  0  0  0  0  0  0  0
    4.3285   -1.5534   -1.6891 C   0  0  0  0  0  0  0  0  0  0  0  0
    3.2203   -1.4697   -2.7401 C   0  0  0  0  0  0  0  0  0  0  0  0
    3.3730   -2.3155   -4.0113 C   0  0  0  0  0  0  0  0  0  0  0  0
    3.9045   -1.0694   -4.7192 C   0  0  0  0  0  0  0  0  0  0  0  0
    3.2166   -0.2404   -3.6577 C   0  0  0  0  0  0  0  0  0  0  0  0
    3.2510   -2.3181    3.9718 C   0  0  2  0  0  0  0  0  0  0  0  0
    3.2254   -3.7272    4.2609 O   0  0  0  0  0  0  0  0  0  0  0  0
    1.1959    0.4334    3.4945 H   0  0  0  0  0  0  0  0  0  0  0  0
    2.6636    0.5258    4.4323 H   0  0  0  0  0  0  0  0  0  0  0  0
    2.3443    0.0776    1.4529 H   0  0  0  0  0  0  0  0  0  0  0  0
    3.4139    1.1580    2.2629 H   0  0  0  0  0  0  0  0  0  0  0  0
    5.0733    0.4494    3.2544 H   0  0  0  0  0  0  0  0  0  0  0  0
    5.2575   -0.1551    0.3657 H   0  0  0  0  0  0  0  0  0  0  0  0
    6.3463   -2.4781   -0.1889 H   0  0  0  0  0  0  0  0  0  0  0  0
    6.8946   -1.6479    1.2201 H   0  0  0  0  0  0  0  0  0  0  0  0
    7.3869   -4.7687    1.1006 H   0  0  0  0  0  0  0  0  0  0  0  0
    6.6884   -6.5125    2.7450 H   0  0  0  0  0  0  0  0  0  0  0  0
    2.1694   -3.6747    1.7870 H   0  0  0  0  0  0  0  0  0  0  0  0
    1.7304   -2.0301    1.5002 H   0  0  0  0  0  0  0  0  0  0  0  0
    3.7761   -3.6500   -0.0474 H   0  0  0  0  0  0  0  0  0  0  0  0
    2.2820   -2.9743   -0.5988 H   0  0  0  0  0  0  0  0  0  0  0  0
    5.0122   -0.7170   -1.8279 H   0  0  0  0  0  0  0  0  0  0  0  0
    4.9283   -2.4475   -1.8561 H   0  0  0  0  0  0  0  0  0  0  0  0
    2.2159   -1.6284   -2.3410 H   0  0  0  0  0  0  0  0  0  0  0  0
    4.0764   -3.1470   -3.9456 H   0  0  0  0  0  0  0  0  0  0  0  0
    2.4114   -2.6477   -4.4054 H   0  0  0  0  0  0  0  0  0  0  0  0
    4.9878   -1.0031   -4.6683 H   0  0  0  0  0  0  0  0  0  0  0  0
    3.5284   -0.8998   -5.7231 H   0  0  0  0  0  0  0  0  0  0  0  0
    2.2183    0.0755   -3.9662 H   0  0  0  0  0  0  0  0  0  0  0  0
    3.8067    0.6057   -3.3010 H   0  0  0  0  0  0  0  0  0  0  0  0
    4.0091   -1.8880    4.6239 H   0  0  0  0  0  0  0  0  0  0  0  0
    3.0901   -0.8136   -0.2907 H   0  0  0  0  0  0  0  0  0  0  0  0
  1  2  2  0
  2 25  1  0
  2  3  1  0
  3  4  1  0
  3 27  1  0
  3 28  1  0
  4  5  1  0
  4 29  1  0
  4 30  1  0
  5 16  1  0
  5  6  1  1
  5  7  1  0
  6 31  1  0
  7 19  1  0
  7  8  1  0
  7 32  1  6
  8  9  1  0
  8 33  1  0
  8 34  1  0
  9 15  2  0
  9 10  1  0
 10 11  2  0
 10 35  1  0
 11 12  1  0
 11 36  1  0
 12 13  1  0
 12 14  2  0
 14 26  1  0
 14 15  1  0
 15 16  1  0
 16 17  1  6
 16 25  1  0
 17 18  1  0
 17 37  1  0
 17 38  1  0
 18 19  1  0
 18 39  1  0
 18 40  1  0
 19 20  1  0
 19 51  1  6
 20 21  1  0
 20 41  1  0
 20 42  1  0
 21 24  1  0
 21 22  1  0
 21 43  1  0
 22 23  1  0
 22 44  1  0
 22 45  1  0
 23 24  1  0
 23 46  1  0
 23 47  1  0
 24 48  1  0
 24 49  1  0
 25 26  1  0
 25 50  1  1
M  CHG  2  13  -1  19   1
M  END
>  <i_m_ct_stereo_status>  (330) 
1

>  <s_m_source_file>  (330) 
/var/tmp/pbs.5076255.sched01/tmpzqmxgpmu/1265eqpa8lp.sdf

>  <i_m_source_file_index>  (330) 
15

>  <i_lp_mmshare_version>  (330) 
48012

>  <i_f3d_flags>  (330) 
0

>  <s_epik_input>  (330) 
W0NIMl0xW0NIMl1DKD1PKVtDQEhdMk9jKGMoW09IXSlbY0hdW2NIXTMpYzRjM1tDSDJdW0NASF0oW0NAQF0xKFtDQF0yNDUpW09IXSlOKFtDSDJdW0NIMl01KVtDSDJdW0NIXTZbQ0gyXVtDSDJdW0NIMl02

>  <s_epik_cmdline>  (330) 
J2VwaWtfcHl0aG9uJywgJy1waHQnLCAnMi4wJywgJy1waCcsICc3LjAnLCAnLXRuJywgJzgnLCAnLW1hJywgJzIwMCcsICctaW1hZScsICc8aW5maWxlLm1hZT4nLCAnLW9tYWUnLCAnPG91dGZpbGUubWFlPic=

>  <r_epik_Ionization_Penalty>  (330) 
1.93029

>  <r_epik_Ionization_Penalty_Charging>  (330) 
1.93029

>  <r_epik_Ionization_Penalty_Neutral>  (330) 
2.69768e-07

>  <r_epik_State_Penalty>  (330) 
2.04707

>  <r_epik_Charging_Adjusted_Penalty>  (330) 
3.97736

>  <i_epik_Tot_Q>  (330) 
0

>  <i_epik_Tot_abs_Q>  (330) 
2

>  <s_lp_Force_Field>  (330) 
OPLS3e

>  <r_lp_Energy>  (330) 
76.0096

>  <b_lp_Chiralities_Consistent>  (330) 
1

>  <s_lp_Variant>  (330) 
98:0-3

>  <s_i_glide_gridfile>  (330) 
pfpi4k_grid

>  <i_i_glide_lignum>  (330) 
15

>  <i_i_glide_rotatable_bonds>  (330) 
3

>  <r_i_docking_score>  (330) 
-3.13872

>  <r_i_glide_ligand_efficiency>  (330) 
-0.12072

>  <r_i_glide_ligand_efficiency_sa>  (330) 
-0.357633

>  <r_i_glide_ligand_efficiency_ln>  (330) 
-0.737119

>  <r_i_glide_gscore>  (330) 
-3.13872

>  <r_i_glide_lipo>  (330) 
-0.647178

>  <r_i_glide_hbond>  (330) 
-0.00259003

>  <r_i_glide_metal>  (330) 
-0

>  <r_i_glide_rewards>  (330) 
-0.985722

>  <r_i_glide_evdw>  (330) 
-25.4513

>  <r_i_glide_ecoul>  (330) 
-3.12961

>  <r_i_glide_erotb>  (330) 
0.302709

>  <r_i_glide_esite>  (330) 
-0.063937

>  <r_i_glide_emodel>  (330) 
-35.4064

>  <r_i_glide_energy>  (330) 
-28.5809

>  <r_i_glide_einternal>  (330) 
2.37811

>  <r_i_glide_intrahb_reward>  (330) 
-0

>  <i_i_glide_confnum>  (330) 
2

>  <i_i_glide_posenum>  (330) 
21

>  <r_i_glide_eff_state_penalty>  (330) 
0

>  <ligand_id>  (330) 
98

>  <original_smiles>  (330) 
O=C1CCC2(O)C3Cc4ccc(O)c5c4C2(CCN3CC2CCC2)C1O5

>  <smiles>  (330) 
[H]OC12C([H])([H])C([H])([H])C(=O)C3([H])Oc4c([O-])c([H])c([H])c5c4C31C([H])([H])C([H])([H])[N+]([H])(C([H])([H])C1([H])C([H])([H])C([H])([H])C1([H])[H])C2([H])C5([H])[H]

$$$$
98:2:1
     RDKit          3D

 51 56  0  0  1  0  0  0  0  0999 V2000
   -0.1225   -0.3340    4.3733 O   0  0  0  0  0  0  0  0  0  0  0  0
    1.0393   -0.1834    3.9993 C   0  0  0  0  0  0  0  0  0  0  0  0
    1.4996    0.9957    3.1105 C   0  0  0  0  0  0  0  0  0  0  0  0
    2.5780    0.6424    2.0109 C   0  0  0  0  0  0  0  0  0  0  0  0
    3.6120   -0.4671    2.4010 C   0  0  2  0  0  0  0  0  0  0  0  0
    4.5252    0.1540    3.2883 O   0  0  0  0  0  0  0  0  0  0  0  0
    4.4540   -1.1819    1.2934 C   0  0  1  0  0  0  0  0  0  0  0  0
    5.4412   -2.2246    1.9446 C   0  0  0  0  0  0  0  0  0  0  0  0
    4.8907   -3.1013    3.0862 C   0  0  0  0  0  0  0  0  0  0  0  0
    5.4135   -4.2631    3.6898 C   0  0  0  0  0  0  0  0  0  0  0  0
    4.7496   -4.8386    4.8042 C   0  0  0  0  0  0  0  0  0  0  0  0
    3.5624   -4.2749    5.3452 C   0  0  0  0  0  0  0  0  0  0  0  0
    2.9524   -4.8502    6.4226 O   0  0  0  0  0  0  0  0  0  0  0  0
    3.0147   -3.1123    4.7589 C   0  0  0  0  0  0  0  0  0  0  0  0
    3.7033   -2.6464    3.6549 C   0  0  0  0  0  0  0  0  0  0  0  0
    2.8564   -1.5843    3.0942 C   0  0  2  0  0  0  0  0  0  0  0  0
    1.8950   -2.2575    2.0683 C   0  0  0  0  0  0  0  0  0  0  0  0
    2.6570   -2.8389    0.8642 C   0  0  0  0  0  0  0  0  0  0  0  0
    3.5683   -1.8316    0.2719 N   0  0  2  0  0  0  0  0  0  0  0  0
    4.3121   -2.3681   -0.9015 C   0  0  0  0  0  0  0  0  0  0  0  0
    3.5745   -2.1294   -2.2166 C   0  0  0  0  0  0  0  0  0  0  0  0
    4.1699   -2.7107   -3.5120 C   0  0  0  0  0  0  0  0  0  0  0  0
    3.7674   -1.4268   -4.2347 C   0  0  0  0  0  0  0  0  0  0  0  0
    3.7034   -0.7472   -2.8737 C   0  0  0  0  0  0  0  0  0  0  0  0
    2.1698   -1.1271    4.3728 C   0  0  2  0  0  0  0  0  0  0  0  0
    1.9029   -2.3527    5.0762 O   0  0  0  0  0  0  0  0  0  0  0  0
    0.6264    1.4554    2.6419 H   0  0  0  0  0  0  0  0  0  0  0  0
    1.9079    1.7474    3.7869 H   0  0  0  0  0  0  0  0  0  0  0  0
    2.0487    0.3619    1.0996 H   0  0  0  0  0  0  0  0  0  0  0  0
    3.1114    1.5565    1.7495 H   0  0  0  0  0  0  0  0  0  0  0  0
    4.0366    0.5799    3.9764 H   0  0  0  0  0  0  0  0  0  0  0  0
    5.0430   -0.4221    0.7728 H   0  0  0  0  0  0  0  0  0  0  0  0
    5.8794   -2.8745    1.1879 H   0  0  0  0  0  0  0  0  0  0  0  0
    6.2855   -1.6668    2.3545 H   0  0  0  0  0  0  0  0  0  0  0  0
    6.3329   -4.6907    3.3178 H   0  0  0  0  0  0  0  0  0  0  0  0
    5.1722   -5.7230    5.2523 H   0  0  0  0  0  0  0  0  0  0  0  0
    1.3168   -3.0510    2.5466 H   0  0  0  0  0  0  0  0  0  0  0  0
    1.1510   -1.5576    1.6873 H   0  0  0  0  0  0  0  0  0  0  0  0
    3.1991   -3.7374    1.1630 H   0  0  0  0  0  0  0  0  0  0  0  0
    1.9517   -3.1605    0.1008 H   0  0  0  0  0  0  0  0  0  0  0  0
    5.2884   -1.8890   -0.9744 H   0  0  0  0  0  0  0  0  0  0  0  0
    4.5306   -3.4296   -0.7726 H   0  0  0  0  0  0  0  0  0  0  0  0
    2.5179   -2.4181   -2.1692 H   0  0  0  0  0  0  0  0  0  0  0  0
    5.2518   -2.8438   -3.4526 H   0  0  0  0  0  0  0  0  0  0  0  0
    3.6752   -3.6111   -3.8807 H   0  0  0  0  0  0  0  0  0  0  0  0
    4.5267   -1.0236   -4.8980 H   0  0  0  0  0  0  0  0  0  0  0  0
    2.7925   -1.4875   -4.7159 H   0  0  0  0  0  0  0  0  0  0  0  0
    2.8319   -0.1066   -2.7372 H   0  0  0  0  0  0  0  0  0  0  0  0
    4.6328   -0.2382   -2.6081 H   0  0  0  0  0  0  0  0  0  0  0  0
    2.8579   -0.5621    4.9994 H   0  0  0  0  0  0  0  0  0  0  0  0
    2.9564   -1.1055   -0.0856 H   0  0  0  0  0  0  0  0  0  0  0  0
  1  2  2  0
  2 25  1  0
  2  3  1  0
  3  4  1  0
  3 27  1  0
  3 28  1  0
  4  5  1  0
  4 29  1  0
  4 30  1  0
  5 16  1  0
  5  6  1  1
  5  7  1  0
  6 31  1  0
  7 19  1  0
  7  8  1  0
  7 32  1  6
  8  9  1  0
  8 33  1  0
  8 34  1  0
  9 15  2  0
  9 10  1  0
 10 11  2  0
 10 35  1  0
 11 12  1  0
 11 36  1  0
 12 13  1  0
 12 14  2  0
 14 26  1  0
 14 15  1  0
 15 16  1  0
 16 17  1  6
 16 25  1  0
 17 18  1  0
 17 37  1  0
 17 38  1  0
 18 19  1  0
 18 39  1  0
 18 40  1  0
 19 20  1  0
 19 51  1  6
 20 21  1  0
 20 41  1  0
 20 42  1  0
 21 24  1  0
 21 22  1  0
 21 43  1  0
 22 23  1  0
 22 44  1  0
 22 45  1  0
 23 24  1  0
 23 46  1  0
 23 47  1  0
 24 48  1  0
 24 49  1  0
 25 26  1  0
 25 50  1  1
M  CHG  2  13  -1  19   1
M  END
>  <i_m_ct_stereo_status>  (331) 
1

>  <s_m_source_file>  (331) 
/var/tmp/pbs.5076255.sched01/tmpzqmxgpmu/1265eqpa8lp.sdf

>  <i_m_source_file_index>  (331) 
15

>  <i_lp_mmshare_version>  (331) 
48012

>  <i_f3d_flags>  (331) 
0

>  <s_epik_input>  (331) 
W0NIMl0xW0NIMl1DKD1PKVtDQEhdMk9jKGMoW09IXSlbY0hdW2NIXTMpYzRjM1tDSDJdW0NASF0oW0NAQF0xKFtDQF0yNDUpW09IXSlOKFtDSDJdW0NIMl01KVtDSDJdW0NIXTZbQ0gyXVtDSDJdW0NIMl02

>  <s_epik_cmdline>  (331) 
J2VwaWtfcHl0aG9uJywgJy1waHQnLCAnMi4wJywgJy1waCcsICc3LjAnLCAnLXRuJywgJzgnLCAnLW1hJywgJzIwMCcsICctaW1hZScsICc8aW5maWxlLm1hZT4nLCAnLW9tYWUnLCAnPG91dGZpbGUubWFlPic=

>  <r_epik_Ionization_Penalty>  (331) 
1.93029

>  <r_epik_Ionization_Penalty_Charging>  (331) 
1.93029

>  <r_epik_Ionization_Penalty_Neutral>  (331) 
2.69768e-07

>  <r_epik_State_Penalty>  (331) 
2.04707

>  <r_epik_Charging_Adjusted_Penalty>  (331) 
3.97736

>  <i_epik_Tot_Q>  (331) 
0

>  <i_epik_Tot_abs_Q>  (331) 
2

>  <s_lp_Force_Field>  (331) 
OPLS3e

>  <r_lp_Energy>  (331) 
76.0096

>  <b_lp_Chiralities_Consistent>  (331) 
1

>  <s_lp_Variant>  (331) 
98:0-3

>  <s_i_glide_gridfile>  (331) 
pfpi4k_grid

>  <i_i_glide_lignum>  (331) 
15

>  <i_i_glide_rotatable_bonds>  (331) 
3

>  <r_i_docking_score>  (331) 
-3.04636

>  <r_i_glide_ligand_efficiency>  (331) 
-0.117168

>  <r_i_glide_ligand_efficiency_sa>  (331) 
-0.347109

>  <r_i_glide_ligand_efficiency_ln>  (331) 
-0.715427

>  <r_i_glide_gscore>  (331) 
-3.04636

>  <r_i_glide_lipo>  (331) 
-0.397713

>  <r_i_glide_hbond>  (331) 
-0.0310159

>  <r_i_glide_metal>  (331) 
-0

>  <r_i_glide_rewards>  (331) 
-0.985722

>  <r_i_glide_evdw>  (331) 
-25.15

>  <r_i_glide_ecoul>  (331) 
-4.12169

>  <r_i_glide_erotb>  (331) 
0.302709

>  <r_i_glide_esite>  (331) 
-0.0588627

>  <r_i_glide_emodel>  (331) 
-36.7133

>  <r_i_glide_energy>  (331) 
-29.2717

>  <r_i_glide_einternal>  (331) 
0.744702

>  <r_i_glide_intrahb_reward>  (331) 
-0

>  <i_i_glide_confnum>  (331) 
4

>  <i_i_glide_posenum>  (331) 
34

>  <r_i_glide_eff_state_penalty>  (331) 
0

>  <ligand_id>  (331) 
98

>  <original_smiles>  (331) 
O=C1CCC2(O)C3Cc4ccc(O)c5c4C2(CCN3CC2CCC2)C1O5

>  <smiles>  (331) 
[H]OC12C([H])([H])C([H])([H])C(=O)C3([H])Oc4c([O-])c([H])c([H])c5c4C31C([H])([H])C([H])([H])[N+]([H])(C([H])([H])C1([H])C([H])([H])C([H])([H])C1([H])[H])C2([H])C5([H])[H]

$$$$
98:2:2
     RDKit          3D

 51 56  0  0  1  0  0  0  0  0999 V2000
    0.5908   -1.0154    4.6283 O   0  0  0  0  0  0  0  0  0  0  0  0
    1.7105   -0.8368    4.1536 C   0  0  0  0  0  0  0  0  0  0  0  0
    2.1258    0.4614    3.4236 C   0  0  0  0  0  0  0  0  0  0  0  0
    3.0570    0.2701    2.1614 C   0  0  0  0  0  0  0  0  0  0  0  0
    4.0818   -0.9145    2.2471 C   0  0  2  0  0  0  0  0  0  0  0  0
    5.1000   -0.4936    3.1482 O   0  0  0  0  0  0  0  0  0  0  0  0
    4.7572   -1.4632    0.9418 C   0  0  1  0  0  0  0  0  0  0  0  0
    5.7596   -2.6301    1.2871 C   0  0  0  0  0  0  0  0  0  0  0  0
    5.3003   -3.6663    2.3271 C   0  0  0  0  0  0  0  0  0  0  0  0
    5.8495   -4.9215    2.6712 C   0  0  0  0  0  0  0  0  0  0  0  0
    5.2688   -5.6620    3.7342 C   0  0  0  0  0  0  0  0  0  0  0  0
    4.1678   -5.1681    4.4928 C   0  0  0  0  0  0  0  0  0  0  0  0
    3.6509   -5.9049    5.5179 O   0  0  0  0  0  0  0  0  0  0  0  0
    3.6142   -3.9084    4.1762 C   0  0  0  0  0  0  0  0  0  0  0  0
    4.1990   -3.2830    3.0911 C   0  0  0  0  0  0  0  0  0  0  0  0
    3.3452   -2.1132    2.8175 C   0  0  2  0  0  0  0  0  0  0  0  0
    2.2393   -2.5742    1.8130 C   0  0  0  0  0  0  0  0  0  0  0  0
    2.8352   -2.9721    0.4546 C   0  0  0  0  0  0  0  0  0  0  0  0
    3.7297   -1.9063   -0.0611 N   0  0  2  0  0  0  0  0  0  0  0  0
    4.3016   -2.2585   -1.3895 C   0  0  0  0  0  0  0  0  0  0  0  0
    3.4464   -1.7596   -2.5523 C   0  0  0  0  0  0  0  0  0  0  0  0
    3.6253   -2.4282   -3.9167 C   0  0  0  0  0  0  0  0  0  0  0  0
    3.4979   -1.0512   -4.5737 C   0  0  0  0  0  0  0  0  0  0  0  0
    3.8669   -0.4480   -3.2322 C   0  0  0  0  0  0  0  0  0  0  0  0
    2.8312   -1.8598    4.2278 C   0  0  2  0  0  0  0  0  0  0  0  0
    2.5853   -3.1799    4.7455 O   0  0  0  0  0  0  0  0  0  0  0  0
    1.2270    1.0160    3.1482 H   0  0  0  0  0  0  0  0  0  0  0  0
    2.6432    1.0718    4.1645 H   0  0  0  0  0  0  0  0  0  0  0  0
    2.4170    0.1589    1.2858 H   0  0  0  0  0  0  0  0  0  0  0  0
    3.5881    1.2050    1.9889 H   0  0  0  0  0  0  0  0  0  0  0  0
    5.6612    0.1429    2.7356 H   0  0  0  0  0  0  0  0  0  0  0  0
    5.3173   -0.6481    0.4756 H   0  0  0  0  0  0  0  0  0  0  0  0
    6.0729   -3.1627    0.3897 H   0  0  0  0  0  0  0  0  0  0  0  0
    6.6716   -2.1833    1.6816 H   0  0  0  0  0  0  0  0  0  0  0  0
    6.7066   -5.3013    2.1316 H   0  0  0  0  0  0  0  0  0  0  0  0
    5.6818   -6.6265    3.9782 H   0  0  0  0  0  0  0  0  0  0  0  0
    1.6803   -3.4154    2.2233 H   0  0  0  0  0  0  0  0  0  0  0  0
    1.4894   -1.8040    1.6348 H   0  0  0  0  0  0  0  0  0  0  0  0
    3.3606   -3.9248    0.5354 H   0  0  0  0  0  0  0  0  0  0  0  0
    2.0343   -3.1440   -0.2639 H   0  0  0  0  0  0  0  0  0  0  0  0
    5.2972   -1.8238   -1.4842 H   0  0  0  0  0  0  0  0  0  0  0  0
    4.4635   -3.3351   -1.4668 H   0  0  0  0  0  0  0  0  0  0  0  0
    2.3747   -1.7423   -2.3271 H   0  0  0  0  0  0  0  0  0  0  0  0
    4.6169   -2.8667   -4.0513 H   0  0  0  0  0  0  0  0  0  0  0  0
    2.8364   -3.1318   -4.1976 H   0  0  0  0  0  0  0  0  0  0  0  0
    4.2101   -0.8533   -5.3693 H   0  0  0  0  0  0  0  0  0  0  0  0
    2.4790   -0.8012   -4.8670 H   0  0  0  0  0  0  0  0  0  0  0  0
    3.2786    0.4299   -2.9895 H   0  0  0  0  0  0  0  0  0  0  0  0
    4.9335   -0.2529   -3.1231 H   0  0  0  0  0  0  0  0  0  0  0  0
    3.6084   -1.4286    4.8580 H   0  0  0  0  0  0  0  0  0  0  0  0
    3.1259   -1.1094   -0.2247 H   0  0  0  0  0  0  0  0  0  0  0  0
  1  2  2  0
  2 25  1  0
  2  3  1  0
  3  4  1  0
  3 27  1  0
  3 28  1  0
  4  5  1  0
  4 29  1  0
  4 30  1  0
  5 16  1  0
  5  6  1  1
  5  7  1  0
  6 31  1  0
  7 19  1  0
  7  8  1  0
  7 32  1  6
  8  9  1  0
  8 33  1  0
  8 34  1  0
  9 15  2  0
  9 10  1  0
 10 11  2  0
 10 35  1  0
 11 12  1  0
 11 36  1  0
 12 13  1  0
 12 14  2  0
 14 26  1  0
 14 15  1  0
 15 16  1  0
 16 17  1  6
 16 25  1  0
 17 18  1  0
 17 37  1  0
 17 38  1  0
 18 19  1  0
 18 39  1  0
 18 40  1  0
 19 20  1  0
 19 51  1  6
 20 21  1  0
 20 41  1  0
 20 42  1  0
 21 24  1  0
 21 22  1  0
 21 43  1  0
 22 23  1  0
 22 44  1  0
 22 45  1  0
 23 24  1  0
 23 46  1  0
 23 47  1  0
 24 48  1  0
 24 49  1  0
 25 26  1  0
 25 50  1  1
M  CHG  2  13  -1  19   1
M  END
>  <i_m_ct_stereo_status>  (332) 
1

>  <s_m_source_file>  (332) 
/var/tmp/pbs.5076255.sched01/tmpzqmxgpmu/1265eqpa8lp.sdf

>  <i_m_source_file_index>  (332) 
15

>  <i_lp_mmshare_version>  (332) 
48012

>  <i_f3d_flags>  (332) 
0

>  <s_epik_input>  (332) 
W0NIMl0xW0NIMl1DKD1PKVtDQEhdMk9jKGMoW09IXSlbY0hdW2NIXTMpYzRjM1tDSDJdW0NASF0oW0NAQF0xKFtDQF0yNDUpW09IXSlOKFtDSDJdW0NIMl01KVtDSDJdW0NIXTZbQ0gyXVtDSDJdW0NIMl02

>  <s_epik_cmdline>  (332) 
J2VwaWtfcHl0aG9uJywgJy1waHQnLCAnMi4wJywgJy1waCcsICc3LjAnLCAnLXRuJywgJzgnLCAnLW1hJywgJzIwMCcsICctaW1hZScsICc8aW5maWxlLm1hZT4nLCAnLW9tYWUnLCAnPG91dGZpbGUubWFlPic=

>  <r_epik_Ionization_Penalty>  (332) 
1.93029

>  <r_epik_Ionization_Penalty_Charging>  (332) 
1.93029

>  <r_epik_Ionization_Penalty_Neutral>  (332) 
2.69768e-07

>  <r_epik_State_Penalty>  (332) 
2.04707

>  <r_epik_Charging_Adjusted_Penalty>  (332) 
3.97736

>  <i_epik_Tot_Q>  (332) 
0

>  <i_epik_Tot_abs_Q>  (332) 
2

>  <s_lp_Force_Field>  (332) 
OPLS3e

>  <r_lp_Energy>  (332) 
76.0096

>  <b_lp_Chiralities_Consistent>  (332) 
1

>  <s_lp_Variant>  (332) 
98:0-3

>  <s_i_glide_gridfile>  (332) 
pfpi4k_grid

>  <i_i_glide_lignum>  (332) 
15

>  <i_i_glide_rotatable_bonds>  (332) 
3

>  <r_i_docking_score>  (332) 
-2.82882

>  <r_i_glide_ligand_efficiency>  (332) 
-0.108801

>  <r_i_glide_ligand_efficiency_sa>  (332) 
-0.322322

>  <r_i_glide_ligand_efficiency_ln>  (332) 
-0.664339

>  <r_i_glide_gscore>  (332) 
-2.82882

>  <r_i_glide_lipo>  (332) 
-0.517954

>  <r_i_glide_hbond>  (332) 
0

>  <r_i_glide_metal>  (332) 
-0

>  <r_i_glide_rewards>  (332) 
-0.985722

>  <r_i_glide_evdw>  (332) 
-23.8798

>  <r_i_glide_ecoul>  (332) 
-2.55165

>  <r_i_glide_erotb>  (332) 
0.302709

>  <r_i_glide_esite>  (332) 
-0.0511141

>  <r_i_glide_emodel>  (332) 
-32.8367

>  <r_i_glide_energy>  (332) 
-26.4315

>  <r_i_glide_einternal>  (332) 
1.50692

>  <r_i_glide_intrahb_reward>  (332) 
-0

>  <i_i_glide_confnum>  (332) 
4

>  <i_i_glide_posenum>  (332) 
30

>  <r_i_glide_eff_state_penalty>  (332) 
0

>  <ligand_id>  (332) 
98

>  <original_smiles>  (332) 
O=C1CCC2(O)C3Cc4ccc(O)c5c4C2(CCN3CC2CCC2)C1O5

>  <smiles>  (332) 
[H]OC12C([H])([H])C([H])([H])C(=O)C3([H])Oc4c([O-])c([H])c([H])c5c4C31C([H])([H])C([H])([H])[N+]([H])(C([H])([H])C1([H])C([H])([H])C([H])([H])C1([H])[H])C2([H])C5([H])[H]

$$$$
101:0:0
     RDKit          3D

 27 29  0  0  1  0  0  0  0  0999 V2000
   -8.2884   -8.8643   -9.3362 C   0  0  0  0  0  0  0  0  0  0  0  0
   -7.7774   -8.6139   -8.2562 C   0  0  0  0  0  0  0  0  0  0  0  0
   -7.1615   -8.3287   -6.9416 C   0  0  2  0  0  0  0  0  0  0  0  0
   -7.3998   -6.8853   -6.4512 C   0  0  0  0  0  0  0  0  0  0  0  0
   -8.3836   -6.0337   -7.0100 C   0  0  0  0  0  0  0  0  0  0  0  0
   -8.5477   -4.7257   -6.5183 C   0  0  0  0  0  0  0  0  0  0  0  0
   -7.7463   -4.2577   -5.4677 C   0  0  0  0  0  0  0  0  0  0  0  0
   -6.7780   -5.0997   -4.8887 C   0  0  0  0  0  0  0  0  0  0  0  0
   -6.6188   -6.4091   -5.3715 C   0  0  0  0  0  0  0  0  0  0  0  0
   -5.6297   -7.3263   -4.7545 C   0  0  2  0  0  0  0  0  0  0  0  0
   -4.2348   -7.4567   -5.2640 C   0  0  0  0  0  0  0  0  0  0  0  0
   -5.2352   -8.5570   -5.5359 C   0  0  2  0  0  0  0  0  0  0  0  0
   -5.7265   -8.6599   -6.9064 N   0  0  0  0  0  0  0  0  0  0  0  0
   -5.3549   -9.9733   -7.4332 C   0  0  0  0  0  0  0  0  0  0  0  0
   -8.7267   -9.0762  -10.2836 H   0  0  0  0  0  0  0  0  0  0  0  0
   -7.6685   -8.9976   -6.2437 H   0  0  0  0  0  0  0  0  0  0  0  0
   -9.0269   -6.3664   -7.8127 H   0  0  0  0  0  0  0  0  0  0  0  0
   -9.2908   -4.0806   -6.9557 H   0  0  0  0  0  0  0  0  0  0  0  0
   -7.8723   -3.2504   -5.1025 H   0  0  0  0  0  0  0  0  0  0  0  0
   -6.1627   -4.7355   -4.0835 H   0  0  0  0  0  0  0  0  0  0  0  0
   -5.7825   -7.4216   -3.6874 H   0  0  0  0  0  0  0  0  0  0  0  0
   -3.9431   -6.7879   -6.0714 H   0  0  0  0  0  0  0  0  0  0  0  0
   -3.4643   -7.7062   -4.5446 H   0  0  0  0  0  0  0  0  0  0  0  0
   -5.1311   -9.4584   -4.9295 H   0  0  0  0  0  0  0  0  0  0  0  0
   -4.2882  -10.1533   -7.2919 H   0  0  0  0  0  0  0  0  0  0  0  0
   -5.5514  -10.0206   -8.5050 H   0  0  0  0  0  0  0  0  0  0  0  0
   -5.8991  -10.7770   -6.9389 H   0  0  0  0  0  0  0  0  0  0  0  0
  1  2  3  0
  1 15  1  0
  2  3  1  0
  3 13  1  0
  3  4  1  0
  3 16  1  1
  4  9  2  0
  4  5  1  0
  5  6  2  0
  5 17  1  0
  6  7  1  0
  6 18  1  0
  7  8  2  0
  7 19  1  0
  8  9  1  0
  8 20  1  0
  9 10  1  0
 10 12  1  0
 10 11  1  0
 10 21  1  1
 11 12  1  0
 11 22  1  0
 11 23  1  0
 12 13  1  0
 12 24  1  1
 13 14  1  0
 14 25  1  0
 14 26  1  0
 14 27  1  0
M  END
>  <i_m_ct_stereo_status>  (333) 
1

>  <s_m_source_file>  (333) 
/var/tmp/pbs.5076255.sched01/tmpzqmxgpmu/1265eqpa8lp.sdf

>  <i_m_source_file_index>  (333) 
18

>  <i_lp_mmshare_version>  (333) 
48012

>  <i_f3d_flags>  (333) 
0

>  <s_epik_input>  (333) 
W0NIXSNDW0NASF0xTihbQ0gzXSlbQ0BASF0oW0NIMl0yKVtDQEBIXTJjKGMxMylbY0hdW2NIXVtjSF1bY0hdMw==

>  <s_epik_cmdline>  (333) 
J2VwaWtfcHl0aG9uJywgJy1waHQnLCAnMi4wJywgJy1waCcsICc3LjAnLCAnLXRuJywgJzgnLCAnLW1hJywgJzIwMCcsICctaW1hZScsICc8aW5maWxlLm1hZT4nLCAnLW9tYWUnLCAnPG91dGZpbGUubWFlPic=

>  <r_epik_Ionization_Penalty>  (333) 
0.23338

>  <r_epik_Ionization_Penalty_Charging>  (333) 
0

>  <r_epik_Ionization_Penalty_Neutral>  (333) 
0.23338

>  <r_epik_State_Penalty>  (333) 
0.224111

>  <r_epik_Charging_Adjusted_Penalty>  (333) 
0.224111

>  <i_epik_Tot_Q>  (333) 
0

>  <i_epik_Tot_abs_Q>  (333) 
0

>  <s_lp_Force_Field>  (333) 
OPLS3e

>  <r_lp_Energy>  (333) 
26.8169

>  <b_lp_Chiralities_Consistent>  (333) 
1

>  <s_lp_Variant>  (333) 
101:0-1

>  <s_i_glide_gridfile>  (333) 
pfpi4k_grid

>  <i_i_glide_lignum>  (333) 
18

>  <i_i_glide_rotatable_bonds>  (333) 
1

>  <r_i_docking_score>  (333) 
-6.10603

>  <r_i_glide_ligand_efficiency>  (333) 
-0.436145

>  <r_i_glide_ligand_efficiency_sa>  (333) 
-1.05117

>  <r_i_glide_ligand_efficiency_ln>  (333) 
-1.67791

>  <r_i_glide_gscore>  (333) 
-6.10603

>  <r_i_glide_lipo>  (333) 
-2.79737

>  <r_i_glide_hbond>  (333) 
0

>  <r_i_glide_metal>  (333) 
-0

>  <r_i_glide_rewards>  (333) 
-2.70967

>  <r_i_glide_evdw>  (333) 
-20.4438

>  <r_i_glide_ecoul>  (333) 
-0.325406

>  <r_i_glide_erotb>  (333) 
0.472015

>  <r_i_glide_esite>  (333) 
0

>  <r_i_glide_emodel>  (333) 
-27.9971

>  <r_i_glide_energy>  (333) 
-20.7692

>  <r_i_glide_einternal>  (333) 
2.79045

>  <r_i_glide_intrahb_reward>  (333) 
-0

>  <i_i_glide_confnum>  (333) 
1

>  <i_i_glide_posenum>  (333) 
7

>  <r_i_glide_eff_state_penalty>  (333) 
0

>  <ligand_id>  (333) 
101

>  <original_smiles>  (333) 
C#CC1c2ccccc2C2CC2N1C

>  <smiles>  (333) 
[H]C#CC1([H])c2c([H])c([H])c([H])c([H])c2C2([H])C([H])([H])C2([H])N1C([H])([H])[H]

$$$$
101:0:1
     RDKit          3D

 27 29  0  0  1  0  0  0  0  0999 V2000
   -6.3640   -4.0294   -4.3341 C   0  0  0  0  0  0  0  0  0  0  0  0
   -7.1468   -4.6566   -5.0302 C   0  0  0  0  0  0  0  0  0  0  0  0
   -8.1001   -5.4360   -5.8550 C   0  0  2  0  0  0  0  0  0  0  0  0
   -7.4535   -6.6609   -6.5384 C   0  0  0  0  0  0  0  0  0  0  0  0
   -6.1971   -7.1914   -6.1583 C   0  0  0  0  0  0  0  0  0  0  0  0
   -5.6429   -8.2814   -6.8552 C   0  0  0  0  0  0  0  0  0  0  0  0
   -6.3480   -8.8723   -7.9176 C   0  0  0  0  0  0  0  0  0  0  0  0
   -7.6146   -8.3812   -8.2792 C   0  0  0  0  0  0  0  0  0  0  0  0
   -8.1697   -7.2874   -7.5888 C   0  0  0  0  0  0  0  0  0  0  0  0
   -9.5224   -6.7699   -7.9419 C   0  0  2  0  0  0  0  0  0  0  0  0
   -9.7373   -5.6786   -8.9453 C   0  0  0  0  0  0  0  0  0  0  0  0
   -9.8877   -5.3825   -7.4679 C   0  0  2  0  0  0  0  0  0  0  0  0
   -8.8217   -4.6014   -6.8384 N   0  0  0  0  0  0  0  0  0  0  0  0
   -9.3966   -3.3535   -6.3331 C   0  0  0  0  0  0  0  0  0  0  0  0
   -5.6909   -3.4580   -3.7368 H   0  0  0  0  0  0  0  0  0  0  0  0
   -8.8308   -5.8174   -5.1424 H   0  0  0  0  0  0  0  0  0  0  0  0
   -5.6211   -6.7574   -5.3538 H   0  0  0  0  0  0  0  0  0  0  0  0
   -4.6706   -8.6553   -6.5767 H   0  0  0  0  0  0  0  0  0  0  0  0
   -5.9165   -9.6997   -8.4585 H   0  0  0  0  0  0  0  0  0  0  0  0
   -8.1596   -8.8404   -9.0913 H   0  0  0  0  0  0  0  0  0  0  0  0
  -10.2813   -7.5427   -7.8707 H   0  0  0  0  0  0  0  0  0  0  0  0
   -8.8583   -5.3000   -9.4664 H   0  0  0  0  0  0  0  0  0  0  0  0
  -10.6558   -5.7262   -9.5281 H   0  0  0  0  0  0  0  0  0  0  0  0
  -10.9117   -5.2861   -7.1085 H   0  0  0  0  0  0  0  0  0  0  0  0
   -9.9434   -2.8429   -7.1264 H   0  0  0  0  0  0  0  0  0  0  0  0
   -8.6142   -2.6686   -6.0079 H   0  0  0  0  0  0  0  0  0  0  0  0
  -10.0782   -3.5198   -5.4987 H   0  0  0  0  0  0  0  0  0  0  0  0
  1  2  3  0
  1 15  1  0
  2  3  1  0
  3 13  1  0
  3  4  1  0
  3 16  1  1
  4  9  2  0
  4  5  1  0
  5  6  2  0
  5 17  1  0
  6  7  1  0
  6 18  1  0
  7  8  2  0
  7 19  1  0
  8  9  1  0
  8 20  1  0
  9 10  1  0
 10 12  1  0
 10 11  1  0
 10 21  1  6
 11 12  1  0
 11 22  1  0
 11 23  1  0
 12 13  1  0
 12 24  1  6
 13 14  1  0
 14 25  1  0
 14 26  1  0
 14 27  1  0
M  END
>  <i_m_ct_stereo_status>  (334) 
1

>  <s_m_source_file>  (334) 
/var/tmp/pbs.5076255.sched01/tmpzqmxgpmu/1265eqpa8lp.sdf

>  <i_m_source_file_index>  (334) 
18

>  <i_lp_mmshare_version>  (334) 
48012

>  <i_f3d_flags>  (334) 
0

>  <s_epik_input>  (334) 
W0NIXSNDW0NASF0xTihbQ0gzXSlbQ0BASF0oW0NIMl0yKVtDQEBIXTJjKGMxMylbY0hdW2NIXVtjSF1bY0hdMw==

>  <s_epik_cmdline>  (334) 
J2VwaWtfcHl0aG9uJywgJy1waHQnLCAnMi4wJywgJy1waCcsICc3LjAnLCAnLXRuJywgJzgnLCAnLW1hJywgJzIwMCcsICctaW1hZScsICc8aW5maWxlLm1hZT4nLCAnLW9tYWUnLCAnPG91dGZpbGUubWFlPic=

>  <r_epik_Ionization_Penalty>  (334) 
0.23338

>  <r_epik_Ionization_Penalty_Charging>  (334) 
0

>  <r_epik_Ionization_Penalty_Neutral>  (334) 
0.23338

>  <r_epik_State_Penalty>  (334) 
0.224111

>  <r_epik_Charging_Adjusted_Penalty>  (334) 
0.224111

>  <i_epik_Tot_Q>  (334) 
0

>  <i_epik_Tot_abs_Q>  (334) 
0

>  <s_lp_Force_Field>  (334) 
OPLS3e

>  <r_lp_Energy>  (334) 
26.8169

>  <b_lp_Chiralities_Consistent>  (334) 
1

>  <s_lp_Variant>  (334) 
101:0-1

>  <s_i_glide_gridfile>  (334) 
pfpi4k_grid

>  <i_i_glide_lignum>  (334) 
18

>  <i_i_glide_rotatable_bonds>  (334) 
1

>  <r_i_docking_score>  (334) 
-5.92725

>  <r_i_glide_ligand_efficiency>  (334) 
-0.423375

>  <r_i_glide_ligand_efficiency_sa>  (334) 
-1.02039

>  <r_i_glide_ligand_efficiency_ln>  (334) 
-1.62879

>  <r_i_glide_gscore>  (334) 
-5.92725

>  <r_i_glide_lipo>  (334) 
-2.57579

>  <r_i_glide_hbond>  (334) 
0

>  <r_i_glide_metal>  (334) 
-0

>  <r_i_glide_rewards>  (334) 
-2.62317

>  <r_i_glide_evdw>  (334) 
-22.1771

>  <r_i_glide_ecoul>  (334) 
-0.609666

>  <r_i_glide_erotb>  (334) 
0.472015

>  <r_i_glide_esite>  (334) 
0

>  <r_i_glide_emodel>  (334) 
-29.7578

>  <r_i_glide_energy>  (334) 
-22.7868

>  <r_i_glide_einternal>  (334) 
2.78959

>  <r_i_glide_intrahb_reward>  (334) 
-0

>  <i_i_glide_confnum>  (334) 
1

>  <i_i_glide_posenum>  (334) 
17

>  <r_i_glide_eff_state_penalty>  (334) 
0

>  <ligand_id>  (334) 
101

>  <original_smiles>  (334) 
C#CC1c2ccccc2C2CC2N1C

>  <smiles>  (334) 
[H]C#CC1([H])c2c([H])c([H])c([H])c([H])c2C2([H])C([H])([H])C2([H])N1C([H])([H])[H]

$$$$
101:0:2
     RDKit          3D

 27 29  0  0  1  0  0  0  0  0999 V2000
   -8.6944   -7.0179   -9.2716 C   0  0  0  0  0  0  0  0  0  0  0  0
   -8.0460   -7.3169   -8.2829 C   0  0  0  0  0  0  0  0  0  0  0  0
   -7.2624   -7.7045   -7.0885 C   0  0  2  0  0  0  0  0  0  0  0  0
   -7.2693   -6.6291   -5.9971 C   0  0  0  0  0  0  0  0  0  0  0  0
   -8.1833   -5.5495   -5.9603 C   0  0  0  0  0  0  0  0  0  0  0  0
   -8.1050   -4.5858   -4.9388 C   0  0  0  0  0  0  0  0  0  0  0  0
   -7.1174   -4.6884   -3.9505 C   0  0  0  0  0  0  0  0  0  0  0  0
   -6.2556   -5.7859   -3.9611 C   0  0  0  0  0  0  0  0  0  0  0  0
   -6.3141   -6.7474   -4.9657 C   0  0  0  0  0  0  0  0  0  0  0  0
   -5.3755   -7.9014   -4.9652 C   0  0  2  0  0  0  0  0  0  0  0  0
   -4.0722   -7.8390   -5.6707 C   0  0  0  0  0  0  0  0  0  0  0  0
   -5.2003   -8.6531   -6.2550 C   0  0  2  0  0  0  0  0  0  0  0  0
   -5.8815   -8.0832   -7.4152 N   0  0  0  0  0  0  0  0  0  0  0  0
   -5.7371   -9.0029   -8.5271 C   0  0  0  0  0  0  0  0  0  0  0  0
   -9.2623   -6.7688  -10.1373 H   0  0  0  0  0  0  0  0  0  0  0  0
   -7.7550   -8.5907   -6.6835 H   0  0  0  0  0  0  0  0  0  0  0  0
   -8.9741   -5.4531   -6.6921 H   0  0  0  0  0  0  0  0  0  0  0  0
   -8.8224   -3.7788   -4.8915 H   0  0  0  0  0  0  0  0  0  0  0  0
   -7.0437   -3.9717   -3.1405 H   0  0  0  0  0  0  0  0  0  0  0  0
   -5.5729   -5.9168   -3.1511 H   0  0  0  0  0  0  0  0  0  0  0  0
   -5.3322   -8.4221   -4.0253 H   0  0  0  0  0  0  0  0  0  0  0  0
   -3.7966   -6.8737   -6.0937 H   0  0  0  0  0  0  0  0  0  0  0  0
   -3.2514   -8.4014   -5.2244 H   0  0  0  0  0  0  0  0  0  0  0  0
   -5.1278   -9.7376   -6.1367 H   0  0  0  0  0  0  0  0  0  0  0  0
   -4.6749   -9.2030   -8.6211 H   0  0  0  0  0  0  0  0  0  0  0  0
   -6.0634   -8.5277   -9.4514 H   0  0  0  0  0  0  0  0  0  0  0  0
   -6.2731   -9.9388   -8.3802 H   0  0  0  0  0  0  0  0  0  0  0  0
  1  2  3  0
  1 15  1  0
  2  3  1  0
  3 13  1  0
  3  4  1  0
  3 16  1  1
  4  9  2  0
  4  5  1  0
  5  6  2  0
  5 17  1  0
  6  7  1  0
  6 18  1  0
  7  8  2  0
  7 19  1  0
  8  9  1  0
  8 20  1  0
  9 10  1  0
 10 12  1  0
 10 11  1  0
 10 21  1  1
 11 12  1  0
 11 22  1  0
 11 23  1  0
 12 13  1  0
 12 24  1  1
 13 14  1  0
 14 25  1  0
 14 26  1  0
 14 27  1  0
M  END
>  <i_m_ct_stereo_status>  (335) 
1

>  <s_m_source_file>  (335) 
/var/tmp/pbs.5076255.sched01/tmpzqmxgpmu/1265eqpa8lp.sdf

>  <i_m_source_file_index>  (335) 
18

>  <i_lp_mmshare_version>  (335) 
48012

>  <i_f3d_flags>  (335) 
0

>  <s_epik_input>  (335) 
W0NIXSNDW0NASF0xTihbQ0gzXSlbQ0BASF0oW0NIMl0yKVtDQEBIXTJjKGMxMylbY0hdW2NIXVtjSF1bY0hdMw==

>  <s_epik_cmdline>  (335) 
J2VwaWtfcHl0aG9uJywgJy1waHQnLCAnMi4wJywgJy1waCcsICc3LjAnLCAnLXRuJywgJzgnLCAnLW1hJywgJzIwMCcsICctaW1hZScsICc8aW5maWxlLm1hZT4nLCAnLW9tYWUnLCAnPG91dGZpbGUubWFlPic=

>  <r_epik_Ionization_Penalty>  (335) 
0.23338

>  <r_epik_Ionization_Penalty_Charging>  (335) 
0

>  <r_epik_Ionization_Penalty_Neutral>  (335) 
0.23338

>  <r_epik_State_Penalty>  (335) 
0.224111

>  <r_epik_Charging_Adjusted_Penalty>  (335) 
0.224111

>  <i_epik_Tot_Q>  (335) 
0

>  <i_epik_Tot_abs_Q>  (335) 
0

>  <s_lp_Force_Field>  (335) 
OPLS3e

>  <r_lp_Energy>  (335) 
26.8169

>  <b_lp_Chiralities_Consistent>  (335) 
1

>  <s_lp_Variant>  (335) 
101:0-1

>  <s_i_glide_gridfile>  (335) 
pfpi4k_grid

>  <i_i_glide_lignum>  (335) 
18

>  <i_i_glide_rotatable_bonds>  (335) 
1

>  <r_i_docking_score>  (335) 
-5.61227

>  <r_i_glide_ligand_efficiency>  (335) 
-0.400876

>  <r_i_glide_ligand_efficiency_sa>  (335) 
-0.966168

>  <r_i_glide_ligand_efficiency_ln>  (335) 
-1.54223

>  <r_i_glide_gscore>  (335) 
-5.61227

>  <r_i_glide_lipo>  (335) 
-2.71903

>  <r_i_glide_hbond>  (335) 
0

>  <r_i_glide_metal>  (335) 
-0

>  <r_i_glide_rewards>  (335) 
-2.72633

>  <r_i_glide_evdw>  (335) 
-10.322

>  <r_i_glide_ecoul>  (335) 
-0.818759

>  <r_i_glide_erotb>  (335) 
0.472015

>  <r_i_glide_esite>  (335) 
0

>  <r_i_glide_emodel>  (335) 
-17.5526

>  <r_i_glide_energy>  (335) 
-11.1408

>  <r_i_glide_einternal>  (335) 
2.78766

>  <r_i_glide_intrahb_reward>  (335) 
-0

>  <i_i_glide_confnum>  (335) 
1

>  <i_i_glide_posenum>  (335) 
32

>  <r_i_glide_eff_state_penalty>  (335) 
0

>  <ligand_id>  (335) 
101

>  <original_smiles>  (335) 
C#CC1c2ccccc2C2CC2N1C

>  <smiles>  (335) 
[H]C#CC1([H])c2c([H])c([H])c([H])c([H])c2C2([H])C([H])([H])C2([H])N1C([H])([H])[H]

$$$$
101:1:0
     RDKit          3D

 28 30  0  0  1  0  0  0  0  0999 V2000
   -4.4139   -7.4195   -5.1309 C   0  0  0  0  0  0  0  0  0  0  0  0
   -5.5184   -6.9534   -5.3638 C   0  0  0  0  0  0  0  0  0  0  0  0
   -6.8884   -6.4429   -5.6081 C   0  0  2  0  0  0  0  0  0  0  0  0
   -7.4798   -6.8548   -6.9677 C   0  0  0  0  0  0  0  0  0  0  0  0
   -6.9539   -7.9013   -7.7658 C   0  0  0  0  0  0  0  0  0  0  0  0
   -7.5208   -8.1786   -9.0283 C   0  0  0  0  0  0  0  0  0  0  0  0
   -8.6165   -7.4341   -9.4943 C   0  0  0  0  0  0  0  0  0  0  0  0
   -9.1627   -6.4131   -8.6931 C   0  0  0  0  0  0  0  0  0  0  0  0
   -8.5980   -6.1298   -7.4384 C   0  0  0  0  0  0  0  0  0  0  0  0
   -9.1690   -5.0558   -6.5751 C   0  0  2  0  0  0  0  0  0  0  0  0
   -8.7221   -3.6254   -6.7036 C   0  0  0  0  0  0  0  0  0  0  0  0
   -8.3173   -4.4395   -5.4919 C   0  0  2  0  0  0  0  0  0  0  0  0
   -6.9127   -4.9427   -5.4881 N   0  0  1  0  0  0  0  0  0  0  0  0
   -6.1729   -4.3507   -4.3387 C   0  0  0  0  0  0  0  0  0  0  0  0
   -3.4574   -7.8591   -4.9416 H   0  0  0  0  0  0  0  0  0  0  0  0
   -7.5075   -6.8646   -4.8171 H   0  0  0  0  0  0  0  0  0  0  0  0
   -6.1093   -8.4905   -7.4431 H   0  0  0  0  0  0  0  0  0  0  0  0
   -7.1038   -8.9639   -9.6410 H   0  0  0  0  0  0  0  0  0  0  0  0
   -9.0406   -7.6450  -10.4625 H   0  0  0  0  0  0  0  0  0  0  0  0
  -10.0129   -5.8496   -9.0486 H   0  0  0  0  0  0  0  0  0  0  0  0
  -10.2102   -5.2522   -6.3269 H   0  0  0  0  0  0  0  0  0  0  0  0
   -8.0148   -3.4231   -7.5044 H   0  0  0  0  0  0  0  0  0  0  0  0
   -9.5042   -2.8800   -6.5550 H   0  0  0  0  0  0  0  0  0  0  0  0
   -8.7590   -4.2284   -4.5188 H   0  0  0  0  0  0  0  0  0  0  0  0
   -6.5422   -4.7571   -3.3971 H   0  0  0  0  0  0  0  0  0  0  0  0
   -6.3094   -3.2678   -4.3215 H   0  0  0  0  0  0  0  0  0  0  0  0
   -5.0985   -4.5183   -4.4107 H   0  0  0  0  0  0  0  0  0  0  0  0
   -6.4684   -4.6014   -6.3328 H   0  0  0  0  0  0  0  0  0  0  0  0
  1  2  3  0
  1 15  1  0
  2  3  1  0
  3 13  1  0
  3  4  1  0
  3 16  1  1
  4  9  2  0
  4  5  1  0
  5  6  2  0
  5 17  1  0
  6  7  1  0
  6 18  1  0
  7  8  2  0
  7 19  1  0
  8  9  1  0
  8 20  1  0
  9 10  1  0
 10 12  1  0
 10 11  1  0
 10 21  1  1
 11 12  1  0
 11 22  1  0
 11 23  1  0
 12 13  1  0
 12 24  1  1
 13 14  1  0
 13 28  1  6
 14 25  1  0
 14 26  1  0
 14 27  1  0
M  CHG  1  13   1
M  END
>  <i_m_ct_stereo_status>  (336) 
1

>  <s_m_source_file>  (336) 
/var/tmp/pbs.5076255.sched01/tmpzqmxgpmu/1265eqpa8lp.sdf

>  <i_m_source_file_index>  (336) 
19

>  <i_lp_mmshare_version>  (336) 
48012

>  <i_f3d_flags>  (336) 
0

>  <s_epik_input>  (336) 
W0NIXSNDW0NASF0xTihbQ0gzXSlbQ0BASF0oW0NIMl0yKVtDQEBIXTJjKGMxMylbY0hdW2NIXVtjSF1bY0hdMw==

>  <s_epik_cmdline>  (336) 
J2VwaWtfcHl0aG9uJywgJy1waHQnLCAnMi4wJywgJy1waCcsICc3LjAnLCAnLXRuJywgJzgnLCAnLW1hJywgJzIwMCcsICctaW1hZScsICc8aW5maWxlLm1hZT4nLCAnLW9tYWUnLCAnPG91dGZpbGUubWFlPic=

>  <r_epik_Ionization_Penalty>  (336) 
0.664859

>  <r_epik_Ionization_Penalty_Charging>  (336) 
0.664859

>  <r_epik_Ionization_Penalty_Neutral>  (336) 
0

>  <r_epik_State_Penalty>  (336) 
0.684533

>  <r_epik_Charging_Adjusted_Penalty>  (336) 
1.34939

>  <i_epik_Tot_Q>  (336) 
1

>  <i_epik_Tot_abs_Q>  (336) 
1

>  <s_lp_Force_Field>  (336) 
OPLS3e

>  <r_lp_Energy>  (336) 
31.9722

>  <b_lp_Chiralities_Consistent>  (336) 
1

>  <s_lp_Variant>  (336) 
101:0-2

>  <s_i_glide_gridfile>  (336) 
pfpi4k_grid

>  <i_i_glide_lignum>  (336) 
19

>  <i_i_glide_rotatable_bonds>  (336) 
1

>  <r_i_docking_score>  (336) 
-6.18595

>  <r_i_glide_ligand_efficiency>  (336) 
-0.441854

>  <r_i_glide_ligand_efficiency_sa>  (336) 
-1.06493

>  <r_i_glide_ligand_efficiency_ln>  (336) 
-1.69988

>  <r_i_glide_gscore>  (336) 
-6.18595

>  <r_i_glide_lipo>  (336) 
-2.76586

>  <r_i_glide_hbond>  (336) 
0

>  <r_i_glide_metal>  (336) 
-0

>  <r_i_glide_rewards>  (336) 
-2.55008

>  <r_i_glide_evdw>  (336) 
-22.286

>  <r_i_glide_ecoul>  (336) 
-1.48989

>  <r_i_glide_erotb>  (336) 
0.467769

>  <r_i_glide_esite>  (336) 
0

>  <r_i_glide_emodel>  (336) 
-31.5008

>  <r_i_glide_energy>  (336) 
-23.7759

>  <r_i_glide_einternal>  (336) 
2.23794

>  <r_i_glide_intrahb_reward>  (336) 
-0

>  <i_i_glide_confnum>  (336) 
1

>  <i_i_glide_posenum>  (336) 
23

>  <r_i_glide_eff_state_penalty>  (336) 
0

>  <ligand_id>  (336) 
101

>  <original_smiles>  (336) 
C#CC1c2ccccc2C2CC2N1C

>  <smiles>  (336) 
[H]C#CC1([H])c2c([H])c([H])c([H])c([H])c2C2([H])C([H])([H])C2([H])[N+]1([H])C([H])([H])[H]

$$$$
101:1:1
     RDKit          3D

 28 30  0  0  1  0  0  0  0  0999 V2000
   -6.4588   -4.0242   -4.3669 C   0  0  0  0  0  0  0  0  0  0  0  0
   -7.2243   -4.6778   -5.0558 C   0  0  0  0  0  0  0  0  0  0  0  0
   -8.1642   -5.5087   -5.8371 C   0  0  2  0  0  0  0  0  0  0  0  0
   -7.4953   -6.7029   -6.5402 C   0  0  0  0  0  0  0  0  0  0  0  0
   -6.2089   -7.1937   -6.1989 C   0  0  0  0  0  0  0  0  0  0  0  0
   -5.6400   -8.2539   -6.9357 C   0  0  0  0  0  0  0  0  0  0  0  0
   -6.3477   -8.8403   -7.9959 C   0  0  0  0  0  0  0  0  0  0  0  0
   -7.6375   -8.3797   -8.3213 C   0  0  0  0  0  0  0  0  0  0  0  0
   -8.2058   -7.3202   -7.5939 C   0  0  0  0  0  0  0  0  0  0  0  0
   -9.5747   -6.8249   -7.9240 C   0  0  2  0  0  0  0  0  0  0  0  0
   -9.8068   -5.7598   -8.9635 C   0  0  0  0  0  0  0  0  0  0  0  0
   -9.9844   -5.4377   -7.4943 C   0  0  2  0  0  0  0  0  0  0  0  0
   -8.8853   -4.6637   -6.8488 N   0  0  1  0  0  0  0  0  0  0  0  0
   -9.4086   -3.3528   -6.3662 C   0  0  0  0  0  0  0  0  0  0  0  0
   -5.7838   -3.4518   -3.7719 H   0  0  0  0  0  0  0  0  0  0  0  0
   -8.9008   -5.8562   -5.1214 H   0  0  0  0  0  0  0  0  0  0  0  0
   -5.6315   -6.7577   -5.3984 H   0  0  0  0  0  0  0  0  0  0  0  0
   -4.6482   -8.6028   -6.6887 H   0  0  0  0  0  0  0  0  0  0  0  0
   -5.9039   -9.6361   -8.5692 H   0  0  0  0  0  0  0  0  0  0  0  0
   -8.1822   -8.8340   -9.1365 H   0  0  0  0  0  0  0  0  0  0  0  0
  -10.3190   -7.6116   -7.8176 H   0  0  0  0  0  0  0  0  0  0  0  0
   -8.9295   -5.4295   -9.5168 H   0  0  0  0  0  0  0  0  0  0  0  0
  -10.7148   -5.8867   -9.5529 H   0  0  0  0  0  0  0  0  0  0  0  0
  -10.9806   -5.2804   -7.0980 H   0  0  0  0  0  0  0  0  0  0  0  0
  -10.0811   -3.4855   -5.5163 H   0  0  0  0  0  0  0  0  0  0  0  0
   -9.9633   -2.8571   -7.1663 H   0  0  0  0  0  0  0  0  0  0  0  0
   -8.6100   -2.6711   -6.0759 H   0  0  0  0  0  0  0  0  0  0  0  0
   -8.1928   -4.4736   -7.5640 H   0  0  0  0  0  0  0  0  0  0  0  0
  1  2  3  0
  1 15  1  0
  2  3  1  0
  3 13  1  0
  3  4  1  0
  3 16  1  1
  4  9  2  0
  4  5  1  0
  5  6  2  0
  5 17  1  0
  6  7  1  0
  6 18  1  0
  7  8  2  0
  7 19  1  0
  8  9  1  0
  8 20  1  0
  9 10  1  0
 10 12  1  0
 10 11  1  0
 10 21  1  6
 11 12  1  0
 11 22  1  0
 11 23  1  0
 12 13  1  0
 12 24  1  6
 13 14  1  0
 13 28  1  6
 14 25  1  0
 14 26  1  0
 14 27  1  0
M  CHG  1  13   1
M  END
>  <i_m_ct_stereo_status>  (337) 
1

>  <s_m_source_file>  (337) 
/var/tmp/pbs.5076255.sched01/tmpzqmxgpmu/1265eqpa8lp.sdf

>  <i_m_source_file_index>  (337) 
19

>  <i_lp_mmshare_version>  (337) 
48012

>  <i_f3d_flags>  (337) 
0

>  <s_epik_input>  (337) 
W0NIXSNDW0NASF0xTihbQ0gzXSlbQ0BASF0oW0NIMl0yKVtDQEBIXTJjKGMxMylbY0hdW2NIXVtjSF1bY0hdMw==

>  <s_epik_cmdline>  (337) 
J2VwaWtfcHl0aG9uJywgJy1waHQnLCAnMi4wJywgJy1waCcsICc3LjAnLCAnLXRuJywgJzgnLCAnLW1hJywgJzIwMCcsICctaW1hZScsICc8aW5maWxlLm1hZT4nLCAnLW9tYWUnLCAnPG91dGZpbGUubWFlPic=

>  <r_epik_Ionization_Penalty>  (337) 
0.664859

>  <r_epik_Ionization_Penalty_Charging>  (337) 
0.664859

>  <r_epik_Ionization_Penalty_Neutral>  (337) 
0

>  <r_epik_State_Penalty>  (337) 
0.684533

>  <r_epik_Charging_Adjusted_Penalty>  (337) 
1.34939

>  <i_epik_Tot_Q>  (337) 
1

>  <i_epik_Tot_abs_Q>  (337) 
1

>  <s_lp_Force_Field>  (337) 
OPLS3e

>  <r_lp_Energy>  (337) 
31.9722

>  <b_lp_Chiralities_Consistent>  (337) 
1

>  <s_lp_Variant>  (337) 
101:0-2

>  <s_i_glide_gridfile>  (337) 
pfpi4k_grid

>  <i_i_glide_lignum>  (337) 
19

>  <i_i_glide_rotatable_bonds>  (337) 
1

>  <r_i_docking_score>  (337) 
-5.66065

>  <r_i_glide_ligand_efficiency>  (337) 
-0.404332

>  <r_i_glide_ligand_efficiency_sa>  (337) 
-0.974497

>  <r_i_glide_ligand_efficiency_ln>  (337) 
-1.55553

>  <r_i_glide_gscore>  (337) 
-5.66065

>  <r_i_glide_lipo>  (337) 
-2.5019

>  <r_i_glide_hbond>  (337) 
0

>  <r_i_glide_metal>  (337) 
-0

>  <r_i_glide_rewards>  (337) 
-2.60604

>  <r_i_glide_evdw>  (337) 
-20.3831

>  <r_i_glide_ecoul>  (337) 
-0.00879631

>  <r_i_glide_erotb>  (337) 
0.467769

>  <r_i_glide_esite>  (337) 
0

>  <r_i_glide_emodel>  (337) 
-27.3106

>  <r_i_glide_energy>  (337) 
-20.3919

>  <r_i_glide_einternal>  (337) 
2.24255

>  <r_i_glide_intrahb_reward>  (337) 
-0

>  <i_i_glide_confnum>  (337) 
1

>  <i_i_glide_posenum>  (337) 
30

>  <r_i_glide_eff_state_penalty>  (337) 
0

>  <ligand_id>  (337) 
101

>  <original_smiles>  (337) 
C#CC1c2ccccc2C2CC2N1C

>  <smiles>  (337) 
[H]C#CC1([H])c2c([H])c([H])c([H])c([H])c2C2([H])C([H])([H])C2([H])[N+]1([H])C([H])([H])[H]

$$$$
101:1:2
     RDKit          3D

 28 30  0  0  1  0  0  0  0  0999 V2000
    1.9117   -0.3903    4.3683 C   0  0  0  0  0  0  0  0  0  0  0  0
    1.1647    0.5747    4.4085 C   0  0  0  0  0  0  0  0  0  0  0  0
    0.2971    1.7742    4.4584 C   0  0  2  0  0  0  0  0  0  0  0  0
   -0.4958    1.9122    5.7696 C   0  0  0  0  0  0  0  0  0  0  0  0
   -0.1779    1.2017    6.9560 C   0  0  0  0  0  0  0  0  0  0  0  0
   -0.9848    1.3497    8.1049 C   0  0  0  0  0  0  0  0  0  0  0  0
   -2.1015    2.2013    8.0830 C   0  0  0  0  0  0  0  0  0  0  0  0
   -2.4083    2.9258    6.9152 C   0  0  0  0  0  0  0  0  0  0  0  0
   -1.6050    2.7864    5.7693 C   0  0  0  0  0  0  0  0  0  0  0  0
   -1.9098    3.5532    4.5278 C   0  0  2  0  0  0  0  0  0  0  0  0
   -2.8693    3.0479    3.4811 C   0  0  0  0  0  0  0  0  0  0  0  0
   -1.3793    3.0638    3.1993 C   0  0  2  0  0  0  0  0  0  0  0  0
   -0.6594    1.7593    3.2993 N   0  0  1  0  0  0  0  0  0  0  0  0
   -0.0863    1.4015    1.9729 C   0  0  0  0  0  0  0  0  0  0  0  0
    2.5642   -1.2359    4.3405 H   0  0  0  0  0  0  0  0  0  0  0  0
    0.9592    2.6352    4.3545 H   0  0  0  0  0  0  0  0  0  0  0  0
    0.6733    0.5385    7.0089 H   0  0  0  0  0  0  0  0  0  0  0  0
   -0.7375    0.8091    9.0067 H   0  0  0  0  0  0  0  0  0  0  0  0
   -2.7190    2.3051    8.9616 H   0  0  0  0  0  0  0  0  0  0  0  0
   -3.2638    3.5823    6.9052 H   0  0  0  0  0  0  0  0  0  0  0  0
   -1.8615    4.6234    4.7073 H   0  0  0  0  0  0  0  0  0  0  0  0
   -3.3897    2.1331    3.7181 H   0  0  0  0  0  0  0  0  0  0  0  0
   -3.4778    3.7977    2.9833 H   0  0  0  0  0  0  0  0  0  0  0  0
   -0.9856    3.7807    2.4856 H   0  0  0  0  0  0  0  0  0  0  0  0
    0.7293    2.0737    1.6997 H   0  0  0  0  0  0  0  0  0  0  0  0
   -0.8693    1.4822    1.2239 H   0  0  0  0  0  0  0  0  0  0  0  0
    0.2692    0.3712    1.9247 H   0  0  0  0  0  0  0  0  0  0  0  0
   -1.3486    1.0514    3.5188 H   0  0  0  0  0  0  0  0  0  0  0  0
  1  2  3  0
  1 15  1  0
  2  3  1  0
  3 13  1  0
  3  4  1  0
  3 16  1  6
  4  9  2  0
  4  5  1  0
  5  6  2  0
  5 17  1  0
  6  7  1  0
  6 18  1  0
  7  8  2  0
  7 19  1  0
  8  9  1  0
  8 20  1  0
  9 10  1  0
 10 12  1  0
 10 11  1  0
 10 21  1  1
 11 12  1  0
 11 22  1  0
 11 23  1  0
 12 13  1  0
 12 24  1  6
 13 14  1  0
 13 28  1  1
 14 25  1  0
 14 26  1  0
 14 27  1  0
M  CHG  1  13   1
M  END
>  <i_m_ct_stereo_status>  (338) 
1

>  <s_m_source_file>  (338) 
/var/tmp/pbs.5076255.sched01/tmpzqmxgpmu/1265eqpa8lp.sdf

>  <i_m_source_file_index>  (338) 
19

>  <i_lp_mmshare_version>  (338) 
48012

>  <i_f3d_flags>  (338) 
0

>  <s_epik_input>  (338) 
W0NIXSNDW0NASF0xTihbQ0gzXSlbQ0BASF0oW0NIMl0yKVtDQEBIXTJjKGMxMylbY0hdW2NIXVtjSF1bY0hdMw==

>  <s_epik_cmdline>  (338) 
J2VwaWtfcHl0aG9uJywgJy1waHQnLCAnMi4wJywgJy1waCcsICc3LjAnLCAnLXRuJywgJzgnLCAnLW1hJywgJzIwMCcsICctaW1hZScsICc8aW5maWxlLm1hZT4nLCAnLW9tYWUnLCAnPG91dGZpbGUubWFlPic=

>  <r_epik_Ionization_Penalty>  (338) 
0.664859

>  <r_epik_Ionization_Penalty_Charging>  (338) 
0.664859

>  <r_epik_Ionization_Penalty_Neutral>  (338) 
0

>  <r_epik_State_Penalty>  (338) 
0.684533

>  <r_epik_Charging_Adjusted_Penalty>  (338) 
1.34939

>  <i_epik_Tot_Q>  (338) 
1

>  <i_epik_Tot_abs_Q>  (338) 
1

>  <s_lp_Force_Field>  (338) 
OPLS3e

>  <r_lp_Energy>  (338) 
31.9722

>  <b_lp_Chiralities_Consistent>  (338) 
1

>  <s_lp_Variant>  (338) 
101:0-2

>  <s_i_glide_gridfile>  (338) 
pfpi4k_grid

>  <i_i_glide_lignum>  (338) 
19

>  <i_i_glide_rotatable_bonds>  (338) 
1

>  <r_i_docking_score>  (338) 
-3.00555

>  <r_i_glide_ligand_efficiency>  (338) 
-0.214682

>  <r_i_glide_ligand_efficiency_sa>  (338) 
-0.517414

>  <r_i_glide_ligand_efficiency_ln>  (338) 
-0.825914

>  <r_i_glide_gscore>  (338) 
-3.00555

>  <r_i_glide_lipo>  (338) 
-0.157812

>  <r_i_glide_hbond>  (338) 
0

>  <r_i_glide_metal>  (338) 
-0

>  <r_i_glide_rewards>  (338) 
-2.15279

>  <r_i_glide_evdw>  (338) 
-12.282

>  <r_i_glide_ecoul>  (338) 
-3.39902

>  <r_i_glide_erotb>  (338) 
0.467769

>  <r_i_glide_esite>  (338) 
-0.0387581

>  <r_i_glide_emodel>  (338) 
-18.7095

>  <r_i_glide_energy>  (338) 
-15.6811

>  <r_i_glide_einternal>  (338) 
2.24274

>  <r_i_glide_intrahb_reward>  (338) 
-0

>  <i_i_glide_confnum>  (338) 
1

>  <i_i_glide_posenum>  (338) 
11

>  <r_i_glide_eff_state_penalty>  (338) 
0

>  <ligand_id>  (338) 
101

>  <original_smiles>  (338) 
C#CC1c2ccccc2C2CC2N1C

>  <smiles>  (338) 
[H]C#CC1([H])c2c([H])c([H])c([H])c([H])c2C2([H])C([H])([H])C2([H])[N+]1([H])C([H])([H])[H]

$$$$
102:0:0
     RDKit          3D

 33 35  0  0  1  0  0  0  0  0999 V2000
    0.1824   -2.1652    5.4080 C   0  0  0  0  0  0  0  0  0  0  0  0
   -0.2206   -2.0638    6.7677 O   0  0  0  0  0  0  0  0  0  0  0  0
   -0.1865   -3.2120    7.5183 C   0  0  0  0  0  0  0  0  0  0  0  0
    0.2060   -4.4743    7.0167 C   0  0  0  0  0  0  0  0  0  0  0  0
    0.1946   -5.5533    7.9063 C   0  0  0  0  0  0  0  0  0  0  0  0
    0.5691   -6.8271    7.4674 N   0  0  0  0  0  0  0  0  0  0  0  0
    0.8468   -7.1386    6.0743 C   0  0  0  0  0  0  0  0  0  0  0  0
    1.5899   -8.4734    6.0953 C   0  0  2  0  0  0  0  0  0  0  0  0
    1.1607   -9.4628    4.9967 C   0  0  0  0  0  0  0  0  0  0  0  0
    0.3992  -10.5149    5.6795 N   0  0  0  0  0  0  0  0  0  0  0  0
   -0.0009   -9.9880    6.9980 C   0  0  0  0  0  0  0  0  0  0  0  0
    1.1660   -9.1028    7.4224 C   0  0  2  0  0  0  0  0  0  0  0  0
    0.7873   -7.9472    8.3531 C   0  0  0  0  0  0  0  0  0  0  0  0
   -0.1772   -5.3974    9.1943 N   0  0  0  0  0  0  0  0  0  0  0  0
   -0.5464   -4.1676    9.5631 C   0  0  0  0  0  0  0  0  0  0  0  0
   -0.5736   -3.0733    8.8029 N   0  0  0  0  0  0  0  0  0  0  0  0
    0.1357   -1.2007    4.9006 H   0  0  0  0  0  0  0  0  0  0  0  0
   -0.4719   -2.8524    4.8750 H   0  0  0  0  0  0  0  0  0  0  0  0
    1.2072   -2.5266    5.3372 H   0  0  0  0  0  0  0  0  0  0  0  0
    0.5013   -4.6325    5.9960 H   0  0  0  0  0  0  0  0  0  0  0  0
    1.4710   -6.3973    5.5798 H   0  0  0  0  0  0  0  0  0  0  0  0
   -0.1032   -7.1961    5.5408 H   0  0  0  0  0  0  0  0  0  0  0  0
    2.6656   -8.3039    6.0870 H   0  0  0  0  0  0  0  0  0  0  0  0
    0.5131   -8.9971    4.2470 H   0  0  0  0  0  0  0  0  0  0  0  0
    2.0180   -9.9153    4.4922 H   0  0  0  0  0  0  0  0  0  0  0  0
   -0.4498  -10.7929    5.2010 H   0  0  0  0  0  0  0  0  0  0  0  0
   -0.9309   -9.4335    6.8585 H   0  0  0  0  0  0  0  0  0  0  0  0
   -0.1874  -10.7946    7.6924 H   0  0  0  0  0  0  0  0  0  0  0  0
    1.9662   -9.7199    7.8390 H   0  0  0  0  0  0  0  0  0  0  0  0
   -0.0950   -8.1634    8.9605 H   0  0  0  0  0  0  0  0  0  0  0  0
    1.6187   -7.7066    9.0141 H   0  0  0  0  0  0  0  0  0  0  0  0
   -0.8556   -4.0415   10.5897 H   0  0  0  0  0  0  0  0  0  0  0  0
    1.0109  -11.3047    5.8985 H   0  0  0  0  0  0  0  0  0  0  0  0
  1 17  1  0
  1 18  1  0
  1 19  1  0
  1  2  1  0
  2  3  1  0
  3 16  2  0
  3  4  1  0
  4 20  1  0
  4  5  2  0
  5  6  1  0
  5 14  1  0
  6 13  1  0
  6  7  1  0
  7  8  1  0
  7 21  1  0
  7 22  1  0
  8 12  1  0
  8  9  1  0
  8 23  1  1
  9 10  1  0
  9 24  1  0
  9 25  1  0
 10 11  1  0
 10 26  1  0
 10 33  1  0
 11 12  1  0
 11 27  1  0
 11 28  1  0
 12 13  1  0
 12 29  1  1
 13 30  1  0
 13 31  1  0
 14 15  2  0
 15 32  1  0
 15 16  1  0
M  CHG  1  10   1
M  END
>  <i_m_ct_stereo_status>  (339) 
1

>  <s_m_source_file>  (339) 
/var/tmp/pbs.5076255.sched01/tmpzqmxgpmu/1265eqpa8lp.sdf

>  <i_m_source_file_index>  (339) 
20

>  <i_lp_mmshare_version>  (339) 
48012

>  <i_f3d_flags>  (339) 
0

>  <s_epik_input>  (339) 
W0NIM11PYzFbY0hdYyhuW2NIXW4xKU4oW0NIMl0yKVtDSDJdW0NASF0oW0NASF0yMylbQ0gyXVtOSF1bQ0gyXTM=

>  <s_epik_cmdline>  (339) 
J2VwaWtfcHl0aG9uJywgJy1waHQnLCAnMi4wJywgJy1waCcsICc3LjAnLCAnLXRuJywgJzgnLCAnLW1hJywgJzIwMCcsICctaW1hZScsICc8aW5maWxlLm1hZT4nLCAnLW9tYWUnLCAnPG91dGZpbGUubWFlPic=

>  <r_lp_tautomer_probability>  (339) 
1

>  <r_epik_Ionization_Penalty>  (339) 
0.00559479

>  <r_epik_Ionization_Penalty_Charging>  (339) 
0.000110793

>  <r_epik_Ionization_Penalty_Neutral>  (339) 
0.005484

>  <r_epik_State_Penalty>  (339) 
0.411515

>  <r_epik_Charging_Adjusted_Penalty>  (339) 
0.411625

>  <i_epik_Tot_Q>  (339) 
1

>  <i_epik_Tot_abs_Q>  (339) 
1

>  <s_lp_Force_Field>  (339) 
OPLS3e

>  <r_lp_Energy>  (339) 
10.0337

>  <b_lp_Chiralities_Consistent>  (339) 
1

>  <s_lp_Variant>  (339) 
102:0-1

>  <s_i_glide_gridfile>  (339) 
pfpi4k_grid

>  <i_i_glide_lignum>  (339) 
20

>  <i_i_glide_rotatable_bonds>  (339) 
2

>  <r_i_docking_score>  (339) 
-4.34892

>  <r_i_glide_ligand_efficiency>  (339) 
-0.271808

>  <r_i_glide_ligand_efficiency_sa>  (339) 
-0.684912

>  <r_i_glide_ligand_efficiency_ln>  (339) 
-1.15277

>  <r_i_glide_gscore>  (339) 
-4.34892

>  <r_i_glide_lipo>  (339) 
0

>  <r_i_glide_hbond>  (339) 
-0.492657

>  <r_i_glide_metal>  (339) 
-0

>  <r_i_glide_rewards>  (339) 
-1.90037

>  <r_i_glide_evdw>  (339) 
-8.51402

>  <r_i_glide_ecoul>  (339) 
-11.6392

>  <r_i_glide_erotb>  (339) 
0.344623

>  <r_i_glide_esite>  (339) 
-0.128934

>  <r_i_glide_emodel>  (339) 
-26.6831

>  <r_i_glide_energy>  (339) 
-20.1532

>  <r_i_glide_einternal>  (339) 
4.59327

>  <r_i_glide_intrahb_reward>  (339) 
-0

>  <i_i_glide_confnum>  (339) 
1

>  <i_i_glide_posenum>  (339) 
33

>  <r_i_glide_eff_state_penalty>  (339) 
0

>  <ligand_id>  (339) 
102

>  <original_smiles>  (339) 
COc1cc(N2CC3CNCC3C2)ncn1

>  <smiles>  (339) 
[H]c1nc(OC([H])([H])[H])c([H])c(N2C([H])([H])C3([H])C([H])(C2([H])[H])C([H])([H])[N+]([H])([H])C3([H])[H])n1

$$$$
102:0:1
     RDKit          3D

 33 35  0  0  1  0  0  0  0  0999 V2000
   -3.1223    3.3685   10.5560 C   0  0  0  0  0  0  0  0  0  0  0  0
   -3.0496    2.7821    9.2588 O   0  0  0  0  0  0  0  0  0  0  0  0
   -1.8270    2.7493    8.6235 C   0  0  0  0  0  0  0  0  0  0  0  0
   -1.7512    2.1809    7.3422 C   0  0  0  0  0  0  0  0  0  0  0  0
   -0.4826    2.1824    6.7264 C   0  0  0  0  0  0  0  0  0  0  0  0
   -0.2900    1.6284    5.4498 N   0  0  0  0  0  0  0  0  0  0  0  0
    0.9502    1.7655    4.7000 C   0  0  0  0  0  0  0  0  0  0  0  0
    0.7825    0.8416    3.4841 C   0  0  2  0  0  0  0  0  0  0  0  0
    1.3391    1.3971    2.1634 C   0  0  0  0  0  0  0  0  0  0  0  0
    0.1639    1.7465    1.3504 N   0  0  0  0  0  0  0  0  0  0  0  0
   -1.0066    1.7919    2.2225 C   0  0  0  0  0  0  0  0  0  0  0  0
   -0.7271    0.7490    3.2920 C   0  0  2  0  0  0  0  0  0  0  0  0
   -1.3509    1.0323    4.6600 C   0  0  0  0  0  0  0  0  0  0  0  0
    0.5942    2.7002    7.3491 N   0  0  0  0  0  0  0  0  0  0  0  0
    0.4083    3.1995    8.5719 C   0  0  0  0  0  0  0  0  0  0  0  0
   -0.7436    3.2609    9.2492 N   0  0  0  0  0  0  0  0  0  0  0  0
   -4.1515    3.2880   10.9004 H   0  0  0  0  0  0  0  0  0  0  0  0
   -2.8592    4.4276   10.5270 H   0  0  0  0  0  0  0  0  0  0  0  0
   -2.4859    2.8608   11.2720 H   0  0  0  0  0  0  0  0  0  0  0  0
   -2.6268    1.7849    6.8742 H   0  0  0  0  0  0  0  0  0  0  0  0
    1.8113    1.4674    5.2977 H   0  0  0  0  0  0  0  0  0  0  0  0
    1.0768    2.8100    4.4043 H   0  0  0  0  0  0  0  0  0  0  0  0
    1.1846   -0.1452    3.7055 H   0  0  0  0  0  0  0  0  0  0  0  0
    1.9354    2.2970    2.3125 H   0  0  0  0  0  0  0  0  0  0  0  0
    1.9365    0.6637    1.6254 H   0  0  0  0  0  0  0  0  0  0  0  0
    0.2576    2.6899    0.9531 H   0  0  0  0  0  0  0  0  0  0  0  0
   -1.0381    2.7991    2.6322 H   0  0  0  0  0  0  0  0  0  0  0  0
   -1.9226    1.6067    1.6752 H   0  0  0  0  0  0  0  0  0  0  0  0
   -1.0061   -0.2339    2.9201 H   0  0  0  0  0  0  0  0  0  0  0  0
   -2.2415    1.6643    4.5867 H   0  0  0  0  0  0  0  0  0  0  0  0
   -1.6370    0.0943    5.1352 H   0  0  0  0  0  0  0  0  0  0  0  0
    1.2811    3.6070    9.0613 H   0  0  0  0  0  0  0  0  0  0  0  0
   -0.0012    1.0344    0.6332 H   0  0  0  0  0  0  0  0  0  0  0  0
  1 17  1  0
  1 18  1  0
  1 19  1  0
  1  2  1  0
  2  3  1  0
  3 16  2  0
  3  4  1  0
  4 20  1  0
  4  5  2  0
  5  6  1  0
  5 14  1  0
  6 13  1  0
  6  7  1  0
  7  8  1  0
  7 21  1  0
  7 22  1  0
  8 12  1  0
  8  9  1  0
  8 23  1  1
  9 10  1  0
  9 24  1  0
  9 25  1  0
 10 11  1  0
 10 26  1  0
 10 33  1  0
 11 12  1  0
 11 27  1  0
 11 28  1  0
 12 13  1  0
 12 29  1  6
 13 30  1  0
 13 31  1  0
 14 15  2  0
 15 32  1  0
 15 16  1  0
M  CHG  1  10   1
M  END
>  <i_m_ct_stereo_status>  (340) 
1

>  <s_m_source_file>  (340) 
/var/tmp/pbs.5076255.sched01/tmpzqmxgpmu/1265eqpa8lp.sdf

>  <i_m_source_file_index>  (340) 
20

>  <i_lp_mmshare_version>  (340) 
48012

>  <i_f3d_flags>  (340) 
0

>  <s_epik_input>  (340) 
W0NIM11PYzFbY0hdYyhuW2NIXW4xKU4oW0NIMl0yKVtDSDJdW0NASF0oW0NASF0yMylbQ0gyXVtOSF1bQ0gyXTM=

>  <s_epik_cmdline>  (340) 
J2VwaWtfcHl0aG9uJywgJy1waHQnLCAnMi4wJywgJy1waCcsICc3LjAnLCAnLXRuJywgJzgnLCAnLW1hJywgJzIwMCcsICctaW1hZScsICc8aW5maWxlLm1hZT4nLCAnLW9tYWUnLCAnPG91dGZpbGUubWFlPic=

>  <r_lp_tautomer_probability>  (340) 
1

>  <r_epik_Ionization_Penalty>  (340) 
0.00559479

>  <r_epik_Ionization_Penalty_Charging>  (340) 
0.000110793

>  <r_epik_Ionization_Penalty_Neutral>  (340) 
0.005484

>  <r_epik_State_Penalty>  (340) 
0.411515

>  <r_epik_Charging_Adjusted_Penalty>  (340) 
0.411625

>  <i_epik_Tot_Q>  (340) 
1

>  <i_epik_Tot_abs_Q>  (340) 
1

>  <s_lp_Force_Field>  (340) 
OPLS3e

>  <r_lp_Energy>  (340) 
10.0337

>  <b_lp_Chiralities_Consistent>  (340) 
1

>  <s_lp_Variant>  (340) 
102:0-1

>  <s_i_glide_gridfile>  (340) 
pfpi4k_grid

>  <i_i_glide_lignum>  (340) 
20

>  <i_i_glide_rotatable_bonds>  (340) 
2

>  <r_i_docking_score>  (340) 
-3.83609

>  <r_i_glide_ligand_efficiency>  (340) 
-0.239756

>  <r_i_glide_ligand_efficiency_sa>  (340) 
-0.604147

>  <r_i_glide_ligand_efficiency_ln>  (340) 
-1.01683

>  <r_i_glide_gscore>  (340) 
-3.83609

>  <r_i_glide_lipo>  (340) 
0

>  <r_i_glide_hbond>  (340) 
-0.397906

>  <r_i_glide_metal>  (340) 
-0

>  <r_i_glide_rewards>  (340) 
-1.90037

>  <r_i_glide_evdw>  (340) 
-12.9995

>  <r_i_glide_ecoul>  (340) 
-7.64042

>  <r_i_glide_erotb>  (340) 
0.344623

>  <r_i_glide_esite>  (340) 
-0.0864028

>  <r_i_glide_emodel>  (340) 
-28.5957

>  <r_i_glide_energy>  (340) 
-20.6399

>  <r_i_glide_einternal>  (340) 
0.0985583

>  <r_i_glide_intrahb_reward>  (340) 
-0

>  <i_i_glide_confnum>  (340) 
1

>  <i_i_glide_posenum>  (340) 
3

>  <r_i_glide_eff_state_penalty>  (340) 
0

>  <ligand_id>  (340) 
102

>  <original_smiles>  (340) 
COc1cc(N2CC3CNCC3C2)ncn1

>  <smiles>  (340) 
[H]c1nc(OC([H])([H])[H])c([H])c(N2C([H])([H])C3([H])C([H])(C2([H])[H])C([H])([H])[N+]([H])([H])C3([H])[H])n1

$$$$
102:0:2
     RDKit          3D

 33 35  0  0  1  0  0  0  0  0999 V2000
   -3.5068    3.0115   10.3539 C   0  0  0  0  0  0  0  0  0  0  0  0
   -3.2214    2.7859    8.9855 O   0  0  0  0  0  0  0  0  0  0  0  0
   -1.9446    2.3844    8.6522 C   0  0  0  0  0  0  0  0  0  0  0  0
   -1.6832    2.0530    7.3173 C   0  0  0  0  0  0  0  0  0  0  0  0
   -0.3614    1.6647    7.0098 C   0  0  0  0  0  0  0  0  0  0  0  0
    0.0107    1.3278    5.7049 N   0  0  0  0  0  0  0  0  0  0  0  0
    1.3888    1.0606    5.3163 C   0  0  0  0  0  0  0  0  0  0  0  0
    1.3683    0.9568    3.7881 C   0  0  2  0  0  0  0  0  0  0  0  0
    1.7451    2.2381    3.0244 C   0  0  0  0  0  0  0  0  0  0  0  0
    0.9812    2.1426    1.7711 N   0  0  0  0  0  0  0  0  0  0  0  0
   -0.2833    1.4513    2.0594 C   0  0  0  0  0  0  0  0  0  0  0  0
   -0.0995    0.7502    3.4126 C   0  0  2  0  0  0  0  0  0  0  0  0
   -0.8905    1.3777    4.5625 C   0  0  0  0  0  0  0  0  0  0  0  0
    0.5896    1.6135    7.9716 N   0  0  0  0  0  0  0  0  0  0  0  0
    0.2282    1.9297    9.2137 C   0  0  0  0  0  0  0  0  0  0  0  0
   -0.9880    2.3018    9.6049 N   0  0  0  0  0  0  0  0  0  0  0  0
   -4.5651    3.2495   10.4390 H   0  0  0  0  0  0  0  0  0  0  0  0
   -2.9244    3.8312   10.7765 H   0  0  0  0  0  0  0  0  0  0  0  0
   -3.3400    2.1023   10.9183 H   0  0  0  0  0  0  0  0  0  0  0  0
   -2.4592    2.1106    6.5839 H   0  0  0  0  0  0  0  0  0  0  0  0
    1.6862    0.1097    5.7535 H   0  0  0  0  0  0  0  0  0  0  0  0
    2.0768    1.8314    5.6654 H   0  0  0  0  0  0  0  0  0  0  0  0
    1.9782    0.1232    3.4296 H   0  0  0  0  0  0  0  0  0  0  0  0
    1.3955    3.1247    3.5575 H   0  0  0  0  0  0  0  0  0  0  0  0
    2.8193    2.3257    2.8496 H   0  0  0  0  0  0  0  0  0  0  0  0
    0.7762    3.0676    1.3557 H   0  0  0  0  0  0  0  0  0  0  0  0
   -1.0996    2.1697    2.0744 H   0  0  0  0  0  0  0  0  0  0  0  0
   -0.4790    0.7144    1.2789 H   0  0  0  0  0  0  0  0  0  0  0  0
   -0.3250   -0.3168    3.3477 H   0  0  0  0  0  0  0  0  0  0  0  0
   -1.1548    2.4164    4.3619 H   0  0  0  0  0  0  0  0  0  0  0  0
   -1.8083    0.8237    4.7578 H   0  0  0  0  0  0  0  0  0  0  0  0
    0.9926    1.8828    9.9707 H   0  0  0  0  0  0  0  0  0  0  0  0
    1.5004    1.5706    1.1238 H   0  0  0  0  0  0  0  0  0  0  0  0
  1 17  1  0
  1 18  1  0
  1 19  1  0
  1  2  1  0
  2  3  1  0
  3 16  2  0
  3  4  1  0
  4 20  1  0
  4  5  2  0
  5  6  1  0
  5 14  1  0
  6 13  1  0
  6  7  1  0
  7  8  1  0
  7 21  1  0
  7 22  1  0
  8 12  1  0
  8  9  1  0
  8 23  1  1
  9 10  1  0
  9 24  1  0
  9 25  1  0
 10 11  1  0
 10 26  1  0
 10 33  1  0
 11 12  1  0
 11 27  1  0
 11 28  1  0
 12 13  1  0
 12 29  1  6
 13 30  1  0
 13 31  1  0
 14 15  2  0
 15 32  1  0
 15 16  1  0
M  CHG  1  10   1
M  END
>  <i_m_ct_stereo_status>  (341) 
1

>  <s_m_source_file>  (341) 
/var/tmp/pbs.5076255.sched01/tmpzqmxgpmu/1265eqpa8lp.sdf

>  <i_m_source_file_index>  (341) 
20

>  <i_lp_mmshare_version>  (341) 
48012

>  <i_f3d_flags>  (341) 
0

>  <s_epik_input>  (341) 
W0NIM11PYzFbY0hdYyhuW2NIXW4xKU4oW0NIMl0yKVtDSDJdW0NASF0oW0NASF0yMylbQ0gyXVtOSF1bQ0gyXTM=

>  <s_epik_cmdline>  (341) 
J2VwaWtfcHl0aG9uJywgJy1waHQnLCAnMi4wJywgJy1waCcsICc3LjAnLCAnLXRuJywgJzgnLCAnLW1hJywgJzIwMCcsICctaW1hZScsICc8aW5maWxlLm1hZT4nLCAnLW9tYWUnLCAnPG91dGZpbGUubWFlPic=

>  <r_lp_tautomer_probability>  (341) 
1

>  <r_epik_Ionization_Penalty>  (341) 
0.00559479

>  <r_epik_Ionization_Penalty_Charging>  (341) 
0.000110793

>  <r_epik_Ionization_Penalty_Neutral>  (341) 
0.005484

>  <r_epik_State_Penalty>  (341) 
0.411515

>  <r_epik_Charging_Adjusted_Penalty>  (341) 
0.411625

>  <i_epik_Tot_Q>  (341) 
1

>  <i_epik_Tot_abs_Q>  (341) 
1

>  <s_lp_Force_Field>  (341) 
OPLS3e

>  <r_lp_Energy>  (341) 
10.0337

>  <b_lp_Chiralities_Consistent>  (341) 
1

>  <s_lp_Variant>  (341) 
102:0-1

>  <s_i_glide_gridfile>  (341) 
pfpi4k_grid

>  <i_i_glide_lignum>  (341) 
20

>  <i_i_glide_rotatable_bonds>  (341) 
2

>  <r_i_docking_score>  (341) 
-3.54429

>  <r_i_glide_ligand_efficiency>  (341) 
-0.221518

>  <r_i_glide_ligand_efficiency_sa>  (341) 
-0.55819

>  <r_i_glide_ligand_efficiency_ln>  (341) 
-0.939484

>  <r_i_glide_gscore>  (341) 
-3.54429

>  <r_i_glide_lipo>  (341) 
0

>  <r_i_glide_hbond>  (341) 
-0.2

>  <r_i_glide_metal>  (341) 
-0

>  <r_i_glide_rewards>  (341) 
-1.90037

>  <r_i_glide_evdw>  (341) 
-12.1406

>  <r_i_glide_ecoul>  (341) 
-7.21081

>  <r_i_glide_erotb>  (341) 
0.344623

>  <r_i_glide_esite>  (341) 
-0.0998861

>  <r_i_glide_emodel>  (341) 
-26.7239

>  <r_i_glide_energy>  (341) 
-19.3514

>  <r_i_glide_einternal>  (341) 
0.0808195

>  <r_i_glide_intrahb_reward>  (341) 
-0

>  <i_i_glide_confnum>  (341) 
4

>  <i_i_glide_posenum>  (341) 
27

>  <r_i_glide_eff_state_penalty>  (341) 
0

>  <ligand_id>  (341) 
102

>  <original_smiles>  (341) 
COc1cc(N2CC3CNCC3C2)ncn1

>  <smiles>  (341) 
[H]c1nc(OC([H])([H])[H])c([H])c(N2C([H])([H])C3([H])C([H])(C2([H])[H])C([H])([H])[N+]([H])([H])C3([H])[H])n1

$$$$
103:0:0
     RDKit          3D

 61 67  0  0  1  0  0  0  0  0999 V2000
    3.4038   -0.0579   -4.0236 C   0  0  0  0  0  0  0  0  0  0  0  0
    4.2166   -1.1734   -3.6944 O   0  0  0  0  0  0  0  0  0  0  0  0
    4.7794   -1.0984   -2.3853 C   0  0  2  0  0  0  0  0  0  0  0  0
    5.6268   -2.3156   -1.9915 C   0  0  2  0  0  0  0  0  0  0  0  0
    4.5884   -3.4449   -2.1225 C   0  0  1  0  0  0  0  0  0  0  0  0
    5.0231   -4.6567   -1.6250 O   0  0  0  0  0  0  0  0  0  0  0  0
    3.3137   -2.8113   -1.4991 C   0  0  1  0  0  0  0  0  0  0  0  0
    2.6922   -3.4848   -0.2489 C   0  0  0  0  0  0  0  0  0  0  0  0
    3.1843   -3.0716    1.1881 C   0  0  1  0  0  0  0  0  0  0  0  0
    3.7964   -4.2007    2.0700 C   0  0  0  0  0  0  0  0  0  0  0  0
    4.9793   -4.8920    1.5714 O   0  0  0  0  0  0  0  0  0  0  0  0
    4.1402   -5.9305    1.0263 C   0  0  0  0  0  0  0  0  0  0  0  0
    3.0777   -5.4613    1.8813 O   0  0  0  0  0  0  0  0  0  0  0  0
    3.8556   -3.7865    3.5592 C   0  0  1  0  0  0  0  0  0  0  0  0
    4.4568   -4.8068    4.3567 O   0  0  0  0  0  0  0  0  0  0  0  0
    4.2408   -4.6763    5.7628 C   0  0  0  0  0  0  0  0  0  0  0  0
    4.6381   -2.4870    3.7476 C   0  0  2  0  0  0  0  0  0  0  0  0
    3.8828   -1.6086    4.6394 O   0  0  0  0  0  0  0  0  0  0  0  0
    3.7963   -0.6091    3.5928 C   0  0  2  0  0  0  0  0  0  0  0  0
    2.4285   -0.4687    2.9777 C   0  0  0  0  0  0  0  0  0  0  0  0
    2.7211   -0.6114    1.4814 C   0  0  0  0  0  0  0  0  0  0  0  0
    3.8783   -1.6566    1.3022 C   0  0  2  0  0  0  0  0  0  0  0  0
    4.6349   -1.2573   -0.0238 C   0  0  1  0  0  0  0  0  0  0  0  0
    5.9380   -1.9704   -0.5058 C   0  0  1  0  0  0  0  0  0  0  0  0
    6.3453   -3.0717    0.2870 O   0  0  0  0  0  0  0  0  0  0  0  0
    7.6732   -3.5248    0.0585 C   0  0  0  0  0  0  0  0  0  0  0  0
    3.7608   -1.3583   -1.2791 C   0  0  1  0  0  0  0  0  0  0  0  0
    4.6904   -1.4125    2.6420 C   0  0  2  0  0  0  0  0  0  0  0  0
    6.0657   -0.7583    2.4732 C   0  0  0  0  0  0  0  0  0  0  0  0
    2.9757   -0.1909   -5.0186 H   0  0  0  0  0  0  0  0  0  0  0  0
    3.9864    0.8643   -4.0186 H   0  0  0  0  0  0  0  0  0  0  0  0
    2.5765    0.0535   -3.3224 H   0  0  0  0  0  0  0  0  0  0  0  0
    5.3273   -0.1557   -2.2748 H   0  0  0  0  0  0  0  0  0  0  0  0
    6.5154   -2.4752   -2.6005 H   0  0  0  0  0  0  0  0  0  0  0  0
    4.3853   -3.5833   -3.1914 H   0  0  0  0  0  0  0  0  0  0  0  0
    4.3613   -5.3022   -1.9279 H   0  0  0  0  0  0  0  0  0  0  0  0
    2.5391   -2.8145   -2.2712 H   0  0  0  0  0  0  0  0  0  0  0  0
    1.6462   -3.1415   -0.2940 H   0  0  0  0  0  0  0  0  0  0  0  0
    2.5984   -4.5295   -0.3958 H   0  0  0  0  0  0  0  0  0  0  0  0
    2.2403   -2.9400    1.7018 H   0  0  0  0  0  0  0  0  0  0  0  0
    3.9382   -5.8335   -0.0172 H   0  0  0  0  0  0  0  0  0  0  0  0
    4.4930   -6.9131    1.2816 H   0  0  0  0  0  0  0  0  0  0  0  0
    2.8322   -3.6440    3.9097 H   0  0  0  0  0  0  0  0  0  0  0  0
    4.7560   -5.4822    6.2845 H   0  0  0  0  0  0  0  0  0  0  0  0
    3.1835   -4.7415    6.0155 H   0  0  0  0  0  0  0  0  0  0  0  0
    4.6297   -3.7381    6.1573 H   0  0  0  0  0  0  0  0  0  0  0  0
    5.6441   -2.6620    4.1529 H   0  0  0  0  0  0  0  0  0  0  0  0
    4.2332    0.3471    3.8930 H   0  0  0  0  0  0  0  0  0  0  0  0
    1.7677   -1.2741    3.3137 H   0  0  0  0  0  0  0  0  0  0  0  0
    1.9485    0.4776    3.2170 H   0  0  0  0  0  0  0  0  0  0  0  0
    1.8221   -0.8590    0.9174 H   0  0  0  0  0  0  0  0  0  0  0  0
    3.0353    0.3785    1.1257 H   0  0  0  0  0  0  0  0  0  0  0  0
    4.9009   -0.1965    0.0691 H   0  0  0  0  0  0  0  0  0  0  0  0
    6.7432   -1.2331   -0.4554 H   0  0  0  0  0  0  0  0  0  0  0  0
    7.8785   -4.3775    0.7053 H   0  0  0  0  0  0  0  0  0  0  0  0
    8.4005   -2.7468    0.2928 H   0  0  0  0  0  0  0  0  0  0  0  0
    7.8194   -3.8451   -0.9724 H   0  0  0  0  0  0  0  0  0  0  0  0
    2.9211   -0.6904   -1.2575 H   0  0  0  0  0  0  0  0  0  0  0  0
    6.0076    0.1469    1.8831 H   0  0  0  0  0  0  0  0  0  0  0  0
    6.7972   -1.4165    2.0143 H   0  0  0  0  0  0  0  0  0  0  0  0
    6.4887   -0.4564    3.4340 H   0  0  0  0  0  0  0  0  0  0  0  0
  1  2  1  0
  1 30  1  0
  1 31  1  0
  1 32  1  0
  2  3  1  0
  3 27  1  0
  3  4  1  0
  3 33  1  1
  4 24  1  0
  4  5  1  0
  4 34  1  6
  5  6  1  0
  5  7  1  0
  5 35  1  6
  6 36  1  0
  7 27  1  0
  7  8  1  0
  7 37  1  6
  8  9  1  0
  8 38  1  0
  8 39  1  0
  9 22  1  0
  9 10  1  0
  9 40  1  1
 10 13  1  0
 10 11  1  0
 10 14  1  0
 11 12  1  0
 12 13  1  0
 12 41  1  0
 12 42  1  0
 14 15  1  0
 14 17  1  0
 14 43  1  1
 15 16  1  0
 16 44  1  0
 16 45  1  0
 16 46  1  0
 17 28  1  0
 17 18  1  0
 17 47  1  1
 18 19  1  0
 19 28  1  0
 19 20  1  0
 19 48  1  1
 20 21  1  0
 20 49  1  0
 20 50  1  0
 22 21  1  1
 21 51  1  0
 21 52  1  0
 22 23  1  0
 22 28  1  0
 23 24  1  0
 23 27  1  0
 23 53  1  1
 24 25  1  0
 24 54  1  6
 25 26  1  0
 26 55  1  0
 26 56  1  0
 26 57  1  0
 27 58  1  1
 28 29  1  6
 29 59  1  0
 29 60  1  0
 29 61  1  0
M  END
>  <i_m_ct_stereo_status>  (342) 
1

>  <s_m_source_file>  (342) 
/var/tmp/pbs.5076255.sched01/tmpzqmxgpmu/1265eqpa8lp.sdf

>  <i_m_source_file_index>  (342) 
21

>  <i_lp_mmshare_version>  (342) 
48012

>  <i_f3d_flags>  (342) 
0

>  <s_epik_input>  (342) 
W0NIM11PW0NAQEhdMVtDQEBIXShbQ0BASF0yT1tDSDNdKVtDQEBIXShbT0hdKVtDQEBIXShbQ0gyXTMpW0NASF0xW0NAQEhdMltDQEBdNChbQ0BASF0zQzU2T1tDSDJdTzUpW0NAXTcoW0NIM10pW0NASF0oW0NAQEhdNk9bQ0gzXSlPW0NAQEhdN1tDSDJdW0NIMl00

>  <s_epik_cmdline>  (342) 
J2VwaWtfcHl0aG9uJywgJy1waHQnLCAnMi4wJywgJy1waCcsICc3LjAnLCAnLXRuJywgJzgnLCAnLW1hJywgJzIwMCcsICctaW1hZScsICc8aW5maWxlLm1hZT4nLCAnLW9tYWUnLCAnPG91dGZpbGUubWFlPic=

>  <r_lp_tautomer_probability>  (342) 
1

>  <r_epik_Ionization_Penalty>  (342) 
1.40087e-07

>  <r_epik_Ionization_Penalty_Charging>  (342) 
0

>  <r_epik_Ionization_Penalty_Neutral>  (342) 
1.40087e-07

>  <r_epik_State_Penalty>  (342) 
-0

>  <r_epik_Charging_Adjusted_Penalty>  (342) 
0

>  <i_epik_Tot_Q>  (342) 
0

>  <i_epik_Tot_abs_Q>  (342) 
0

>  <s_epik_Chemistry_Notes>  (342) 
This compound contains an acetal/aminal-like group ( X-CH(R)-Y where X, Y are N, S, or O) that may be acid/base labile, releasing an aldehyde.

>  <s_lp_Force_Field>  (342) 
OPLS3e

>  <r_lp_Energy>  (342) 
89.2137

>  <b_lp_Chiralities_Consistent>  (342) 
1

>  <s_lp_Variant>  (342) 
103:0-1

>  <s_i_glide_gridfile>  (342) 
pfpi4k_grid

>  <i_i_glide_lignum>  (342) 
21

>  <i_i_glide_rotatable_bonds>  (342) 
4

>  <r_i_docking_score>  (342) 
-3.25356

>  <r_i_glide_ligand_efficiency>  (342) 
-0.112192

>  <r_i_glide_ligand_efficiency_sa>  (342) 
-0.344689

>  <r_i_glide_ligand_efficiency_ln>  (342) 
-0.744983

>  <r_i_glide_gscore>  (342) 
-3.25356

>  <r_i_glide_lipo>  (342) 
-0.490262

>  <r_i_glide_hbond>  (342) 
0

>  <r_i_glide_metal>  (342) 
-0

>  <r_i_glide_rewards>  (342) 
-0.723005

>  <r_i_glide_evdw>  (342) 
-21.535

>  <r_i_glide_ecoul>  (342) 
-6.42362

>  <r_i_glide_erotb>  (342) 
0

>  <r_i_glide_esite>  (342) 
0

>  <r_i_glide_emodel>  (342) 
-30.7243

>  <r_i_glide_energy>  (342) 
-27.9586

>  <r_i_glide_einternal>  (342) 
0.889865

>  <r_i_glide_intrahb_reward>  (342) 
-0

>  <i_i_glide_confnum>  (342) 
2

>  <i_i_glide_posenum>  (342) 
27

>  <r_i_glide_eff_state_penalty>  (342) 
0

>  <ligand_id>  (342) 
103

>  <original_smiles>  (342) 
COC1C2C(O)C3CC4C5(OCO5)C(OC)C5OC6CCC4(C(C2OC)C31)C65C

>  <smiles>  (342) 
[H]OC1([H])C2([H])C([H])(OC([H])([H])[H])C3([H])C1([H])C([H])([H])C1([H])C4(OC([H])([H])O4)C([H])(OC([H])([H])[H])C4([H])OC5([H])C([H])([H])C([H])([H])C1(C3([H])C2([H])OC([H])([H])[H])C54C([H])([H])[H]

$$$$
103:0:1
     RDKit          3D

 61 67  0  0  1  0  0  0  0  0999 V2000
    2.1428    0.4886   -4.3852 C   0  0  0  0  0  0  0  0  0  0  0  0
    2.9063   -0.6966   -4.1909 O   0  0  0  0  0  0  0  0  0  0  0  0
    3.7624   -0.6537   -3.0438 C   0  0  2  0  0  0  0  0  0  0  0  0
    4.7535   -1.8002   -3.0103 C   0  0  2  0  0  0  0  0  0  0  0  0
    3.8166   -3.0034   -2.9743 C   0  0  1  0  0  0  0  0  0  0  0  0
    4.5588   -4.2028   -2.8463 O   0  0  0  0  0  0  0  0  0  0  0  0
    2.7431   -2.5746   -1.9546 C   0  0  1  0  0  0  0  0  0  0  0  0
    2.5178   -3.3906   -0.6367 C   0  0  0  0  0  0  0  0  0  0  0  0
    3.3761   -3.0550    0.6362 C   0  0  1  0  0  0  0  0  0  0  0  0
    4.2905   -4.1793    1.2026 C   0  0  0  0  0  0  0  0  0  0  0  0
    5.3758   -4.6801    0.3777 O   0  0  0  0  0  0  0  0  0  0  0  0
    4.5153   -5.7527   -0.0686 C   0  0  0  0  0  0  0  0  0  0  0  0
    3.6503   -5.4754    1.0682 O   0  0  0  0  0  0  0  0  0  0  0  0
    4.7168   -3.8884    2.6512 C   0  0  1  0  0  0  0  0  0  0  0  0
    5.6103   -4.8921    3.1346 O   0  0  0  0  0  0  0  0  0  0  0  0
    5.6638   -5.0168    4.5484 C   0  0  0  0  0  0  0  0  0  0  0  0
    5.4040   -2.5216    2.7528 C   0  0  2  0  0  0  0  0  0  0  0  0
    4.8879   -1.8038    3.9005 O   0  0  0  0  0  0  0  0  0  0  0  0
    4.4224   -0.7430    3.0341 C   0  0  2  0  0  0  0  0  0  0  0  0
    2.9298   -0.7050    2.8348 C   0  0  0  0  0  0  0  0  0  0  0  0
    2.7958   -0.6878    1.3046 C   0  0  0  0  0  0  0  0  0  0  0  0
    3.9315   -1.5789    0.7005 C   0  0  2  0  0  0  0  0  0  0  0  0
    4.2619   -1.0030   -0.7424 C   0  0  1  0  0  0  0  0  0  0  0  0
    5.4160   -1.5418   -1.6216 C   0  0  1  0  0  0  0  0  0  0  0  0
    6.1364   -2.6284   -1.0976 O   0  0  0  0  0  0  0  0  0  0  0  0
    7.2126   -3.0812   -1.8942 C   0  0  0  0  0  0  0  0  0  0  0  0
    3.0966   -1.0875   -1.7552 C   0  0  1  0  0  0  0  0  0  0  0  0
    5.0502   -1.3797    1.7939 C   0  0  2  0  0  0  0  0  0  0  0  0
    6.2667   -0.5865    1.3259 C   0  0  0  0  0  0  0  0  0  0  0  0
    1.4344    0.3993   -5.1964 H   0  0  0  0  0  0  0  0  0  0  0  0
    2.7781    1.3428   -4.5512 H   0  0  0  0  0  0  0  0  0  0  0  0
    1.5321    0.6912   -3.5153 H   0  0  0  0  0  0  0  0  0  0  0  0
    4.2291    0.3238   -2.9547 H   0  0  0  0  0  0  0  0  0  0  0  0
    5.4105   -1.8547   -3.8523 H   0  0  0  0  0  0  0  0  0  0  0  0
    3.3093   -3.0967   -3.9470 H   0  0  0  0  0  0  0  0  0  0  0  0
    3.9382   -4.9290   -2.7888 H   0  0  0  0  0  0  0  0  0  0  0  0
    1.7767   -2.6164   -2.4675 H   0  0  0  0  0  0  0  0  0  0  0  0
    1.4951   -3.1735   -0.3583 H   0  0  0  0  0  0  0  0  0  0  0  0
    2.4334   -4.4487   -0.8573 H   0  0  0  0  0  0  0  0  0  0  0  0
    2.5926   -3.0707    1.4008 H   0  0  0  0  0  0  0  0  0  0  0  0
    4.0908   -5.5276   -1.0187 H   0  0  0  0  0  0  0  0  0  0  0  0
    4.9624   -6.7283   -0.0562 H   0  0  0  0  0  0  0  0  0  0  0  0
    3.8239   -3.8818    3.2826 H   0  0  0  0  0  0  0  0  0  0  0  0
    6.3827   -5.7893    4.8238 H   0  0  0  0  0  0  0  0  0  0  0  0
    4.6956   -5.3128    4.9589 H   0  0  0  0  0  0  0  0  0  0  0  0
    5.9745   -4.0931    5.0423 H   0  0  0  0  0  0  0  0  0  0  0  0
    6.4816   -2.6219    2.7887 H   0  0  0  0  0  0  0  0  0  0  0  0
    4.8489    0.2271    3.3017 H   0  0  0  0  0  0  0  0  0  0  0  0
    2.4663   -1.5930    3.2528 H   0  0  0  0  0  0  0  0  0  0  0  0
    2.4652    0.1699    3.3025 H   0  0  0  0  0  0  0  0  0  0  0  0
    1.7999   -0.9898    0.9899 H   0  0  0  0  0  0  0  0  0  0  0  0
    2.9257    0.3487    0.9888 H   0  0  0  0  0  0  0  0  0  0  0  0
    4.4602    0.0613   -0.5921 H   0  0  0  0  0  0  0  0  0  0  0  0
    6.1386   -0.7291   -1.7342 H   0  0  0  0  0  0  0  0  0  0  0  0
    7.7072   -3.8760   -1.3559 H   0  0  0  0  0  0  0  0  0  0  0  0
    7.9632   -2.3162   -2.0810 H   0  0  0  0  0  0  0  0  0  0  0  0
    6.8826   -3.4733   -2.8572 H   0  0  0  0  0  0  0  0  0  0  0  0
    2.2745   -0.4040   -1.5454 H   0  0  0  0  0  0  0  0  0  0  0  0
    6.0023    0.3784    0.8981 H   0  0  0  0  0  0  0  0  0  0  0  0
    6.9015   -1.1175    0.6291 H   0  0  0  0  0  0  0  0  0  0  0  0
    6.8839   -0.3915    2.2021 H   0  0  0  0  0  0  0  0  0  0  0  0
  1  2  1  0
  1 30  1  0
  1 31  1  0
  1 32  1  0
  2  3  1  0
  3 27  1  0
  3  4  1  0
  3 33  1  1
  4 24  1  0
  4  5  1  0
  4 34  1  6
  5  6  1  0
  5  7  1  0
  5 35  1  6
  6 36  1  0
  7 27  1  0
  7  8  1  0
  7 37  1  6
  8  9  1  0
  8 38  1  0
  8 39  1  0
  9 22  1  0
  9 10  1  0
  9 40  1  1
 10 13  1  0
 10 11  1  0
 10 14  1  0
 11 12  1  0
 12 13  1  0
 12 41  1  0
 12 42  1  0
 14 15  1  0
 14 17  1  0
 14 43  1  1
 15 16  1  0
 16 44  1  0
 16 45  1  0
 16 46  1  0
 17 28  1  0
 17 18  1  0
 17 47  1  1
 18 19  1  0
 19 28  1  0
 19 20  1  0
 19 48  1  1
 20 21  1  0
 20 49  1  0
 20 50  1  0
 22 21  1  1
 21 51  1  0
 21 52  1  0
 22 23  1  0
 22 28  1  0
 23 24  1  0
 23 27  1  0
 23 53  1  1
 24 25  1  0
 24 54  1  6
 25 26  1  0
 26 55  1  0
 26 56  1  0
 26 57  1  0
 27 58  1  1
 28 29  1  6
 29 59  1  0
 29 60  1  0
 29 61  1  0
M  END
>  <i_m_ct_stereo_status>  (343) 
1

>  <s_m_source_file>  (343) 
/var/tmp/pbs.5076255.sched01/tmpzqmxgpmu/1265eqpa8lp.sdf

>  <i_m_source_file_index>  (343) 
21

>  <i_lp_mmshare_version>  (343) 
48012

>  <i_f3d_flags>  (343) 
0

>  <s_epik_input>  (343) 
W0NIM11PW0NAQEhdMVtDQEBIXShbQ0BASF0yT1tDSDNdKVtDQEBIXShbT0hdKVtDQEBIXShbQ0gyXTMpW0NASF0xW0NAQEhdMltDQEBdNChbQ0BASF0zQzU2T1tDSDJdTzUpW0NAXTcoW0NIM10pW0NASF0oW0NAQEhdNk9bQ0gzXSlPW0NAQEhdN1tDSDJdW0NIMl00

>  <s_epik_cmdline>  (343) 
J2VwaWtfcHl0aG9uJywgJy1waHQnLCAnMi4wJywgJy1waCcsICc3LjAnLCAnLXRuJywgJzgnLCAnLW1hJywgJzIwMCcsICctaW1hZScsICc8aW5maWxlLm1hZT4nLCAnLW9tYWUnLCAnPG91dGZpbGUubWFlPic=

>  <r_lp_tautomer_probability>  (343) 
1

>  <r_epik_Ionization_Penalty>  (343) 
1.40087e-07

>  <r_epik_Ionization_Penalty_Charging>  (343) 
0

>  <r_epik_Ionization_Penalty_Neutral>  (343) 
1.40087e-07

>  <r_epik_State_Penalty>  (343) 
-0

>  <r_epik_Charging_Adjusted_Penalty>  (343) 
0

>  <i_epik_Tot_Q>  (343) 
0

>  <i_epik_Tot_abs_Q>  (343) 
0

>  <s_epik_Chemistry_Notes>  (343) 
This compound contains an acetal/aminal-like group ( X-CH(R)-Y where X, Y are N, S, or O) that may be acid/base labile, releasing an aldehyde.

>  <s_lp_Force_Field>  (343) 
OPLS3e

>  <r_lp_Energy>  (343) 
89.2137

>  <b_lp_Chiralities_Consistent>  (343) 
1

>  <s_lp_Variant>  (343) 
103:0-1

>  <s_i_glide_gridfile>  (343) 
pfpi4k_grid

>  <i_i_glide_lignum>  (343) 
21

>  <i_i_glide_rotatable_bonds>  (343) 
4

>  <r_i_docking_score>  (343) 
-1.96578

>  <r_i_glide_ligand_efficiency>  (343) 
-0.0677856

>  <r_i_glide_ligand_efficiency_sa>  (343) 
-0.208259

>  <r_i_glide_ligand_efficiency_ln>  (343) 
-0.450114

>  <r_i_glide_gscore>  (343) 
-1.96578

>  <r_i_glide_lipo>  (343) 
-0.389188

>  <r_i_glide_hbond>  (343) 
0

>  <r_i_glide_metal>  (343) 
-0

>  <r_i_glide_rewards>  (343) 
-0.652469

>  <r_i_glide_evdw>  (343) 
8.92856

>  <r_i_glide_ecoul>  (343) 
-9.12175

>  <r_i_glide_erotb>  (343) 
0

>  <r_i_glide_esite>  (343) 
-0.00229195

>  <r_i_glide_emodel>  (343) 
-0.689127

>  <r_i_glide_energy>  (343) 
-0.193189

>  <r_i_glide_einternal>  (343) 
1.40775

>  <r_i_glide_intrahb_reward>  (343) 
-0

>  <i_i_glide_confnum>  (343) 
2

>  <i_i_glide_posenum>  (343) 
9

>  <r_i_glide_eff_state_penalty>  (343) 
0

>  <ligand_id>  (343) 
103

>  <original_smiles>  (343) 
COC1C2C(O)C3CC4C5(OCO5)C(OC)C5OC6CCC4(C(C2OC)C31)C65C

>  <smiles>  (343) 
[H]OC1([H])C2([H])C([H])(OC([H])([H])[H])C3([H])C1([H])C([H])([H])C1([H])C4(OC([H])([H])O4)C([H])(OC([H])([H])[H])C4([H])OC5([H])C([H])([H])C([H])([H])C1(C3([H])C2([H])OC([H])([H])[H])C54C([H])([H])[H]

$$$$
103:0:2
     RDKit          3D

 61 67  0  0  1  0  0  0  0  0999 V2000
   -1.5893    6.2093    1.9772 C   0  0  0  0  0  0  0  0  0  0  0  0
   -1.8300    5.1327    2.8977 O   0  0  0  0  0  0  0  0  0  0  0  0
   -0.8342    4.9658    3.8704 C   0  0  2  0  0  0  0  0  0  0  0  0
    0.3660    4.0792    3.5071 C   0  0  2  0  0  0  0  0  0  0  0  0
   -0.3567    2.7611    3.1388 C   0  0  1  0  0  0  0  0  0  0  0  0
    0.5064    1.6902    2.8786 O   0  0  0  0  0  0  0  0  0  0  0  0
   -1.4329    2.6447    4.2489 C   0  0  1  0  0  0  0  0  0  0  0  0
   -1.4436    1.4339    5.2160 C   0  0  0  0  0  0  0  0  0  0  0  0
   -0.5454    1.4855    6.5002 C   0  0  1  0  0  0  0  0  0  0  0  0
    0.5725    0.4210    6.6502 C   0  0  0  0  0  0  0  0  0  0  0  0
    1.6322    0.4192    5.6603 O   0  0  0  0  0  0  0  0  0  0  0  0
    0.9471   -0.6286    4.9255 C   0  0  0  0  0  0  0  0  0  0  0  0
    0.1362   -0.8539    6.1148 O   0  0  0  0  0  0  0  0  0  0  0  0
    1.0540    0.3073    8.1103 C   0  0  1  0  0  0  0  0  0  0  0  0
    2.1495   -0.5925    8.2562 O   0  0  0  0  0  0  0  0  0  0  0  0
    1.7877   -1.9453    8.5035 C   0  0  0  0  0  0  0  0  0  0  0  0
    1.5226    1.6632    8.6683 C   0  0  2  0  0  0  0  0  0  0  0  0
    0.9354    1.8472    9.9839 O   0  0  0  0  0  0  0  0  0  0  0  0
    0.2578    3.0376    9.5281 C   0  0  2  0  0  0  0  0  0  0  0  0
   -1.2321    2.8702    9.3670 C   0  0  0  0  0  0  0  0  0  0  0  0
   -1.4680    3.3596    7.9302 C   0  0  0  0  0  0  0  0  0  0  0  0
   -0.2317    2.9385    7.0666 C   0  0  2  0  0  0  0  0  0  0  0  0
   -0.1026    3.9926    5.9050 C   0  0  1  0  0  0  0  0  0  0  0  0
    1.0790    3.9980    4.8838 C   0  0  1  0  0  0  0  0  0  0  0  0
    1.9876    2.9197    5.0070 O   0  0  0  0  0  0  0  0  0  0  0  0
    3.1385    3.0082    4.1815 C   0  0  0  0  0  0  0  0  0  0  0  0
   -1.3169    4.0027    4.9649 C   0  0  1  0  0  0  0  0  0  0  0  0
    0.9169    2.9835    8.1524 C   0  0  2  0  0  0  0  0  0  0  0  0
    1.9579    4.1186    7.9789 C   0  0  0  0  0  0  0  0  0  0  0  0
   -2.3859    6.2764    1.2387 H   0  0  0  0  0  0  0  0  0  0  0  0
   -0.6313    6.1429    1.4899 H   0  0  0  0  0  0  0  0  0  0  0  0
   -1.6045    7.1658    2.4860 H   0  0  0  0  0  0  0  0  0  0  0  0
   -0.5318    5.9371    4.2823 H   0  0  0  0  0  0  0  0  0  0  0  0
    1.0169    4.4886    2.7368 H   0  0  0  0  0  0  0  0  0  0  0  0
   -0.8831    2.9245    2.1940 H   0  0  0  0  0  0  0  0  0  0  0  0
    0.9939    1.9021    2.1016 H   0  0  0  0  0  0  0  0  0  0  0  0
   -2.3950    2.6185    3.7308 H   0  0  0  0  0  0  0  0  0  0  0  0
   -2.4624    1.3609    5.5771 H   0  0  0  0  0  0  0  0  0  0  0  0
   -1.3443    0.5209    4.6436 H   0  0  0  0  0  0  0  0  0  0  0  0
   -1.2559    1.0909    7.2395 H   0  0  0  0  0  0  0  0  0  0  0  0
    0.3862   -0.2772    4.0794 H   0  0  0  0  0  0  0  0  0  0  0  0
    1.6028   -1.4495    4.6772 H   0  0  0  0  0  0  0  0  0  0  0  0
    0.2275   -0.0425    8.7402 H   0  0  0  0  0  0  0  0  0  0  0  0
    2.6907   -2.5525    8.5888 H   0  0  0  0  0  0  0  0  0  0  0  0
    1.1920   -2.3606    7.6927 H   0  0  0  0  0  0  0  0  0  0  0  0
    1.2285   -2.0528    9.4352 H   0  0  0  0  0  0  0  0  0  0  0  0
    2.6079    1.7314    8.7170 H   0  0  0  0  0  0  0  0  0  0  0  0
    0.5378    3.9236   10.1070 H   0  0  0  0  0  0  0  0  0  0  0  0
   -1.5166    1.8271    9.4751 H   0  0  0  0  0  0  0  0  0  0  0  0
   -1.8020    3.4474   10.1002 H   0  0  0  0  0  0  0  0  0  0  0  0
   -2.4217    3.0056    7.5320 H   0  0  0  0  0  0  0  0  0  0  0  0
   -1.5424    4.4454    7.9766 H   0  0  0  0  0  0  0  0  0  0  0  0
   -0.0870    4.9784    6.3777 H   0  0  0  0  0  0  0  0  0  0  0  0
    1.6487    4.9182    5.0468 H   0  0  0  0  0  0  0  0  0  0  0  0
    3.7682    2.1318    4.3430 H   0  0  0  0  0  0  0  0  0  0  0  0
    3.7293    3.8946    4.4154 H   0  0  0  0  0  0  0  0  0  0  0  0
    2.8841    3.0319    3.1210 H   0  0  0  0  0  0  0  0  0  0  0  0
   -2.2448    4.3032    5.4463 H   0  0  0  0  0  0  0  0  0  0  0  0
    1.4924    5.0998    7.8957 H   0  0  0  0  0  0  0  0  0  0  0  0
    2.6094    3.9646    7.1260 H   0  0  0  0  0  0  0  0  0  0  0  0
    2.6181    4.1821    8.8461 H   0  0  0  0  0  0  0  0  0  0  0  0
  1  2  1  0
  1 30  1  0
  1 31  1  0
  1 32  1  0
  2  3  1  0
  3 27  1  0
  3  4  1  0
  3 33  1  1
  4 24  1  0
  4  5  1  0
  4 34  1  6
  5  6  1  0
  5  7  1  0
  5 35  1  6
  6 36  1  0
  7 27  1  0
  7  8  1  0
  7 37  1  6
  8  9  1  0
  8 38  1  0
  8 39  1  0
  9 22  1  0
  9 10  1  0
  9 40  1  1
 10 13  1  0
 10 11  1  0
 10 14  1  0
 11 12  1  0
 12 13  1  0
 12 41  1  0
 12 42  1  0
 14 15  1  0
 14 17  1  0
 14 43  1  1
 15 16  1  0
 16 44  1  0
 16 45  1  0
 16 46  1  0
 17 28  1  0
 17 18  1  0
 17 47  1  1
 18 19  1  0
 19 28  1  0
 19 20  1  0
 19 48  1  1
 20 21  1  0
 20 49  1  0
 20 50  1  0
 22 21  1  1
 21 51  1  0
 21 52  1  0
 22 23  1  0
 22 28  1  0
 23 24  1  0
 23 27  1  0
 23 53  1  1
 24 25  1  0
 24 54  1  1
 25 26  1  0
 26 55  1  0
 26 56  1  0
 26 57  1  0
 27 58  1  1
 28 29  1  6
 29 59  1  0
 29 60  1  0
 29 61  1  0
M  END
>  <i_m_ct_stereo_status>  (344) 
1

>  <s_m_source_file>  (344) 
/var/tmp/pbs.5076255.sched01/tmpzqmxgpmu/1265eqpa8lp.sdf

>  <i_m_source_file_index>  (344) 
21

>  <i_lp_mmshare_version>  (344) 
48012

>  <i_f3d_flags>  (344) 
0

>  <s_epik_input>  (344) 
W0NIM11PW0NAQEhdMVtDQEBIXShbQ0BASF0yT1tDSDNdKVtDQEBIXShbT0hdKVtDQEBIXShbQ0gyXTMpW0NASF0xW0NAQEhdMltDQEBdNChbQ0BASF0zQzU2T1tDSDJdTzUpW0NAXTcoW0NIM10pW0NASF0oW0NAQEhdNk9bQ0gzXSlPW0NAQEhdN1tDSDJdW0NIMl00

>  <s_epik_cmdline>  (344) 
J2VwaWtfcHl0aG9uJywgJy1waHQnLCAnMi4wJywgJy1waCcsICc3LjAnLCAnLXRuJywgJzgnLCAnLW1hJywgJzIwMCcsICctaW1hZScsICc8aW5maWxlLm1hZT4nLCAnLW9tYWUnLCAnPG91dGZpbGUubWFlPic=

>  <r_lp_tautomer_probability>  (344) 
1

>  <r_epik_Ionization_Penalty>  (344) 
1.40087e-07

>  <r_epik_Ionization_Penalty_Charging>  (344) 
0

>  <r_epik_Ionization_Penalty_Neutral>  (344) 
1.40087e-07

>  <r_epik_State_Penalty>  (344) 
-0

>  <r_epik_Charging_Adjusted_Penalty>  (344) 
0

>  <i_epik_Tot_Q>  (344) 
0

>  <i_epik_Tot_abs_Q>  (344) 
0

>  <s_epik_Chemistry_Notes>  (344) 
This compound contains an acetal/aminal-like group ( X-CH(R)-Y where X, Y are N, S, or O) that may be acid/base labile, releasing an aldehyde.

>  <s_lp_Force_Field>  (344) 
OPLS3e

>  <r_lp_Energy>  (344) 
89.2137

>  <b_lp_Chiralities_Consistent>  (344) 
1

>  <s_lp_Variant>  (344) 
103:0-1

>  <s_i_glide_gridfile>  (344) 
pfpi4k_grid

>  <i_i_glide_lignum>  (344) 
21

>  <i_i_glide_rotatable_bonds>  (344) 
4

>  <r_i_docking_score>  (344) 
-1.77828

>  <r_i_glide_ligand_efficiency>  (344) 
-0.06132

>  <r_i_glide_ligand_efficiency_sa>  (344) 
-0.188395

>  <r_i_glide_ligand_efficiency_ln>  (344) 
-0.407181

>  <r_i_glide_gscore>  (344) 
-1.77828

>  <r_i_glide_lipo>  (344) 
-0.0041337

>  <r_i_glide_hbond>  (344) 
-0.16

>  <r_i_glide_metal>  (344) 
-0

>  <r_i_glide_rewards>  (344) 
-0.623964

>  <r_i_glide_evdw>  (344) 
-9.78345

>  <r_i_glide_ecoul>  (344) 
-3.2626

>  <r_i_glide_erotb>  (344) 
0

>  <r_i_glide_esite>  (344) 
-0.0116209

>  <r_i_glide_emodel>  (344) 
-13.6753

>  <r_i_glide_energy>  (344) 
-13.046

>  <r_i_glide_einternal>  (344) 
1.2633

>  <r_i_glide_intrahb_reward>  (344) 
-0

>  <i_i_glide_confnum>  (344) 
4

>  <i_i_glide_posenum>  (344) 
11

>  <r_i_glide_eff_state_penalty>  (344) 
0

>  <ligand_id>  (344) 
103

>  <original_smiles>  (344) 
COC1C2C(O)C3CC4C5(OCO5)C(OC)C5OC6CCC4(C(C2OC)C31)C65C

>  <smiles>  (344) 
[H]OC1([H])C2([H])C([H])(OC([H])([H])[H])C3([H])C1([H])C([H])([H])C1([H])C4(OC([H])([H])O4)C([H])(OC([H])([H])[H])C4([H])OC5([H])C([H])([H])C([H])([H])C1(C3([H])C2([H])OC([H])([H])[H])C54C([H])([H])[H]

$$$$
104:0:0
     RDKit          3D

101107  0  0  1  0  0  0  0  0999 V2000
    0.8551   -9.5531    6.4692 C   0  0  0  0  0  0  0  0  0  0  0  0
    2.3224   -9.6758    6.0083 C   0  0  2  0  0  0  0  0  0  0  0  0
    3.2979   -9.3811    7.1814 C   0  0  0  0  0  0  0  0  0  0  0  0
    3.1319   -9.8549    8.3022 O   0  0  0  0  0  0  0  0  0  0  0  0
    4.4738   -8.4238    6.9216 C   0  0  0  0  0  0  0  0  0  0  0  0
    4.0172   -7.2787    6.0351 C   0  0  0  0  0  0  0  0  0  0  0  0
    3.1059   -7.4344    5.0489 C   0  0  0  0  0  0  0  0  0  0  0  0
    2.7235   -8.8969    4.6978 C   0  0  1  0  0  0  0  0  0  0  0  0
    3.9587   -9.6888    4.1319 C   0  0  0  0  0  0  0  0  0  0  0  0
    1.6554   -8.9128    3.5785 C   0  0  0  0  0  0  0  0  0  0  0  0
    2.0675   -8.0129    2.3948 C   0  0  0  0  0  0  0  0  0  0  0  0
    2.3039   -6.5008    2.7455 C   0  0  1  0  0  0  0  0  0  0  0  0
    1.0391   -5.8217    2.1526 C   0  0  0  0  0  0  0  0  0  0  0  0
    2.3633   -6.2492    4.3346 C   0  0  1  0  0  0  0  0  0  0  0  0
    0.9806   -6.0513    5.0559 C   0  0  0  0  0  0  0  0  0  0  0  0
    1.1552   -5.1484    6.3061 C   0  0  2  0  0  0  0  0  0  0  0  0
    1.1903   -6.0127    7.5903 C   0  0  0  0  0  0  0  0  0  0  0  0
   -0.0144   -4.1409    6.4201 C   0  0  0  0  0  0  0  0  0  0  0  0
    0.1999   -3.1348    7.5576 C   0  0  0  0  0  0  0  0  0  0  0  0
    1.5489   -2.3703    7.4695 C   0  0  0  0  0  0  0  0  0  0  0  0
    1.2568   -0.8700    7.2492 C   0  0  0  0  0  0  0  0  0  0  0  0
    2.3150   -2.5240    8.8035 C   0  0  0  0  0  0  0  0  0  0  0  0
    2.4075   -2.8655    6.2640 C   0  0  0  0  0  0  0  0  0  0  0  0
    2.4967   -4.4061    6.0662 C   0  0  2  0  0  0  0  0  0  0  0  0
    2.9547   -4.8673    4.6712 C   0  0  0  0  0  0  0  0  0  0  0  0
    3.5256   -4.0457    3.7587 C   0  0  0  0  0  0  0  0  0  0  0  0
    3.6963   -4.3659    2.2695 C   0  0  1  0  0  0  0  0  0  0  0  0
    4.7894   -3.5308    1.4809 C   0  0  2  0  0  0  0  0  0  0  0  0
    6.1980   -3.8022    2.0639 C   0  0  0  0  0  0  0  0  0  0  0  0
    4.6028   -1.9863    1.6487 C   0  0  0  0  0  0  0  0  0  0  0  0
    3.5109   -1.3588    0.7817 C   0  0  0  0  0  0  0  0  0  0  0  0
    3.8118   -1.5942   -0.7007 C   0  0  1  0  0  0  0  0  0  0  0  0
    5.0097   -0.9163   -1.0459 O   0  0  0  0  0  0  0  0  0  0  0  0
    3.8517   -3.1083   -1.0491 C   0  0  0  0  0  0  0  0  0  0  0  0
    2.3814   -3.5985   -1.0562 C   0  0  0  0  0  0  0  0  0  0  0  0
    4.3792   -3.2449   -2.5038 C   0  0  0  0  0  0  0  0  0  0  0  0
    4.8060   -3.8967   -0.0533 C   0  0  2  0  0  0  0  0  0  0  0  0
    4.8070   -5.4319   -0.2421 C   0  0  0  0  0  0  0  0  0  0  0  0
    3.7005   -6.1940    0.5144 C   0  0  0  0  0  0  0  0  0  0  0  0
    3.6350   -5.9184    2.0452 C   0  0  2  0  0  0  0  0  0  0  0  0
    4.8899   -6.6047    2.6591 C   0  0  0  0  0  0  0  0  0  0  0  0
    0.6734  -10.2260    7.3078 H   0  0  0  0  0  0  0  0  0  0  0  0
    0.1515   -9.8615    5.6955 H   0  0  0  0  0  0  0  0  0  0  0  0
    0.5967   -8.5563    6.8032 H   0  0  0  0  0  0  0  0  0  0  0  0
    2.4314  -10.7427    5.8130 H   0  0  0  0  0  0  0  0  0  0  0  0
    4.7747   -8.0029    7.8833 H   0  0  0  0  0  0  0  0  0  0  0  0
    5.3415   -8.9428    6.5154 H   0  0  0  0  0  0  0  0  0  0  0  0
    4.4126   -6.3204    6.3108 H   0  0  0  0  0  0  0  0  0  0  0  0
    3.9565  -10.7376    4.4310 H   0  0  0  0  0  0  0  0  0  0  0  0
    4.9133   -9.2809    4.4540 H   0  0  0  0  0  0  0  0  0  0  0  0
    4.0108   -9.7391    3.0476 H   0  0  0  0  0  0  0  0  0  0  0  0
    1.4977   -9.9328    3.2238 H   0  0  0  0  0  0  0  0  0  0  0  0
    0.6782   -8.5947    3.9307 H   0  0  0  0  0  0  0  0  0  0  0  0
    2.9293   -8.4315    1.8882 H   0  0  0  0  0  0  0  0  0  0  0  0
    1.2968   -8.1169    1.6338 H   0  0  0  0  0  0  0  0  0  0  0  0
    0.9570   -4.7863    2.4738 H   0  0  0  0  0  0  0  0  0  0  0  0
    0.1201   -6.3191    2.4549 H   0  0  0  0  0  0  0  0  0  0  0  0
    1.0151   -5.8391    1.0710 H   0  0  0  0  0  0  0  0  0  0  0  0
    0.2731   -5.5190    4.4282 H   0  0  0  0  0  0  0  0  0  0  0  0
    0.4708   -6.9775    5.2969 H   0  0  0  0  0  0  0  0  0  0  0  0
    1.4533   -5.4357    8.4732 H   0  0  0  0  0  0  0  0  0  0  0  0
    1.9202   -6.8135    7.5315 H   0  0  0  0  0  0  0  0  0  0  0  0
    0.2200   -6.4702    7.7831 H   0  0  0  0  0  0  0  0  0  0  0  0
   -0.1183   -3.5856    5.4882 H   0  0  0  0  0  0  0  0  0  0  0  0
   -0.9573   -4.6683    6.5582 H   0  0  0  0  0  0  0  0  0  0  0  0
   -0.6234   -2.4281    7.5447 H   0  0  0  0  0  0  0  0  0  0  0  0
    0.1101   -3.6431    8.5190 H   0  0  0  0  0  0  0  0  0  0  0  0
    2.1781   -0.2931    7.1595 H   0  0  0  0  0  0  0  0  0  0  0  0
    0.6783   -0.4421    8.0682 H   0  0  0  0  0  0  0  0  0  0  0  0
    0.6864   -0.7190    6.3310 H   0  0  0  0  0  0  0  0  0  0  0  0
    3.2317   -1.9324    8.8179 H   0  0  0  0  0  0  0  0  0  0  0  0
    2.5916   -3.5613    8.9951 H   0  0  0  0  0  0  0  0  0  0  0  0
    1.7073   -2.1930    9.6476 H   0  0  0  0  0  0  0  0  0  0  0  0
    2.0002   -2.4197    5.3531 H   0  0  0  0  0  0  0  0  0  0  0  0
    3.4177   -2.4656    6.3602 H   0  0  0  0  0  0  0  0  0  0  0  0
    3.2135   -4.7521    6.8041 H   0  0  0  0  0  0  0  0  0  0  0  0
    3.8031   -3.0604    4.0779 H   0  0  0  0  0  0  0  0  0  0  0  0
    2.7841   -3.9503    1.8631 H   0  0  0  0  0  0  0  0  0  0  0  0
    6.9128   -3.0467    1.7404 H   0  0  0  0  0  0  0  0  0  0  0  0
    6.6489   -4.7299    1.7381 H   0  0  0  0  0  0  0  0  0  0  0  0
    6.1729   -3.8021    3.1508 H   0  0  0  0  0  0  0  0  0  0  0  0
    4.4415   -1.6952    2.6818 H   0  0  0  0  0  0  0  0  0  0  0  0
    5.5279   -1.4753    1.3815 H   0  0  0  0  0  0  0  0  0  0  0  0
    2.5359   -1.7583    1.0484 H   0  0  0  0  0  0  0  0  0  0  0  0
    3.4496   -0.2890    0.9815 H   0  0  0  0  0  0  0  0  0  0  0  0
    3.0229   -1.1182   -1.2852 H   0  0  0  0  0  0  0  0  0  0  0  0
    4.8624    0.0162   -0.9288 H   0  0  0  0  0  0  0  0  0  0  0  0
    2.2491   -4.5798   -1.4988 H   0  0  0  0  0  0  0  0  0  0  0  0
    1.7607   -2.9463   -1.6708 H   0  0  0  0  0  0  0  0  0  0  0  0
    1.9461   -3.6243   -0.0610 H   0  0  0  0  0  0  0  0  0  0  0  0
    4.2619   -4.2564   -2.8922 H   0  0  0  0  0  0  0  0  0  0  0  0
    5.4388   -2.9923   -2.5820 H   0  0  0  0  0  0  0  0  0  0  0  0
    3.8383   -2.5823   -3.1809 H   0  0  0  0  0  0  0  0  0  0  0  0
    5.7959   -3.5830   -0.3874 H   0  0  0  0  0  0  0  0  0  0  0  0
    4.7411   -5.6749   -1.2951 H   0  0  0  0  0  0  0  0  0  0  0  0
    5.7811   -5.8282    0.0353 H   0  0  0  0  0  0  0  0  0  0  0  0
    2.7608   -5.9874    0.0257 H   0  0  0  0  0  0  0  0  0  0  0  0
    3.8649   -7.2526    0.3319 H   0  0  0  0  0  0  0  0  0  0  0  0
    5.7715   -6.5491    2.0370 H   0  0  0  0  0  0  0  0  0  0  0  0
    4.7503   -7.6673    2.7767 H   0  0  0  0  0  0  0  0  0  0  0  0
    5.1608   -6.1991    3.6316 H   0  0  0  0  0  0  0  0  0  0  0  0
  1  2  1  0
  1 42  1  0
  1 43  1  0
  1 44  1  0
  2  8  1  0
  2  3  1  0
  2 45  1  6
  3  4  2  0
  3  5  1  0
  5  6  1  0
  5 46  1  0
  5 47  1  0
  6  7  2  0
  6 48  1  0
  7 14  1  0
  7  8  1  0
  8  9  1  6
  8 10  1  0
  9 49  1  0
  9 50  1  0
  9 51  1  0
 10 11  1  0
 10 52  1  0
 10 53  1  0
 11 12  1  0
 11 54  1  0
 11 55  1  0
 12 40  1  0
 12 13  1  6
 12 14  1  0
 13 56  1  0
 13 57  1  0
 13 58  1  0
 14 25  1  0
 14 15  1  1
 15 16  1  0
 15 59  1  0
 15 60  1  0
 16 24  1  0
 16 17  1  1
 16 18  1  0
 17 61  1  0
 17 62  1  0
 17 63  1  0
 18 19  1  0
 18 64  1  0
 18 65  1  0
 19 20  1  0
 19 66  1  0
 19 67  1  0
 20 21  1  0
 20 22  1  0
 20 23  1  0
 21 68  1  0
 21 69  1  0
 21 70  1  0
 22 71  1  0
 22 72  1  0
 22 73  1  0
 23 24  1  0
 23 74  1  0
 23 75  1  0
 24 25  1  0
 24 76  1  1
 25 26  2  0
 26 27  1  0
 26 77  1  0
 27 40  1  0
 27 28  1  0
 27 78  1  6
 28 37  1  0
 28 29  1  1
 28 30  1  0
 29 79  1  0
 29 80  1  0
 29 81  1  0
 30 31  1  0
 30 82  1  0
 30 83  1  0
 31 32  1  0
 31 84  1  0
 31 85  1  0
 32 33  1  0
 32 34  1  0
 32 86  1  6
 33 87  1  0
 34 35  1  0
 34 36  1  0
 34 37  1  0
 35 88  1  0
 35 89  1  0
 35 90  1  0
 36 91  1  0
 36 92  1  0
 36 93  1  0
 37 38  1  0
 37 94  1  6
 38 39  1  0
 38 95  1  0
 38 96  1  0
 39 40  1  0
 39 97  1  0
 39 98  1  0
 40 41  1  1
 41 99  1  0
 41100  1  0
 41101  1  0
M  END
>  <i_m_ct_stereo_status>  (345) 
1

>  <s_m_source_file>  (345) 
/var/tmp/pbs.5076255.sched01/tmpzqmxgpmu/1265eqpa8lp.sdf

>  <i_m_source_file_index>  (345) 
22

>  <i_lp_mmshare_version>  (345) 
48012

>  <i_f3d_flags>  (345) 
0

>  <s_epik_input>  (345) 
W0NIXT0xW0NIMl1DKD1PKVtDQEBIXShbQ0gzXSlbQ0BAXShDMVtDQEBdMjM0KShbQ0gzXSlbQ0gyXVtDSDJdW0NAXTIoW0NIM10pW0NAXTUoW0NIM10pW0NASF0oW0NAQF02KFtDSDNdKVtDQEBIXShbQ0gyXVtDSDJdNSlDKFtDSDNdKShbQ0gzXSlbQ0BIXShbT0hdKVtDSDJdW0NIMl02KVtDSF09QzRbQ0BASF03W0NAQF0oW0NIMl0zKShbQ0gzXSlbQ0gyXVtDSDJdQyhbQ0gzXSkoW0NIM10pW0NIMl03

>  <s_epik_cmdline>  (345) 
J2VwaWtfcHl0aG9uJywgJy1waHQnLCAnMi4wJywgJy1waCcsICc3LjAnLCAnLXRuJywgJzgnLCAnLW1hJywgJzIwMCcsICctaW1hZScsICc8aW5maWxlLm1hZT4nLCAnLW9tYWUnLCAnPG91dGZpbGUubWFlPic=

>  <r_lp_tautomer_probability>  (345) 
1

>  <r_epik_Ionization_Penalty>  (345) 
2.94183e-06

>  <r_epik_Ionization_Penalty_Charging>  (345) 
0

>  <r_epik_Ionization_Penalty_Neutral>  (345) 
2.94183e-06

>  <r_epik_State_Penalty>  (345) 
-0

>  <r_epik_Charging_Adjusted_Penalty>  (345) 
0

>  <i_epik_Tot_Q>  (345) 
0

>  <i_epik_Tot_abs_Q>  (345) 
0

>  <s_lp_Force_Field>  (345) 
OPLS3e

>  <r_lp_Energy>  (345) 
138.212

>  <b_lp_Chiralities_Consistent>  (345) 
1

>  <s_lp_Variant>  (345) 
104:0-1

>  <s_i_glide_gridfile>  (345) 
pfpi4k_grid

>  <i_i_glide_lignum>  (345) 
22

>  <i_i_glide_rotatable_bonds>  (345) 
1

>  <r_i_docking_score>  (345) 
-2.2284

>  <r_i_glide_ligand_efficiency>  (345) 
-0.0543511

>  <r_i_glide_ligand_efficiency_sa>  (345) 
-0.187415

>  <r_i_glide_ligand_efficiency_ln>  (345) 
-0.472762

>  <r_i_glide_gscore>  (345) 
-2.2284

>  <r_i_glide_lipo>  (345) 
-0.190873

>  <r_i_glide_hbond>  (345) 
-0.274922

>  <r_i_glide_metal>  (345) 
-0

>  <r_i_glide_rewards>  (345) 
0

>  <r_i_glide_evdw>  (345) 
-27.4774

>  <r_i_glide_ecoul>  (345) 
-2.36209

>  <r_i_glide_erotb>  (345) 
0

>  <r_i_glide_esite>  (345) 
-0.0344161

>  <r_i_glide_emodel>  (345) 
-33.0973

>  <r_i_glide_energy>  (345) 
-29.8395

>  <r_i_glide_einternal>  (345) 
0.339686

>  <r_i_glide_intrahb_reward>  (345) 
-0

>  <i_i_glide_confnum>  (345) 
1

>  <i_i_glide_posenum>  (345) 
29

>  <r_i_glide_eff_state_penalty>  (345) 
0

>  <ligand_id>  (345) 
104

>  <original_smiles>  (345) 
CC1C(=O)CC=C2C1(C)CCC1(C)C23CC2(C)CCC(C)(C)CC2C3=CC2C3(C)CCC(O)C(C)(C)C3CCC21C

>  <smiles>  (345) 
[H]OC1([H])C([H])([H])C([H])([H])C2(C([H])([H])[H])C3([H])C([H])=C4C5([H])C([H])([H])C(C([H])([H])[H])(C([H])([H])[H])C([H])([H])C([H])([H])C5(C([H])([H])[H])C([H])([H])C45C4=C([H])C([H])([H])C(=O)C([H])(C([H])([H])[H])C4(C([H])([H])[H])C([H])([H])C([H])([H])C5(C([H])([H])[H])C3(C([H])([H])[H])C([H])([H])C([H])([H])C2([H])C1(C([H])([H])[H])C([H])([H])[H]

$$$$
104:0:1
     RDKit          3D

101107  0  0  1  0  0  0  0  0999 V2000
    0.2233   -6.8301    9.0932 C   0  0  0  0  0  0  0  0  0  0  0  0
    0.3862   -7.8788    7.9749 C   0  0  2  0  0  0  0  0  0  0  0  0
    1.3397   -9.0114    8.4214 C   0  0  0  0  0  0  0  0  0  0  0  0
    1.2228   -9.5273    9.5329 O   0  0  0  0  0  0  0  0  0  0  0  0
    2.4504   -9.4522    7.4522 C   0  0  0  0  0  0  0  0  0  0  0  0
    3.0131   -8.2384    6.7246 C   0  0  0  0  0  0  0  0  0  0  0  0
    2.2581   -7.1712    6.3767 C   0  0  0  0  0  0  0  0  0  0  0  0
    0.7233   -7.3449    6.5299 C   0  0  1  0  0  0  0  0  0  0  0  0
    0.1773   -8.4649    5.5675 C   0  0  0  0  0  0  0  0  0  0  0  0
    0.0064   -6.0325    6.1286 C   0  0  0  0  0  0  0  0  0  0  0  0
    0.5031   -5.5060    4.7673 C   0  0  0  0  0  0  0  0  0  0  0  0
    2.0382   -5.1826    4.6735 C   0  0  1  0  0  0  0  0  0  0  0  0
    2.0752   -3.6123    4.6815 C   0  0  0  0  0  0  0  0  0  0  0  0
    2.8395   -5.7739    5.9395 C   0  0  1  0  0  0  0  0  0  0  0  0
    2.8702   -4.8583    7.2144 C   0  0  0  0  0  0  0  0  0  0  0  0
    4.1700   -5.1137    8.0238 C   0  0  2  0  0  0  0  0  0  0  0  0
    3.8751   -6.0253    9.2401 C   0  0  0  0  0  0  0  0  0  0  0  0
    4.7636   -3.7789    8.5369 C   0  0  0  0  0  0  0  0  0  0  0  0
    6.1249   -3.9701    9.2144 C   0  0  0  0  0  0  0  0  0  0  0  0
    7.1610   -4.7073    8.3247 C   0  0  0  0  0  0  0  0  0  0  0  0
    8.3286   -3.7460    8.0319 C   0  0  0  0  0  0  0  0  0  0  0  0
    7.7273   -5.9267    9.0864 C   0  0  0  0  0  0  0  0  0  0  0  0
    6.5430   -5.1329    6.9555 C   0  0  0  0  0  0  0  0  0  0  0  0
    5.1323   -5.7880    7.0126 C   0  0  2  0  0  0  0  0  0  0  0  0
    4.3557   -5.8018    5.6835 C   0  0  0  0  0  0  0  0  0  0  0  0
    4.9223   -5.5529    4.4752 C   0  0  0  0  0  0  0  0  0  0  0  0
    4.1533   -5.2357    3.1880 C   0  0  1  0  0  0  0  0  0  0  0  0
    4.9243   -5.4622    1.8207 C   0  0  2  0  0  0  0  0  0  0  0  0
    5.3236   -6.9564    1.6594 C   0  0  0  0  0  0  0  0  0  0  0  0
    6.2905   -4.7086    1.7774 C   0  0  0  0  0  0  0  0  0  0  0  0
    6.2101   -3.2058    1.5013 C   0  0  0  0  0  0  0  0  0  0  0  0
    5.5540   -2.9350    0.1503 C   0  0  1  0  0  0  0  0  0  0  0  0
    6.3847   -3.4509   -0.8721 O   0  0  0  0  0  0  0  0  0  0  0  0
    4.1084   -3.4953    0.0946 C   0  0  0  0  0  0  0  0  0  0  0  0
    3.2228   -2.5193    0.9065 C   0  0  0  0  0  0  0  0  0  0  0  0
    3.6189   -3.3970   -1.3738 C   0  0  0  0  0  0  0  0  0  0  0  0
    4.0463   -5.0088    0.5861 C   0  0  2  0  0  0  0  0  0  0  0  0
    2.6107   -5.5797    0.6950 C   0  0  0  0  0  0  0  0  0  0  0  0
    1.8952   -5.3161    2.0379 C   0  0  0  0  0  0  0  0  0  0  0  0
    2.6781   -5.7536    3.3079 C   0  0  2  0  0  0  0  0  0  0  0  0
    2.6512   -7.3101    3.3109 C   0  0  0  0  0  0  0  0  0  0  0  0
   -0.1143   -7.3081   10.0146 H   0  0  0  0  0  0  0  0  0  0  0  0
   -0.5238   -6.0751    8.8466 H   0  0  0  0  0  0  0  0  0  0  0  0
    1.1551   -6.3266    9.3295 H   0  0  0  0  0  0  0  0  0  0  0  0
   -0.5845   -8.3619    7.9356 H   0  0  0  0  0  0  0  0  0  0  0  0
    3.2568   -9.9016    8.0356 H   0  0  0  0  0  0  0  0  0  0  0  0
    2.0976  -10.2176    6.7603 H   0  0  0  0  0  0  0  0  0  0  0  0
    4.0757   -8.2609    6.5839 H   0  0  0  0  0  0  0  0  0  0  0  0
   -0.6442   -9.0362    6.0008 H   0  0  0  0  0  0  0  0  0  0  0  0
    0.9312   -9.1969    5.2877 H   0  0  0  0  0  0  0  0  0  0  0  0
   -0.2395   -8.0979    4.6342 H   0  0  0  0  0  0  0  0  0  0  0  0
   -1.0685   -6.1985    6.0738 H   0  0  0  0  0  0  0  0  0  0  0  0
    0.1261   -5.2491    6.8727 H   0  0  0  0  0  0  0  0  0  0  0  0
    0.1991   -6.1888    3.9845 H   0  0  0  0  0  0  0  0  0  0  0  0
   -0.0874   -4.6225    4.5353 H   0  0  0  0  0  0  0  0  0  0  0  0
    3.0730   -3.2008    4.8014 H   0  0  0  0  0  0  0  0  0  0  0  0
    1.4754   -3.2012    5.4914 H   0  0  0  0  0  0  0  0  0  0  0  0
    1.6537   -3.1536    3.7939 H   0  0  0  0  0  0  0  0  0  0  0  0
    2.9119   -3.8068    6.9486 H   0  0  0  0  0  0  0  0  0  0  0  0
    1.9884   -4.9374    7.8417 H   0  0  0  0  0  0  0  0  0  0  0  0
    4.7792   -6.3445    9.7509 H   0  0  0  0  0  0  0  0  0  0  0  0
    3.3549   -6.9364    8.9645 H   0  0  0  0  0  0  0  0  0  0  0  0
    3.2578   -5.5114    9.9772 H   0  0  0  0  0  0  0  0  0  0  0  0
    4.8903   -3.0855    7.7047 H   0  0  0  0  0  0  0  0  0  0  0  0
    4.0710   -3.2941    9.2242 H   0  0  0  0  0  0  0  0  0  0  0  0
    6.5048   -2.9929    9.5098 H   0  0  0  0  0  0  0  0  0  0  0  0
    5.9926   -4.4982   10.1601 H   0  0  0  0  0  0  0  0  0  0  0  0
    9.0727   -4.2218    7.3923 H   0  0  0  0  0  0  0  0  0  0  0  0
    8.8343   -3.4154    8.9399 H   0  0  0  0  0  0  0  0  0  0  0  0
    7.9689   -2.8544    7.5152 H   0  0  0  0  0  0  0  0  0  0  0  0
    8.5240   -6.4234    8.5292 H   0  0  0  0  0  0  0  0  0  0  0  0
    6.9576   -6.6701    9.2878 H   0  0  0  0  0  0  0  0  0  0  0  0
    8.1478   -5.6283   10.0484 H   0  0  0  0  0  0  0  0  0  0  0  0
    6.4929   -4.2504    6.3160 H   0  0  0  0  0  0  0  0  0  0  0  0
    7.2263   -5.8199    6.4531 H   0  0  0  0  0  0  0  0  0  0  0  0
    5.2981   -6.8135    7.3298 H   0  0  0  0  0  0  0  0  0  0  0  0
    5.9915   -5.4813    4.4345 H   0  0  0  0  0  0  0  0  0  0  0  0
    4.1082   -4.1575    3.2308 H   0  0  0  0  0  0  0  0  0  0  0  0
    6.0935   -7.0903    0.9004 H   0  0  0  0  0  0  0  0  0  0  0  0
    4.5141   -7.5901    1.3168 H   0  0  0  0  0  0  0  0  0  0  0  0
    5.7160   -7.3797    2.5841 H   0  0  0  0  0  0  0  0  0  0  0  0
    6.8696   -4.8756    2.6797 H   0  0  0  0  0  0  0  0  0  0  0  0
    6.9207   -5.1324    0.9961 H   0  0  0  0  0  0  0  0  0  0  0  0
    5.6768   -2.6959    2.3025 H   0  0  0  0  0  0  0  0  0  0  0  0
    7.2134   -2.7846    1.4948 H   0  0  0  0  0  0  0  0  0  0  0  0
    5.5364   -1.8573   -0.0151 H   0  0  0  0  0  0  0  0  0  0  0  0
    6.3470   -4.3935   -0.8307 H   0  0  0  0  0  0  0  0  0  0  0  0
    2.1630   -2.6830    0.7184 H   0  0  0  0  0  0  0  0  0  0  0  0
    3.4136   -1.4847    0.6121 H   0  0  0  0  0  0  0  0  0  0  0  0
    3.3989   -2.5751    1.9784 H   0  0  0  0  0  0  0  0  0  0  0  0
    2.5490   -3.5804   -1.4710 H   0  0  0  0  0  0  0  0  0  0  0  0
    4.1305   -4.1154   -2.0173 H   0  0  0  0  0  0  0  0  0  0  0  0
    3.8060   -2.4046   -1.7875 H   0  0  0  0  0  0  0  0  0  0  0  0
    4.4838   -5.5482   -0.2541 H   0  0  0  0  0  0  0  0  0  0  0  0
    1.9924   -5.2059   -0.1173 H   0  0  0  0  0  0  0  0  0  0  0  0
    2.6456   -6.6491    0.5046 H   0  0  0  0  0  0  0  0  0  0  0  0
    1.6376   -4.2684    2.0830 H   0  0  0  0  0  0  0  0  0  0  0  0
    0.9376   -5.8298    1.9924 H   0  0  0  0  0  0  0  0  0  0  0  0
    2.7367   -7.7548    2.3293 H   0  0  0  0  0  0  0  0  0  0  0  0
    1.7113   -7.7026    3.6691 H   0  0  0  0  0  0  0  0  0  0  0  0
    3.4391   -7.7454    3.9228 H   0  0  0  0  0  0  0  0  0  0  0  0
  1  2  1  0
  1 42  1  0
  1 43  1  0
  1 44  1  0
  2  8  1  0
  2  3  1  0
  2 45  1  6
  3  4  2  0
  3  5  1  0
  5  6  1  0
  5 46  1  0
  5 47  1  0
  6  7  2  0
  6 48  1  0
  7 14  1  0
  7  8  1  0
  8  9  1  6
  8 10  1  0
  9 49  1  0
  9 50  1  0
  9 51  1  0
 10 11  1  0
 10 52  1  0
 10 53  1  0
 11 12  1  0
 11 54  1  0
 11 55  1  0
 12 40  1  0
 12 13  1  6
 12 14  1  0
 13 56  1  0
 13 57  1  0
 13 58  1  0
 14 25  1  0
 14 15  1  1
 15 16  1  0
 15 59  1  0
 15 60  1  0
 16 24  1  0
 16 17  1  1
 16 18  1  0
 17 61  1  0
 17 62  1  0
 17 63  1  0
 18 19  1  0
 18 64  1  0
 18 65  1  0
 19 20  1  0
 19 66  1  0
 19 67  1  0
 20 21  1  0
 20 22  1  0
 20 23  1  0
 21 68  1  0
 21 69  1  0
 21 70  1  0
 22 71  1  0
 22 72  1  0
 22 73  1  0
 23 24  1  0
 23 74  1  0
 23 75  1  0
 24 25  1  0
 24 76  1  1
 25 26  2  0
 26 27  1  0
 26 77  1  0
 27 40  1  0
 27 28  1  0
 27 78  1  1
 28 37  1  0
 28 29  1  6
 28 30  1  0
 29 79  1  0
 29 80  1  0
 29 81  1  0
 30 31  1  0
 30 82  1  0
 30 83  1  0
 31 32  1  0
 31 84  1  0
 31 85  1  0
 32 33  1  0
 32 34  1  0
 32 86  1  6
 33 87  1  0
 34 35  1  0
 34 36  1  0
 34 37  1  0
 35 88  1  0
 35 89  1  0
 35 90  1  0
 36 91  1  0
 36 92  1  0
 36 93  1  0
 37 38  1  0
 37 94  1  6
 38 39  1  0
 38 95  1  0
 38 96  1  0
 39 40  1  0
 39 97  1  0
 39 98  1  0
 40 41  1  1
 41 99  1  0
 41100  1  0
 41101  1  0
M  END
>  <i_m_ct_stereo_status>  (346) 
1

>  <s_m_source_file>  (346) 
/var/tmp/pbs.5076255.sched01/tmpzqmxgpmu/1265eqpa8lp.sdf

>  <i_m_source_file_index>  (346) 
22

>  <i_lp_mmshare_version>  (346) 
48012

>  <i_f3d_flags>  (346) 
0

>  <s_epik_input>  (346) 
W0NIXT0xW0NIMl1DKD1PKVtDQEBIXShbQ0gzXSlbQ0BAXShDMVtDQEBdMjM0KShbQ0gzXSlbQ0gyXVtDSDJdW0NAXTIoW0NIM10pW0NAXTUoW0NIM10pW0NASF0oW0NAQF02KFtDSDNdKVtDQEBIXShbQ0gyXVtDSDJdNSlDKFtDSDNdKShbQ0gzXSlbQ0BIXShbT0hdKVtDSDJdW0NIMl02KVtDSF09QzRbQ0BASF03W0NAQF0oW0NIMl0zKShbQ0gzXSlbQ0gyXVtDSDJdQyhbQ0gzXSkoW0NIM10pW0NIMl03

>  <s_epik_cmdline>  (346) 
J2VwaWtfcHl0aG9uJywgJy1waHQnLCAnMi4wJywgJy1waCcsICc3LjAnLCAnLXRuJywgJzgnLCAnLW1hJywgJzIwMCcsICctaW1hZScsICc8aW5maWxlLm1hZT4nLCAnLW9tYWUnLCAnPG91dGZpbGUubWFlPic=

>  <r_lp_tautomer_probability>  (346) 
1

>  <r_epik_Ionization_Penalty>  (346) 
2.94183e-06

>  <r_epik_Ionization_Penalty_Charging>  (346) 
0

>  <r_epik_Ionization_Penalty_Neutral>  (346) 
2.94183e-06

>  <r_epik_State_Penalty>  (346) 
-0

>  <r_epik_Charging_Adjusted_Penalty>  (346) 
0

>  <i_epik_Tot_Q>  (346) 
0

>  <i_epik_Tot_abs_Q>  (346) 
0

>  <s_lp_Force_Field>  (346) 
OPLS3e

>  <r_lp_Energy>  (346) 
138.212

>  <b_lp_Chiralities_Consistent>  (346) 
1

>  <s_lp_Variant>  (346) 
104:0-1

>  <s_i_glide_gridfile>  (346) 
pfpi4k_grid

>  <i_i_glide_lignum>  (346) 
22

>  <i_i_glide_rotatable_bonds>  (346) 
1

>  <r_i_docking_score>  (346) 
-1.92872

>  <r_i_glide_ligand_efficiency>  (346) 
-0.047042

>  <r_i_glide_ligand_efficiency_sa>  (346) 
-0.162211

>  <r_i_glide_ligand_efficiency_ln>  (346) 
-0.409185

>  <r_i_glide_gscore>  (346) 
-1.92872

>  <r_i_glide_lipo>  (346) 
-0.377177

>  <r_i_glide_hbond>  (346) 
0

>  <r_i_glide_metal>  (346) 
-0

>  <r_i_glide_rewards>  (346) 
0

>  <r_i_glide_evdw>  (346) 
-27.8283

>  <r_i_glide_ecoul>  (346) 
-0.671608

>  <r_i_glide_erotb>  (346) 
0

>  <r_i_glide_esite>  (346) 
-0.0593878

>  <r_i_glide_emodel>  (346) 
-31.4356

>  <r_i_glide_energy>  (346) 
-28.4999

>  <r_i_glide_einternal>  (346) 
0.0484976

>  <r_i_glide_intrahb_reward>  (346) 
-0

>  <i_i_glide_confnum>  (346) 
2

>  <i_i_glide_posenum>  (346) 
6

>  <r_i_glide_eff_state_penalty>  (346) 
0

>  <ligand_id>  (346) 
104

>  <original_smiles>  (346) 
CC1C(=O)CC=C2C1(C)CCC1(C)C23CC2(C)CCC(C)(C)CC2C3=CC2C3(C)CCC(O)C(C)(C)C3CCC21C

>  <smiles>  (346) 
[H]OC1([H])C([H])([H])C([H])([H])C2(C([H])([H])[H])C3([H])C([H])=C4C5([H])C([H])([H])C(C([H])([H])[H])(C([H])([H])[H])C([H])([H])C([H])([H])C5(C([H])([H])[H])C([H])([H])C45C4=C([H])C([H])([H])C(=O)C([H])(C([H])([H])[H])C4(C([H])([H])[H])C([H])([H])C([H])([H])C5(C([H])([H])[H])C3(C([H])([H])[H])C([H])([H])C([H])([H])C2([H])C1(C([H])([H])[H])C([H])([H])[H]

$$$$
104:0:2
     RDKit          3D

101107  0  0  1  0  0  0  0  0999 V2000
    0.3781   -6.7727    9.1589 C   0  0  0  0  0  0  0  0  0  0  0  0
    0.4183   -7.7864    7.9974 C   0  0  2  0  0  0  0  0  0  0  0  0
    1.3091   -8.9941    8.3623 C   0  0  0  0  0  0  0  0  0  0  0  0
    1.2036   -9.5455    9.4563 O   0  0  0  0  0  0  0  0  0  0  0  0
    2.3464   -9.4669    7.3297 C   0  0  0  0  0  0  0  0  0  0  0  0
    2.9604   -8.2722    6.6171 C   0  0  0  0  0  0  0  0  0  0  0  0
    2.2655   -7.1472    6.3410 C   0  0  0  0  0  0  0  0  0  0  0  0
    0.7305   -7.2248    6.5570 C   0  0  1  0  0  0  0  0  0  0  0  0
    0.0726   -8.2707    5.5796 C   0  0  0  0  0  0  0  0  0  0  0  0
    0.0876   -5.8545    6.2363 C   0  0  0  0  0  0  0  0  0  0  0  0
    0.5622   -5.3128    4.8708 C   0  0  0  0  0  0  0  0  0  0  0  0
    2.1111   -5.0891    4.7177 C   0  0  1  0  0  0  0  0  0  0  0  0
    2.2587   -3.5276    4.7774 C   0  0  0  0  0  0  0  0  0  0  0  0
    2.9237   -5.7786    5.9255 C   0  0  1  0  0  0  0  0  0  0  0  0
    3.0727   -4.9164    7.2289 C   0  0  0  0  0  0  0  0  0  0  0  0
    4.3851   -5.2901    7.9693 C   0  0  2  0  0  0  0  0  0  0  0  0
    4.0801   -6.2242    9.1660 C   0  0  0  0  0  0  0  0  0  0  0  0
    5.0912   -4.0186    8.5000 C   0  0  0  0  0  0  0  0  0  0  0  0
    6.4637   -4.3280    9.1084 C   0  0  0  0  0  0  0  0  0  0  0  0
    7.4056   -5.1028    8.1479 C   0  0  0  0  0  0  0  0  0  0  0  0
    8.6195   -4.2120    7.8326 C   0  0  0  0  0  0  0  0  0  0  0  0
    7.9196   -6.3834    8.8421 C   0  0  0  0  0  0  0  0  0  0  0  0
    6.7028   -5.4328    6.7946 C   0  0  0  0  0  0  0  0  0  0  0  0
    5.2541   -5.9908    6.8934 C   0  0  2  0  0  0  0  0  0  0  0  0
    4.4218   -5.9013    5.6009 C   0  0  0  0  0  0  0  0  0  0  0  0
    4.9532   -5.6464    4.3784 C   0  0  0  0  0  0  0  0  0  0  0  0
    4.1537   -5.2292    3.1392 C   0  0  1  0  0  0  0  0  0  0  0  0
    4.8493   -5.4564    1.7334 C   0  0  2  0  0  0  0  0  0  0  0  0
    5.1337   -6.9675    1.5048 C   0  0  0  0  0  0  0  0  0  0  0  0
    6.2623   -4.7951    1.6571 C   0  0  0  0  0  0  0  0  0  0  0  0
    6.2713   -3.2825    1.4307 C   0  0  0  0  0  0  0  0  0  0  0  0
    5.5820   -2.9220    0.1168 C   0  0  1  0  0  0  0  0  0  0  0  0
    6.3297   -3.4574   -0.9606 O   0  0  0  0  0  0  0  0  0  0  0  0
    4.0973   -3.3782    0.1100 C   0  0  0  0  0  0  0  0  0  0  0  0
    3.3155   -2.3747    0.9942 C   0  0  0  0  0  0  0  0  0  0  0  0
    3.5510   -3.1891   -1.3304 C   0  0  0  0  0  0  0  0  0  0  0  0
    3.9542   -4.9012    0.5530 C   0  0  2  0  0  0  0  0  0  0  0  0
    2.4895   -5.3818    0.7061 C   0  0  0  0  0  0  0  0  0  0  0  0
    1.8525   -5.1150    2.0872 C   0  0  0  0  0  0  0  0  0  0  0  0
    2.6538   -5.6510    3.3064 C   0  0  2  0  0  0  0  0  0  0  0  0
    2.5188   -7.2015    3.2578 C   0  0  0  0  0  0  0  0  0  0  0  0
    0.0493   -7.2604   10.0784 H   0  0  0  0  0  0  0  0  0  0  0  0
   -0.3250   -5.9608    8.9729 H   0  0  0  0  0  0  0  0  0  0  0  0
    1.3522   -6.3441    9.3674 H   0  0  0  0  0  0  0  0  0  0  0  0
   -0.5840   -8.2006    7.9875 H   0  0  0  0  0  0  0  0  0  0  0  0
    3.1415   -9.9951    7.8579 H   0  0  0  0  0  0  0  0  0  0  0  0
    1.9142  -10.1817    6.6302 H   0  0  0  0  0  0  0  0  0  0  0  0
    4.0124   -8.3659    6.4274 H   0  0  0  0  0  0  0  0  0  0  0  0
   -0.7608   -8.8103    6.0291 H   0  0  0  0  0  0  0  0  0  0  0  0
    0.7643   -9.0381    5.2393 H   0  0  0  0  0  0  0  0  0  0  0  0
   -0.3609   -7.8416    4.6807 H   0  0  0  0  0  0  0  0  0  0  0  0
   -0.9985   -5.9428    6.2360 H   0  0  0  0  0  0  0  0  0  0  0  0
    0.2990   -5.1095    6.9988 H   0  0  0  0  0  0  0  0  0  0  0  0
    0.1799   -5.9447    4.0793 H   0  0  0  0  0  0  0  0  0  0  0  0
    0.0252   -4.3837    4.6928 H   0  0  0  0  0  0  0  0  0  0  0  0
    3.2871   -3.1893    4.8666 H   0  0  0  0  0  0  0  0  0  0  0  0
    1.7243   -3.1064    5.6271 H   0  0  0  0  0  0  0  0  0  0  0  0
    1.8334   -3.0102    3.9249 H   0  0  0  0  0  0  0  0  0  0  0  0
    3.1763   -3.8619    6.9971 H   0  0  0  0  0  0  0  0  0  0  0  0
    2.2153   -4.9593    7.8922 H   0  0  0  0  0  0  0  0  0  0  0  0
    4.9810   -6.6229    9.6241 H   0  0  0  0  0  0  0  0  0  0  0  0
    3.4869   -7.0872    8.8831 H   0  0  0  0  0  0  0  0  0  0  0  0
    3.5321   -5.6976    9.9471 H   0  0  0  0  0  0  0  0  0  0  0  0
    5.2304   -3.3051    7.6873 H   0  0  0  0  0  0  0  0  0  0  0  0
    4.4645   -3.5139    9.2339 H   0  0  0  0  0  0  0  0  0  0  0  0
    6.9234   -3.3905    9.4189 H   0  0  0  0  0  0  0  0  0  0  0  0
    6.3351   -4.8793   10.0409 H   0  0  0  0  0  0  0  0  0  0  0  0
    9.3052   -4.6983    7.1378 H   0  0  0  0  0  0  0  0  0  0  0  0
    9.1868   -3.9499    8.7269 H   0  0  0  0  0  0  0  0  0  0  0  0
    8.2868   -3.2792    7.3735 H   0  0  0  0  0  0  0  0  0  0  0  0
    8.6558   -6.9110    8.2328 H   0  0  0  0  0  0  0  0  0  0  0  0
    7.1095   -7.0802    9.0534 H   0  0  0  0  0  0  0  0  0  0  0  0
    8.4004   -6.1484    9.7936 H   0  0  0  0  0  0  0  0  0  0  0  0
    6.6866   -4.5249    6.1892 H   0  0  0  0  0  0  0  0  0  0  0  0
    7.3148   -6.1441    6.2383 H   0  0  0  0  0  0  0  0  0  0  0  0
    5.3618   -7.0363    7.1676 H   0  0  0  0  0  0  0  0  0  0  0  0
    6.0222   -5.6470    4.2909 H   0  0  0  0  0  0  0  0  0  0  0  0
    4.1855   -4.1529    3.2200 H   0  0  0  0  0  0  0  0  0  0  0  0
    5.8582   -7.1199    0.7079 H   0  0  0  0  0  0  0  0  0  0  0  0
    4.2697   -7.5315    1.1735 H   0  0  0  0  0  0  0  0  0  0  0  0
    5.5356   -7.4528    2.3942 H   0  0  0  0  0  0  0  0  0  0  0  0
    6.8738   -5.0279    2.5244 H   0  0  0  0  0  0  0  0  0  0  0  0
    6.8224   -5.2307    0.8295 H   0  0  0  0  0  0  0  0  0  0  0  0
    5.8083   -2.7669    2.2720 H   0  0  0  0  0  0  0  0  0  0  0  0
    7.3026   -2.9334    1.3994 H   0  0  0  0  0  0  0  0  0  0  0  0
    5.6306   -1.8400   -0.0086 H   0  0  0  0  0  0  0  0  0  0  0  0
    7.2411   -3.2292   -0.8425 H   0  0  0  0  0  0  0  0  0  0  0  0
    2.2383   -2.4592    0.8487 H   0  0  0  0  0  0  0  0  0  0  0  0
    3.5648   -1.3450    0.7274 H   0  0  0  0  0  0  0  0  0  0  0  0
    3.5334   -2.4830    2.0543 H   0  0  0  0  0  0  0  0  0  0  0  0
    2.4675   -3.2948   -1.3841 H   0  0  0  0  0  0  0  0  0  0  0  0
    3.9816   -3.9152   -2.0219 H   0  0  0  0  0  0  0  0  0  0  0  0
    3.7893   -2.1972   -1.7186 H   0  0  0  0  0  0  0  0  0  0  0  0
    4.3233   -5.4341   -0.3236 H   0  0  0  0  0  0  0  0  0  0  0  0
    1.8653   -4.9372   -0.0651 H   0  0  0  0  0  0  0  0  0  0  0  0
    2.4398   -6.4441    0.4809 H   0  0  0  0  0  0  0  0  0  0  0  0
    1.6692   -4.0544    2.1723 H   0  0  0  0  0  0  0  0  0  0  0  0
    0.8604   -5.5596    2.0747 H   0  0  0  0  0  0  0  0  0  0  0  0
    2.5310   -7.6151    2.2591 H   0  0  0  0  0  0  0  0  0  0  0  0
    1.5702   -7.5428    3.6439 H   0  0  0  0  0  0  0  0  0  0  0  0
    3.2997   -7.7122    3.8180 H   0  0  0  0  0  0  0  0  0  0  0  0
  1  2  1  0
  1 42  1  0
  1 43  1  0
  1 44  1  0
  2  8  1  0
  2  3  1  0
  2 45  1  6
  3  4  2  0
  3  5  1  0
  5  6  1  0
  5 46  1  0
  5 47  1  0
  6  7  2  0
  6 48  1  0
  7 14  1  0
  7  8  1  0
  8  9  1  6
  8 10  1  0
  9 49  1  0
  9 50  1  0
  9 51  1  0
 10 11  1  0
 10 52  1  0
 10 53  1  0
 11 12  1  0
 11 54  1  0
 11 55  1  0
 12 40  1  0
 12 13  1  6
 12 14  1  0
 13 56  1  0
 13 57  1  0
 13 58  1  0
 14 25  1  0
 14 15  1  1
 15 16  1  0
 15 59  1  0
 15 60  1  0
 16 24  1  0
 16 17  1  1
 16 18  1  0
 17 61  1  0
 17 62  1  0
 17 63  1  0
 18 19  1  0
 18 64  1  0
 18 65  1  0
 19 20  1  0
 19 66  1  0
 19 67  1  0
 20 21  1  0
 20 22  1  0
 20 23  1  0
 21 68  1  0
 21 69  1  0
 21 70  1  0
 22 71  1  0
 22 72  1  0
 22 73  1  0
 23 24  1  0
 23 74  1  0
 23 75  1  0
 24 25  1  0
 24 76  1  1
 25 26  2  0
 26 27  1  0
 26 77  1  0
 27 40  1  0
 27 28  1  0
 27 78  1  1
 28 37  1  0
 28 29  1  6
 28 30  1  0
 29 79  1  0
 29 80  1  0
 29 81  1  0
 30 31  1  0
 30 82  1  0
 30 83  1  0
 31 32  1  0
 31 84  1  0
 31 85  1  0
 32 33  1  0
 32 34  1  0
 32 86  1  6
 33 87  1  0
 34 35  1  0
 34 36  1  0
 34 37  1  0
 35 88  1  0
 35 89  1  0
 35 90  1  0
 36 91  1  0
 36 92  1  0
 36 93  1  0
 37 38  1  0
 37 94  1  6
 38 39  1  0
 38 95  1  0
 38 96  1  0
 39 40  1  0
 39 97  1  0
 39 98  1  0
 40 41  1  1
 41 99  1  0
 41100  1  0
 41101  1  0
M  END
>  <i_m_ct_stereo_status>  (347) 
1

>  <s_m_source_file>  (347) 
/var/tmp/pbs.5076255.sched01/tmpzqmxgpmu/1265eqpa8lp.sdf

>  <i_m_source_file_index>  (347) 
22

>  <i_lp_mmshare_version>  (347) 
48012

>  <i_f3d_flags>  (347) 
0

>  <s_epik_input>  (347) 
W0NIXT0xW0NIMl1DKD1PKVtDQEBIXShbQ0gzXSlbQ0BAXShDMVtDQEBdMjM0KShbQ0gzXSlbQ0gyXVtDSDJdW0NAXTIoW0NIM10pW0NAXTUoW0NIM10pW0NASF0oW0NAQF02KFtDSDNdKVtDQEBIXShbQ0gyXVtDSDJdNSlDKFtDSDNdKShbQ0gzXSlbQ0BIXShbT0hdKVtDSDJdW0NIMl02KVtDSF09QzRbQ0BASF03W0NAQF0oW0NIMl0zKShbQ0gzXSlbQ0gyXVtDSDJdQyhbQ0gzXSkoW0NIM10pW0NIMl03

>  <s_epik_cmdline>  (347) 
J2VwaWtfcHl0aG9uJywgJy1waHQnLCAnMi4wJywgJy1waCcsICc3LjAnLCAnLXRuJywgJzgnLCAnLW1hJywgJzIwMCcsICctaW1hZScsICc8aW5maWxlLm1hZT4nLCAnLW9tYWUnLCAnPG91dGZpbGUubWFlPic=

>  <r_lp_tautomer_probability>  (347) 
1

>  <r_epik_Ionization_Penalty>  (347) 
2.94183e-06

>  <r_epik_Ionization_Penalty_Charging>  (347) 
0

>  <r_epik_Ionization_Penalty_Neutral>  (347) 
2.94183e-06

>  <r_epik_State_Penalty>  (347) 
-0

>  <r_epik_Charging_Adjusted_Penalty>  (347) 
0

>  <i_epik_Tot_Q>  (347) 
0

>  <i_epik_Tot_abs_Q>  (347) 
0

>  <s_lp_Force_Field>  (347) 
OPLS3e

>  <r_lp_Energy>  (347) 
138.212

>  <b_lp_Chiralities_Consistent>  (347) 
1

>  <s_lp_Variant>  (347) 
104:0-1

>  <s_i_glide_gridfile>  (347) 
pfpi4k_grid

>  <i_i_glide_lignum>  (347) 
22

>  <i_i_glide_rotatable_bonds>  (347) 
1

>  <r_i_docking_score>  (347) 
-1.83625

>  <r_i_glide_ligand_efficiency>  (347) 
-0.0447866

>  <r_i_glide_ligand_efficiency_sa>  (347) 
-0.154434

>  <r_i_glide_ligand_efficiency_ln>  (347) 
-0.389566

>  <r_i_glide_gscore>  (347) 
-1.83625

>  <r_i_glide_lipo>  (347) 
-0.369348

>  <r_i_glide_hbond>  (347) 
0

>  <r_i_glide_metal>  (347) 
-0

>  <r_i_glide_rewards>  (347) 
0

>  <r_i_glide_evdw>  (347) 
-27.5906

>  <r_i_glide_ecoul>  (347) 
-0.182686

>  <r_i_glide_erotb>  (347) 
0

>  <r_i_glide_esite>  (347) 
-0.0599697

>  <r_i_glide_emodel>  (347) 
-30.3883

>  <r_i_glide_energy>  (347) 
-27.7732

>  <r_i_glide_einternal>  (347) 
0.399983

>  <r_i_glide_intrahb_reward>  (347) 
-0

>  <i_i_glide_confnum>  (347) 
2

>  <i_i_glide_posenum>  (347) 
2

>  <r_i_glide_eff_state_penalty>  (347) 
0

>  <ligand_id>  (347) 
104

>  <original_smiles>  (347) 
CC1C(=O)CC=C2C1(C)CCC1(C)C23CC2(C)CCC(C)(C)CC2C3=CC2C3(C)CCC(O)C(C)(C)C3CCC21C

>  <smiles>  (347) 
[H]OC1([H])C([H])([H])C([H])([H])C2(C([H])([H])[H])C3([H])C([H])=C4C5([H])C([H])([H])C(C([H])([H])[H])(C([H])([H])[H])C([H])([H])C([H])([H])C5(C([H])([H])[H])C([H])([H])C45C4=C([H])C([H])([H])C(=O)C([H])(C([H])([H])[H])C4(C([H])([H])[H])C([H])([H])C([H])([H])C5(C([H])([H])[H])C3(C([H])([H])[H])C([H])([H])C([H])([H])C2([H])C1(C([H])([H])[H])C([H])([H])[H]

$$$$
105:0:0
     RDKit          3D

 45 48  0  0  1  0  0  0  0  0999 V2000
    3.4706   -7.4626    1.8792 C   0  0  0  0  0  0  0  0  0  0  0  0
    4.7543   -6.7414    1.4308 C   0  0  0  0  0  0  0  0  0  0  0  0
    4.7414   -5.3534    1.7558 O   0  0  0  0  0  0  0  0  0  0  0  0
    3.8850   -4.5618    0.9932 C   0  0  2  0  0  0  0  0  0  0  0  0
    4.1496   -4.5578   -0.3721 O   0  0  0  0  0  0  0  0  0  0  0  0
    5.4242   -4.1292   -0.8446 C   0  0  1  0  0  0  0  0  0  0  0  0
    5.3087   -4.0602   -2.3889 C   0  0  0  0  0  0  0  0  0  0  0  0
    4.4431   -2.8891   -2.9065 C   0  0  0  0  0  0  0  0  0  0  0  0
    4.7902   -1.5405   -2.2399 C   0  0  1  0  0  0  0  0  0  0  0  0
    3.8778   -0.4216   -2.7274 C   0  0  0  0  0  0  0  0  0  0  0  0
    4.7715   -1.7615   -0.7147 C   0  0  2  0  0  0  0  0  0  0  0  0
    4.6656   -0.6151    0.3131 C   0  0  0  0  0  0  0  0  0  0  0  0
    4.3727   -1.0588    1.8028 C   0  0  0  0  0  0  0  0  0  0  0  0
    4.5594   -2.5773    2.2065 C   0  0  1  0  0  0  0  0  0  0  0  0
    4.2251   -2.7716    3.6919 C   0  0  0  0  0  0  0  0  0  0  0  0
    3.5726   -3.3053    1.5099 O   0  0  0  0  0  0  0  0  0  0  0  0
    5.8903   -3.0451    2.0793 O   0  0  0  0  0  0  0  0  0  0  0  0
    6.5638   -2.5124    0.9930 C   0  0  1  0  0  0  0  0  0  0  0  0
    7.6897   -3.1985    0.4525 O   0  0  0  0  0  0  0  0  0  0  0  0
    7.1933   -2.6539   -0.8761 O   0  0  0  0  0  0  0  0  0  0  0  0
    5.8529   -2.7534   -0.3321 C   0  0  1  0  0  0  0  0  0  0  0  0
    3.5463   -8.5378    1.7097 H   0  0  0  0  0  0  0  0  0  0  0  0
    2.5803   -7.1194    1.3515 H   0  0  0  0  0  0  0  0  0  0  0  0
    3.3052   -7.3088    2.9453 H   0  0  0  0  0  0  0  0  0  0  0  0
    5.5984   -7.1746    1.9662 H   0  0  0  0  0  0  0  0  0  0  0  0
    4.9556   -6.8993    0.3694 H   0  0  0  0  0  0  0  0  0  0  0  0
    2.8986   -5.0117    1.0392 H   0  0  0  0  0  0  0  0  0  0  0  0
    6.1488   -4.8855   -0.5632 H   0  0  0  0  0  0  0  0  0  0  0  0
    6.2972   -3.9348   -2.8293 H   0  0  0  0  0  0  0  0  0  0  0  0
    4.9313   -5.0072   -2.7776 H   0  0  0  0  0  0  0  0  0  0  0  0
    4.5413   -2.8186   -3.9885 H   0  0  0  0  0  0  0  0  0  0  0  0
    3.3901   -3.1152   -2.7175 H   0  0  0  0  0  0  0  0  0  0  0  0
    5.8129   -1.2778   -2.5179 H   0  0  0  0  0  0  0  0  0  0  0  0
    2.8527   -0.5996   -2.4010 H   0  0  0  0  0  0  0  0  0  0  0  0
    3.8756   -0.3575   -3.8178 H   0  0  0  0  0  0  0  0  0  0  0  0
    4.2168    0.5394   -2.3347 H   0  0  0  0  0  0  0  0  0  0  0  0
    3.7820   -2.2123   -0.5876 H   0  0  0  0  0  0  0  0  0  0  0  0
    5.5605    0.0114    0.2732 H   0  0  0  0  0  0  0  0  0  0  0  0
    3.8414    0.0276    0.0344 H   0  0  0  0  0  0  0  0  0  0  0  0
    4.9488   -0.4404    2.5048 H   0  0  0  0  0  0  0  0  0  0  0  0
    3.3212   -0.8365    1.9909 H   0  0  0  0  0  0  0  0  0  0  0  0
    4.3239   -3.8224    3.9702 H   0  0  0  0  0  0  0  0  0  0  0  0
    3.2020   -2.4431    3.8974 H   0  0  0  0  0  0  0  0  0  0  0  0
    4.9219   -2.1821    4.2982 H   0  0  0  0  0  0  0  0  0  0  0  0
    6.8685   -1.4819    1.1708 H   0  0  0  0  0  0  0  0  0  0  0  0
  1  2  1  0
  1 22  1  0
  1 23  1  0
  1 24  1  0
  2  3  1  0
  2 25  1  0
  2 26  1  0
  3  4  1  0
  4 16  1  0
  4  5  1  0
  4 27  1  6
  5  6  1  0
  6 21  1  0
  6  7  1  0
  6 28  1  6
  7  8  1  0
  7 29  1  0
  7 30  1  0
  8  9  1  0
  8 31  1  0
  8 32  1  0
  9 10  1  0
  9 11  1  0
  9 33  1  6
 10 34  1  0
 10 35  1  0
 10 36  1  0
 11 21  1  0
 11 12  1  0
 11 37  1  6
 12 13  1  0
 12 38  1  0
 12 39  1  0
 13 14  1  0
 13 40  1  0
 13 41  1  0
 14 15  1  1
 14 16  1  0
 14 17  1  0
 15 42  1  0
 15 43  1  0
 15 44  1  0
 17 18  1  0
 18 21  1  0
 18 19  1  0
 18 45  1  1
 19 20  1  0
 21 20  1  6
M  END
>  <i_m_ct_stereo_status>  (348) 
1

>  <s_m_source_file>  (348) 
/var/tmp/pbs.5076255.sched01/tmpzqmxgpmu/1265eqpa8lp.sdf

>  <i_m_source_file_index>  (348) 
23

>  <i_lp_mmshare_version>  (348) 
48012

>  <i_f3d_flags>  (348) 
0

>  <s_epik_input>  (348) 
W0NIM11bQ0gyXU9bQ0BIXShPW0NAQEhdMVtDQEBdMjM0KU9bQ0BAXShbQ0gzXSkoT1tDQEhdM09PNClbQ0gyXVtDSDJdW0NASF0yW0NASF0oW0NIM10pW0NIMl1bQ0gyXTE=

>  <s_epik_cmdline>  (348) 
J2VwaWtfcHl0aG9uJywgJy1waHQnLCAnMi4wJywgJy1waCcsICc3LjAnLCAnLXRuJywgJzgnLCAnLW1hJywgJzIwMCcsICctaW1hZScsICc8aW5maWxlLm1hZT4nLCAnLW9tYWUnLCAnPG91dGZpbGUubWFlPic=

>  <r_lp_tautomer_probability>  (348) 
1

>  <r_epik_Ionization_Penalty>  (348) 
3.42051e-15

>  <r_epik_Ionization_Penalty_Charging>  (348) 
0

>  <r_epik_Ionization_Penalty_Neutral>  (348) 
3.42051e-15

>  <r_epik_State_Penalty>  (348) 
-0

>  <r_epik_Charging_Adjusted_Penalty>  (348) 
0

>  <i_epik_Tot_Q>  (348) 
0

>  <i_epik_Tot_abs_Q>  (348) 
0

>  <s_epik_Chemistry_Notes>  (348) 
This compound contains an acetal/aminal-like group ( X-CH(R)-Y where X, Y are N, S, or O) that may be acid/base labile, releasing an aldehyde.

>  <s_lp_Force_Field>  (348) 
OPLS3e

>  <r_lp_Energy>  (348) 
51.447

>  <b_lp_Chiralities_Consistent>  (348) 
1

>  <s_lp_Variant>  (348) 
105:0-1

>  <s_i_glide_gridfile>  (348) 
pfpi4k_grid

>  <i_i_glide_lignum>  (348) 
23

>  <i_i_glide_rotatable_bonds>  (348) 
2

>  <r_i_docking_score>  (348) 
-2.80381

>  <r_i_glide_ligand_efficiency>  (348) 
-0.133515

>  <r_i_glide_ligand_efficiency_sa>  (348) 
-0.368358

>  <r_i_glide_ligand_efficiency_ln>  (348) 
-0.693237

>  <r_i_glide_gscore>  (348) 
-2.80381

>  <r_i_glide_lipo>  (348) 
-0.522286

>  <r_i_glide_hbond>  (348) 
-0.066678

>  <r_i_glide_metal>  (348) 
-0

>  <r_i_glide_rewards>  (348) 
-1.52115

>  <r_i_glide_evdw>  (348) 
-17.9027

>  <r_i_glide_ecoul>  (348) 
-0.0154432

>  <r_i_glide_erotb>  (348) 
0.203753

>  <r_i_glide_esite>  (348) 
0

>  <r_i_glide_emodel>  (348) 
-20.2285

>  <r_i_glide_energy>  (348) 
-17.9181

>  <r_i_glide_einternal>  (348) 
0.799809

>  <r_i_glide_intrahb_reward>  (348) 
-0

>  <i_i_glide_confnum>  (348) 
1

>  <i_i_glide_posenum>  (348) 
1

>  <r_i_glide_eff_state_penalty>  (348) 
0

>  <ligand_id>  (348) 
105

>  <original_smiles>  (348) 
CCOC1OC2CCC(C)C3CCC(C)(O1)OC1OOC213

>  <smiles>  (348) 
[H]C1(OC([H])([H])C([H])([H])[H])OC2([H])C([H])([H])C([H])([H])C([H])(C([H])([H])[H])C3([H])C([H])([H])C([H])([H])C(C([H])([H])[H])(O1)OC1([H])OOC123

$$$$
105:0:1
     RDKit          3D

 45 48  0  0  1  0  0  0  0  0999 V2000
    6.0216   -6.8714    0.9978 C   0  0  0  0  0  0  0  0  0  0  0  0
    5.4651   -6.2700    2.2997 C   0  0  0  0  0  0  0  0  0  0  0  0
    5.2197   -4.8676    2.2182 O   0  0  0  0  0  0  0  0  0  0  0  0
    4.1230   -4.4836    1.4649 C   0  0  2  0  0  0  0  0  0  0  0  0
    4.2804   -4.5982    0.0932 O   0  0  0  0  0  0  0  0  0  0  0  0
    5.3795   -3.9823   -0.5668 C   0  0  1  0  0  0  0  0  0  0  0  0
    5.1900   -4.2363   -2.0655 C   0  0  0  0  0  0  0  0  0  0  0  0
    4.0517   -3.4220   -2.7166 C   0  0  0  0  0  0  0  0  0  0  0  0
    4.1211   -1.9197   -2.3348 C   0  0  1  0  0  0  0  0  0  0  0  0
    2.9060   -1.2095   -2.9261 C   0  0  0  0  0  0  0  0  0  0  0  0
    4.1734   -1.8596   -0.7920 C   0  0  2  0  0  0  0  0  0  0  0  0
    3.8245   -0.6499    0.0670 C   0  0  0  0  0  0  0  0  0  0  0  0
    3.7245   -0.8558    1.6242 C   0  0  0  0  0  0  0  0  0  0  0  0
    4.3252   -2.1937    2.2618 C   0  0  1  0  0  0  0  0  0  0  0  0
    4.1254   -2.1441    3.7859 C   0  0  0  0  0  0  0  0  0  0  0  0
    3.5158   -3.2555    1.8315 O   0  0  0  0  0  0  0  0  0  0  0  0
    5.7008   -2.3373    2.0918 O   0  0  0  0  0  0  0  0  0  0  0  0
    6.1772   -1.8452    0.8584 C   0  0  1  0  0  0  0  0  0  0  0  0
    7.4229   -2.3282    0.3393 O   0  0  0  0  0  0  0  0  0  0  0  0
    6.7391   -2.1726   -1.0109 O   0  0  0  0  0  0  0  0  0  0  0  0
    5.4927   -2.4763   -0.3196 C   0  0  1  0  0  0  0  0  0  0  0  0
    6.2499   -7.9386    1.1079 H   0  0  0  0  0  0  0  0  0  0  0  0
    6.9484   -6.3702    0.7107 H   0  0  0  0  0  0  0  0  0  0  0  0
    5.3235   -6.7804    0.1632 H   0  0  0  0  0  0  0  0  0  0  0  0
    4.5849   -6.8127    2.6411 H   0  0  0  0  0  0  0  0  0  0  0  0
    6.2177   -6.3951    3.0707 H   0  0  0  0  0  0  0  0  0  0  0  0
    3.3121   -5.1741    1.7016 H   0  0  0  0  0  0  0  0  0  0  0  0
    6.3093   -4.4571   -0.2513 H   0  0  0  0  0  0  0  0  0  0  0  0
    6.0988   -4.0108   -2.6107 H   0  0  0  0  0  0  0  0  0  0  0  0
    5.0069   -5.3015   -2.2022 H   0  0  0  0  0  0  0  0  0  0  0  0
    4.0616   -3.5551   -3.7932 H   0  0  0  0  0  0  0  0  0  0  0  0
    3.0889   -3.7997   -2.3798 H   0  0  0  0  0  0  0  0  0  0  0  0
    5.0168   -1.4776   -2.7747 H   0  0  0  0  0  0  0  0  0  0  0  0
    2.0207   -1.6450   -2.4711 H   0  0  0  0  0  0  0  0  0  0  0  0
    2.8252   -1.3601   -4.0029 H   0  0  0  0  0  0  0  0  0  0  0  0
    2.9286   -0.1379   -2.7330 H   0  0  0  0  0  0  0  0  0  0  0  0
    3.3477   -2.5081   -0.5002 H   0  0  0  0  0  0  0  0  0  0  0  0
    4.5291    0.1442   -0.1682 H   0  0  0  0  0  0  0  0  0  0  0  0
    2.8371   -0.3131   -0.2247 H   0  0  0  0  0  0  0  0  0  0  0  0
    4.1659   -0.0031    2.1467 H   0  0  0  0  0  0  0  0  0  0  0  0
    2.6713   -0.8595    1.8777 H   0  0  0  0  0  0  0  0  0  0  0  0
    4.4994   -3.0763    4.2320 H   0  0  0  0  0  0  0  0  0  0  0  0
    3.0665   -2.0459    4.0289 H   0  0  0  0  0  0  0  0  0  0  0  0
    4.6762   -1.3070    4.2082 H   0  0  0  0  0  0  0  0  0  0  0  0
    6.2328   -0.7435    0.8547 H   0  0  0  0  0  0  0  0  0  0  0  0
  1  2  1  0
  1 22  1  0
  1 23  1  0
  1 24  1  0
  2  3  1  0
  2 25  1  0
  2 26  1  0
  3  4  1  0
  4 16  1  0
  4  5  1  0
  4 27  1  1
  5  6  1  0
  6 21  1  0
  6  7  1  0
  6 28  1  1
  7  8  1  0
  7 29  1  0
  7 30  1  0
  8  9  1  0
  8 31  1  0
  8 32  1  0
  9 10  1  0
  9 11  1  0
  9 33  1  6
 10 34  1  0
 10 35  1  0
 10 36  1  0
 11 21  1  0
 11 12  1  0
 11 37  1  1
 12 13  1  0
 12 38  1  0
 12 39  1  0
 13 14  1  0
 13 40  1  0
 13 41  1  0
 14 15  1  1
 14 16  1  0
 14 17  1  0
 15 42  1  0
 15 43  1  0
 15 44  1  0
 17 18  1  0
 18 21  1  0
 18 19  1  0
 18 45  1  1
 19 20  1  0
 21 20  1  6
M  END
>  <i_m_ct_stereo_status>  (349) 
1

>  <s_m_source_file>  (349) 
/var/tmp/pbs.5076255.sched01/tmpzqmxgpmu/1265eqpa8lp.sdf

>  <i_m_source_file_index>  (349) 
23

>  <i_lp_mmshare_version>  (349) 
48012

>  <i_f3d_flags>  (349) 
0

>  <s_epik_input>  (349) 
W0NIM11bQ0gyXU9bQ0BIXShPW0NAQEhdMVtDQEBdMjM0KU9bQ0BAXShbQ0gzXSkoT1tDQEhdM09PNClbQ0gyXVtDSDJdW0NASF0yW0NASF0oW0NIM10pW0NIMl1bQ0gyXTE=

>  <s_epik_cmdline>  (349) 
J2VwaWtfcHl0aG9uJywgJy1waHQnLCAnMi4wJywgJy1waCcsICc3LjAnLCAnLXRuJywgJzgnLCAnLW1hJywgJzIwMCcsICctaW1hZScsICc8aW5maWxlLm1hZT4nLCAnLW9tYWUnLCAnPG91dGZpbGUubWFlPic=

>  <r_lp_tautomer_probability>  (349) 
1

>  <r_epik_Ionization_Penalty>  (349) 
3.42051e-15

>  <r_epik_Ionization_Penalty_Charging>  (349) 
0

>  <r_epik_Ionization_Penalty_Neutral>  (349) 
3.42051e-15

>  <r_epik_State_Penalty>  (349) 
-0

>  <r_epik_Charging_Adjusted_Penalty>  (349) 
0

>  <i_epik_Tot_Q>  (349) 
0

>  <i_epik_Tot_abs_Q>  (349) 
0

>  <s_epik_Chemistry_Notes>  (349) 
This compound contains an acetal/aminal-like group ( X-CH(R)-Y where X, Y are N, S, or O) that may be acid/base labile, releasing an aldehyde.

>  <s_lp_Force_Field>  (349) 
OPLS3e

>  <r_lp_Energy>  (349) 
51.447

>  <b_lp_Chiralities_Consistent>  (349) 
1

>  <s_lp_Variant>  (349) 
105:0-1

>  <s_i_glide_gridfile>  (349) 
pfpi4k_grid

>  <i_i_glide_lignum>  (349) 
23

>  <i_i_glide_rotatable_bonds>  (349) 
2

>  <r_i_docking_score>  (349) 
-2.67784

>  <r_i_glide_ligand_efficiency>  (349) 
-0.127516

>  <r_i_glide_ligand_efficiency_sa>  (349) 
-0.351808

>  <r_i_glide_ligand_efficiency_ln>  (349) 
-0.662092

>  <r_i_glide_gscore>  (349) 
-2.67784

>  <r_i_glide_lipo>  (349) 
-0.138122

>  <r_i_glide_hbond>  (349) 
-0.16

>  <r_i_glide_metal>  (349) 
-0

>  <r_i_glide_rewards>  (349) 
-1.56324

>  <r_i_glide_evdw>  (349) 
-15.2893

>  <r_i_glide_ecoul>  (349) 
-1.70516

>  <r_i_glide_erotb>  (349) 
0.203753

>  <r_i_glide_esite>  (349) 
0

>  <r_i_glide_emodel>  (349) 
-18.9742

>  <r_i_glide_energy>  (349) 
-16.9945

>  <r_i_glide_einternal>  (349) 
0.733953

>  <r_i_glide_intrahb_reward>  (349) 
-0

>  <i_i_glide_confnum>  (349) 
1

>  <i_i_glide_posenum>  (349) 
7

>  <r_i_glide_eff_state_penalty>  (349) 
0

>  <ligand_id>  (349) 
105

>  <original_smiles>  (349) 
CCOC1OC2CCC(C)C3CCC(C)(O1)OC1OOC213

>  <smiles>  (349) 
[H]C1(OC([H])([H])C([H])([H])[H])OC2([H])C([H])([H])C([H])([H])C([H])(C([H])([H])[H])C3([H])C([H])([H])C([H])([H])C(C([H])([H])[H])(O1)OC1([H])OOC123

$$$$
105:0:2
     RDKit          3D

 45 48  0  0  1  0  0  0  0  0999 V2000
    6.4534   -7.0959    2.4349 C   0  0  0  0  0  0  0  0  0  0  0  0
    5.2280   -6.6983    1.6039 C   0  0  0  0  0  0  0  0  0  0  0  0
    4.9958   -5.3136    1.7997 O   0  0  0  0  0  0  0  0  0  0  0  0
    3.9776   -4.7824    1.0143 C   0  0  2  0  0  0  0  0  0  0  0  0
    4.2292   -4.7987   -0.3592 O   0  0  0  0  0  0  0  0  0  0  0  0
    5.3863   -4.1512   -0.8828 C   0  0  1  0  0  0  0  0  0  0  0  0
    5.2515   -4.1988   -2.4332 C   0  0  0  0  0  0  0  0  0  0  0  0
    4.2047   -3.2262   -3.0108 C   0  0  0  0  0  0  0  0  0  0  0  0
    4.3368   -1.7952   -2.4520 C   0  0  1  0  0  0  0  0  0  0  0  0
    3.2216   -0.9077   -2.9984 C   0  0  0  0  0  0  0  0  0  0  0  0
    4.3581   -1.9426   -0.9064 C   0  0  2  0  0  0  0  0  0  0  0  0
    4.0391   -0.7876    0.0524 C   0  0  0  0  0  0  0  0  0  0  0  0
    3.8237   -1.1825    1.5708 C   0  0  0  0  0  0  0  0  0  0  0  0
    4.2835   -2.6227    2.0638 C   0  0  1  0  0  0  0  0  0  0  0  0
    3.9952   -2.7565    3.5675 C   0  0  0  0  0  0  0  0  0  0  0  0
    3.4340   -3.5788    1.4477 O   0  0  0  0  0  0  0  0  0  0  0  0
    5.6813   -2.8449    1.9458 O   0  0  0  0  0  0  0  0  0  0  0  0
    6.2476   -2.2522    0.8355 C   0  0  1  0  0  0  0  0  0  0  0  0
    7.4603   -2.7709    0.3189 O   0  0  0  0  0  0  0  0  0  0  0  0
    6.8716   -2.4162   -1.0368 O   0  0  0  0  0  0  0  0  0  0  0  0
    5.5832   -2.6967   -0.4653 C   0  0  1  0  0  0  0  0  0  0  0  0
    6.6830   -8.1590    2.3197 H   0  0  0  0  0  0  0  0  0  0  0  0
    6.2878   -6.9017    3.4997 H   0  0  0  0  0  0  0  0  0  0  0  0
    7.3363   -6.5278    2.1304 H   0  0  0  0  0  0  0  0  0  0  0  0
    5.4140   -6.9165    0.5486 H   0  0  0  0  0  0  0  0  0  0  0  0
    4.3599   -7.2846    1.9117 H   0  0  0  0  0  0  0  0  0  0  0  0
    3.1325   -5.4605    1.1274 H   0  0  0  0  0  0  0  0  0  0  0  0
    6.2187   -4.7705   -0.5756 H   0  0  0  0  0  0  0  0  0  0  0  0
    6.2117   -3.9676   -2.8905 H   0  0  0  0  0  0  0  0  0  0  0  0
    4.9937   -5.2066   -2.7528 H   0  0  0  0  0  0  0  0  0  0  0  0
    4.2805   -3.2269   -4.0983 H   0  0  0  0  0  0  0  0  0  0  0  0
    3.2096   -3.6186   -2.7862 H   0  0  0  0  0  0  0  0  0  0  0  0
    5.2845   -1.3750   -2.7766 H   0  0  0  0  0  0  0  0  0  0  0  0
    2.2443   -1.2354   -2.6247 H   0  0  0  0  0  0  0  0  0  0  0  0
    3.1769   -0.9399   -4.0877 H   0  0  0  0  0  0  0  0  0  0  0  0
    3.3718    0.1334   -2.7272 H   0  0  0  0  0  0  0  0  0  0  0  0
    3.4636   -2.5542   -0.7370 H   0  0  0  0  0  0  0  0  0  0  0  0
    4.7816    0.0104   -0.0303 H   0  0  0  0  0  0  0  0  0  0  0  0
    3.1026   -0.3519   -0.2540 H   0  0  0  0  0  0  0  0  0  0  0  0
    4.2803   -0.4209    2.2219 H   0  0  0  0  0  0  0  0  0  0  0  0
    2.7477   -1.1254    1.7614 H   0  0  0  0  0  0  0  0  0  0  0  0
    4.2825   -3.7499    3.9163 H   0  0  0  0  0  0  0  0  0  0  0  0
    2.9333   -2.6011    3.7744 H   0  0  0  0  0  0  0  0  0  0  0  0
    4.5791   -2.0111    4.1219 H   0  0  0  0  0  0  0  0  0  0  0  0
    6.3556   -1.1774    0.9335 H   0  0  0  0  0  0  0  0  0  0  0  0
  1  2  1  0
  1 22  1  0
  1 23  1  0
  1 24  1  0
  2  3  1  0
  2 25  1  0
  2 26  1  0
  3  4  1  0
  4 16  1  0
  4  5  1  0
  4 27  1  6
  5  6  1  0
  6 21  1  0
  6  7  1  0
  6 28  1  6
  7  8  1  0
  7 29  1  0
  7 30  1  0
  8  9  1  0
  8 31  1  0
  8 32  1  0
  9 10  1  0
  9 11  1  0
  9 33  1  6
 10 34  1  0
 10 35  1  0
 10 36  1  0
 11 21  1  0
 11 12  1  0
 11 37  1  6
 12 13  1  0
 12 38  1  0
 12 39  1  0
 13 14  1  0
 13 40  1  0
 13 41  1  0
 14 15  1  1
 14 16  1  0
 14 17  1  0
 15 42  1  0
 15 43  1  0
 15 44  1  0
 17 18  1  0
 18 21  1  0
 18 19  1  0
 18 45  1  1
 19 20  1  0
 21 20  1  6
M  END
>  <i_m_ct_stereo_status>  (350) 
1

>  <s_m_source_file>  (350) 
/var/tmp/pbs.5076255.sched01/tmpzqmxgpmu/1265eqpa8lp.sdf

>  <i_m_source_file_index>  (350) 
23

>  <i_lp_mmshare_version>  (350) 
48012

>  <i_f3d_flags>  (350) 
0

>  <s_epik_input>  (350) 
W0NIM11bQ0gyXU9bQ0BIXShPW0NAQEhdMVtDQEBdMjM0KU9bQ0BAXShbQ0gzXSkoT1tDQEhdM09PNClbQ0gyXVtDSDJdW0NASF0yW0NASF0oW0NIM10pW0NIMl1bQ0gyXTE=

>  <s_epik_cmdline>  (350) 
J2VwaWtfcHl0aG9uJywgJy1waHQnLCAnMi4wJywgJy1waCcsICc3LjAnLCAnLXRuJywgJzgnLCAnLW1hJywgJzIwMCcsICctaW1hZScsICc8aW5maWxlLm1hZT4nLCAnLW9tYWUnLCAnPG91dGZpbGUubWFlPic=

>  <r_lp_tautomer_probability>  (350) 
1

>  <r_epik_Ionization_Penalty>  (350) 
3.42051e-15

>  <r_epik_Ionization_Penalty_Charging>  (350) 
0

>  <r_epik_Ionization_Penalty_Neutral>  (350) 
3.42051e-15

>  <r_epik_State_Penalty>  (350) 
-0

>  <r_epik_Charging_Adjusted_Penalty>  (350) 
0

>  <i_epik_Tot_Q>  (350) 
0

>  <i_epik_Tot_abs_Q>  (350) 
0

>  <s_epik_Chemistry_Notes>  (350) 
This compound contains an acetal/aminal-like group ( X-CH(R)-Y where X, Y are N, S, or O) that may be acid/base labile, releasing an aldehyde.

>  <s_lp_Force_Field>  (350) 
OPLS3e

>  <r_lp_Energy>  (350) 
51.447

>  <b_lp_Chiralities_Consistent>  (350) 
1

>  <s_lp_Variant>  (350) 
105:0-1

>  <s_i_glide_gridfile>  (350) 
pfpi4k_grid

>  <i_i_glide_lignum>  (350) 
23

>  <i_i_glide_rotatable_bonds>  (350) 
2

>  <r_i_docking_score>  (350) 
-2.54908

>  <r_i_glide_ligand_efficiency>  (350) 
-0.121385

>  <r_i_glide_ligand_efficiency_sa>  (350) 
-0.334891

>  <r_i_glide_ligand_efficiency_ln>  (350) 
-0.630255

>  <r_i_glide_gscore>  (350) 
-2.54908

>  <r_i_glide_lipo>  (350) 
-0.160321

>  <r_i_glide_hbond>  (350) 
-0.12788

>  <r_i_glide_metal>  (350) 
-0

>  <r_i_glide_rewards>  (350) 
-1.52509

>  <r_i_glide_evdw>  (350) 
-16.8148

>  <r_i_glide_ecoul>  (350) 
-0.658652

>  <r_i_glide_erotb>  (350) 
0.203753

>  <r_i_glide_esite>  (350) 
0

>  <r_i_glide_emodel>  (350) 
-19.9694

>  <r_i_glide_energy>  (350) 
-17.4735

>  <r_i_glide_einternal>  (350) 
0.037013

>  <r_i_glide_intrahb_reward>  (350) 
-0

>  <i_i_glide_confnum>  (350) 
3

>  <i_i_glide_posenum>  (350) 
2

>  <r_i_glide_eff_state_penalty>  (350) 
0

>  <ligand_id>  (350) 
105

>  <original_smiles>  (350) 
CCOC1OC2CCC(C)C3CCC(C)(O1)OC1OOC213

>  <smiles>  (350) 
[H]C1(OC([H])([H])C([H])([H])[H])OC2([H])C([H])([H])C([H])([H])C([H])(C([H])([H])[H])C3([H])C([H])([H])C([H])([H])C(C([H])([H])[H])(O1)OC1([H])OOC123

$$$$
106:0:0
     RDKit          3D

 78 84  0  0  1  0  0  0  0  0999 V2000
   -1.8460    3.0194    3.1205 C   0  0  0  0  0  0  0  0  0  0  0  0
   -0.5144    2.9678    3.9260 C   0  0  0  0  0  0  0  0  0  0  0  0
    0.0212    4.4230    3.8724 C   0  0  0  0  0  0  0  0  0  0  0  0
   -0.8224    2.6044    5.4122 C   0  0  1  0  0  0  0  0  0  0  0  0
   -1.6266    1.4431    5.5221 O   0  0  0  0  0  0  0  0  0  0  0  0
    0.4331    2.3991    6.2802 C   0  0  0  0  0  0  0  0  0  0  0  0
    1.3809    1.3496    5.6796 C   0  0  0  0  0  0  0  0  0  0  0  0
    1.7807    1.6241    4.2034 C   0  0  2  0  0  0  0  0  0  0  0  0
    2.7937    2.8104    4.2052 C   0  0  0  0  0  0  0  0  0  0  0  0
    0.5297    1.9635    3.2879 C   0  0  1  0  0  0  0  0  0  0  0  0
   -0.1475    0.7114    2.6399 C   0  0  0  0  0  0  0  0  0  0  0  0
    0.7904   -0.3863    2.0880 C   0  0  0  0  0  0  0  0  0  0  0  0
    1.7870   -0.8937    3.1343 C   0  0  2  0  0  0  0  0  0  0  0  0
    0.9525   -1.5788    4.2618 C   0  0  0  0  0  0  0  0  0  0  0  0
    2.5452    0.4343    3.5450 C   0  0  2  0  0  0  0  0  0  0  0  0
    3.7329   -0.1875    4.2104 C   0  0  2  0  0  0  0  0  0  0  0  0
    5.1285    0.1489    4.3775 O   0  0  0  0  0  0  0  0  0  0  0  0
    5.3784   -1.2357    3.9340 C   0  0  0  0  0  0  0  0  0  0  0  0
    4.1645   -1.0921    3.0685 C   0  0  2  0  0  0  0  0  0  0  0  0
    4.6648   -0.4884    1.8665 O   0  0  0  0  0  0  0  0  0  0  0  0
    3.9035   -0.8446    0.7304 C   0  0  1  0  0  0  0  0  0  0  0  0
    4.8238   -0.9015   -0.4922 C   0  0  0  0  0  0  0  0  0  0  0  0
    4.1387   -1.3338   -1.7723 C   0  0  0  0  0  0  0  0  0  0  0  0
    4.1068   -0.7026   -2.9502 C   0  0  0  0  0  0  0  0  0  0  0  0
    3.3274   -1.4723   -3.9901 C   0  0  0  0  0  0  0  0  0  0  0  0
    3.1659   -2.8772   -3.3639 C   0  0  1  0  0  0  0  0  0  0  0  0
    4.1889   -3.6898   -3.9123 O   0  0  0  0  0  0  0  0  0  0  0  0
    3.3466   -2.6134   -1.8332 C   0  0  1  0  0  0  0  0  0  0  0  0
    3.8403   -3.7298   -0.8810 C   0  0  1  0  0  0  0  0  0  0  0  0
    5.1494   -4.1630   -1.1996 O   0  0  0  0  0  0  0  0  0  0  0  0
    3.8220   -3.4132    0.6503 C   0  0  0  0  0  0  0  0  0  0  0  0
    3.1190   -2.1128    1.1382 C   0  0  1  0  0  0  0  0  0  0  0  0
    2.9659   -1.9267    2.6841 C   0  0  2  0  0  0  0  0  0  0  0  0
    3.0216   -3.2856    3.4464 C   0  0  0  0  0  0  0  0  0  0  0  0
   -2.5342    3.7510    3.5497 H   0  0  0  0  0  0  0  0  0  0  0  0
   -2.3846    2.0721    3.1319 H   0  0  0  0  0  0  0  0  0  0  0  0
   -1.6716    3.2819    2.0925 H   0  0  0  0  0  0  0  0  0  0  0  0
    0.7708    4.6398    4.6247 H   0  0  0  0  0  0  0  0  0  0  0  0
   -0.7720    5.1504    4.0347 H   0  0  0  0  0  0  0  0  0  0  0  0
    0.4639    4.6519    2.9036 H   0  0  0  0  0  0  0  0  0  0  0  0
   -1.4052    3.4168    5.8483 H   0  0  0  0  0  0  0  0  0  0  0  0
   -2.3147    1.5157    4.8765 H   0  0  0  0  0  0  0  0  0  0  0  0
    0.9520    3.3456    6.4148 H   0  0  0  0  0  0  0  0  0  0  0  0
    0.1392    2.0905    7.2870 H   0  0  0  0  0  0  0  0  0  0  0  0
    2.2739    1.2750    6.2985 H   0  0  0  0  0  0  0  0  0  0  0  0
    0.8756    0.4020    5.7976 H   0  0  0  0  0  0  0  0  0  0  0  0
    2.8565    3.2895    3.2281 H   0  0  0  0  0  0  0  0  0  0  0  0
    3.8008    2.4836    4.4586 H   0  0  0  0  0  0  0  0  0  0  0  0
    2.5543    3.5813    4.9308 H   0  0  0  0  0  0  0  0  0  0  0  0
    0.9292    2.4729    2.4078 H   0  0  0  0  0  0  0  0  0  0  0  0
   -0.8976    0.2811    3.2971 H   0  0  0  0  0  0  0  0  0  0  0  0
   -0.7186    1.0376    1.7741 H   0  0  0  0  0  0  0  0  0  0  0  0
    0.2143   -1.2151    1.7297 H   0  0  0  0  0  0  0  0  0  0  0  0
    1.3016    0.0575    1.2367 H   0  0  0  0  0  0  0  0  0  0  0  0
    1.5097   -1.7480    5.1832 H   0  0  0  0  0  0  0  0  0  0  0  0
    0.5742   -2.5403    3.9231 H   0  0  0  0  0  0  0  0  0  0  0  0
    0.0628   -1.0376    4.5526 H   0  0  0  0  0  0  0  0  0  0  0  0
    2.9122    0.9087    2.6324 H   0  0  0  0  0  0  0  0  0  0  0  0
    3.4061   -0.7439    5.0980 H   0  0  0  0  0  0  0  0  0  0  0  0
    6.2405   -1.3898    3.2643 H   0  0  0  0  0  0  0  0  0  0  0  0
    5.3290   -1.9862    4.7312 H   0  0  0  0  0  0  0  0  0  0  0  0
    3.2289   -0.0213    0.5562 H   0  0  0  0  0  0  0  0  0  0  0  0
    5.2297    0.0861   -0.6324 H   0  0  0  0  0  0  0  0  0  0  0  0
    5.6721   -1.5570   -0.3143 H   0  0  0  0  0  0  0  0  0  0  0  0
    4.5617    0.2492   -3.1712 H   0  0  0  0  0  0  0  0  0  0  0  0
    2.3546   -0.9997   -4.1120 H   0  0  0  0  0  0  0  0  0  0  0  0
    3.8180   -1.4761   -4.9661 H   0  0  0  0  0  0  0  0  0  0  0  0
    2.2007   -3.3375   -3.5895 H   0  0  0  0  0  0  0  0  0  0  0  0
    4.1317   -4.5352   -3.4815 H   0  0  0  0  0  0  0  0  0  0  0  0
    2.3514   -2.3369   -1.4955 H   0  0  0  0  0  0  0  0  0  0  0  0
    3.1822   -4.5804   -1.0442 H   0  0  0  0  0  0  0  0  0  0  0  0
    5.7307   -3.4226   -1.1178 H   0  0  0  0  0  0  0  0  0  0  0  0
    3.3136   -4.2687    1.0900 H   0  0  0  0  0  0  0  0  0  0  0  0
    4.8354   -3.4408    1.0558 H   0  0  0  0  0  0  0  0  0  0  0  0
    2.1393   -2.1130    0.6778 H   0  0  0  0  0  0  0  0  0  0  0  0
    3.9506   -3.8183    3.2365 H   0  0  0  0  0  0  0  0  0  0  0  0
    2.1924   -3.9407    3.1743 H   0  0  0  0  0  0  0  0  0  0  0  0
    3.0284   -3.1573    4.5293 H   0  0  0  0  0  0  0  0  0  0  0  0
  1  2  1  0
  1 35  1  0
  1 36  1  0
  1 37  1  0
  2 10  1  0
  2  3  1  0
  2  4  1  0
  3 38  1  0
  3 39  1  0
  3 40  1  0
  4  5  1  0
  4  6  1  0
  4 41  1  1
  5 42  1  0
  6  7  1  0
  6 43  1  0
  6 44  1  0
  7  8  1  0
  7 45  1  0
  7 46  1  0
  8 15  1  0
  8  9  1  1
  8 10  1  0
  9 47  1  0
  9 48  1  0
  9 49  1  0
 10 11  1  0
 10 50  1  6
 11 12  1  0
 11 51  1  0
 11 52  1  0
 12 13  1  0
 12 53  1  0
 12 54  1  0
 13 33  1  0
 13 14  1  1
 13 15  1  0
 14 55  1  0
 14 56  1  0
 14 57  1  0
 15 16  1  0
 15 58  1  6
 16 19  1  0
 16 17  1  0
 16 59  1  1
 17 18  1  0
 18 19  1  0
 18 60  1  0
 18 61  1  0
 19 33  1  0
 19 20  1  6
 20 21  1  0
 21 32  1  0
 21 22  1  0
 21 62  1  6
 22 23  1  0
 22 63  1  0
 22 64  1  0
 23 28  1  0
 23 24  2  0
 24 25  1  0
 24 65  1  0
 25 26  1  0
 25 66  1  0
 25 67  1  0
 26 27  1  0
 26 28  1  0
 26 68  1  1
 27 69  1  0
 28 29  1  0
 28 70  1  1
 29 30  1  0
 29 31  1  0
 29 71  1  1
 30 72  1  0
 31 32  1  0
 31 73  1  0
 31 74  1  0
 32 33  1  0
 32 75  1  6
 33 34  1  1
 34 76  1  0
 34 77  1  0
 34 78  1  0
M  END
>  <i_m_ct_stereo_status>  (351) 
1

>  <s_m_source_file>  (351) 
/var/tmp/pbs.5076255.sched01/tmpzqmxgpmu/1265eqpa8lp.sdf

>  <i_m_source_file_index>  (351) 
24

>  <i_lp_mmshare_version>  (351) 
48012

>  <i_f3d_flags>  (351) 
0

>  <s_epik_input>  (351) 
W0NIMl0xT1tDQEhdKFtDQF0xMjMpW0NAQEhdNFtDQEBdNShbQ0gzXSlbQ0BIXShDKFtDSDNdKShbQ0gzXSlbQ0BASF0oW09IXSlbQ0gyXVtDSDJdNSlbQ0gyXVtDSDJdW0NAQF00KFtDSDNdKVtDQEBdMyhbQ0gzXSlbQ0BIXTZbQ0BASF0oTzIpW0NIMl1DPTdbQ0BIXShbQ0BASF0oW09IXSlbQ0gyXTYpW0NASF0oW09IXSlbQ0gyXVtDSF03

>  <s_epik_cmdline>  (351) 
J2VwaWtfcHl0aG9uJywgJy1waHQnLCAnMi4wJywgJy1waCcsICc3LjAnLCAnLXRuJywgJzgnLCAnLW1hJywgJzIwMCcsICctaW1hZScsICc8aW5maWxlLm1hZT4nLCAnLW9tYWUnLCAnPG91dGZpbGUubWFlPic=

>  <r_lp_tautomer_probability>  (351) 
1

>  <r_epik_Ionization_Penalty>  (351) 
2.87101e-06

>  <r_epik_Ionization_Penalty_Charging>  (351) 
0

>  <r_epik_Ionization_Penalty_Neutral>  (351) 
2.87101e-06

>  <r_epik_State_Penalty>  (351) 
-0

>  <r_epik_Charging_Adjusted_Penalty>  (351) 
0

>  <i_epik_Tot_Q>  (351) 
0

>  <i_epik_Tot_abs_Q>  (351) 
0

>  <s_lp_Force_Field>  (351) 
OPLS3e

>  <r_lp_Energy>  (351) 
125.737

>  <b_lp_Chiralities_Consistent>  (351) 
1

>  <s_lp_Variant>  (351) 
106:0-1

>  <s_i_glide_gridfile>  (351) 
pfpi4k_grid

>  <i_i_glide_lignum>  (351) 
24

>  <i_i_glide_rotatable_bonds>  (351) 
3

>  <r_i_docking_score>  (351) 
-3.38323

>  <r_i_glide_ligand_efficiency>  (351) 
-0.0995067

>  <r_i_glide_ligand_efficiency_sa>  (351) 
-0.322363

>  <r_i_glide_ligand_efficiency_ln>  (351) 
-0.74745

>  <r_i_glide_gscore>  (351) 
-3.38323

>  <r_i_glide_lipo>  (351) 
-0.448995

>  <r_i_glide_hbond>  (351) 
0

>  <r_i_glide_metal>  (351) 
-0

>  <r_i_glide_rewards>  (351) 
-0.186432

>  <r_i_glide_evdw>  (351) 
-35.079

>  <r_i_glide_ecoul>  (351) 
-6.62568

>  <r_i_glide_erotb>  (351) 
0

>  <r_i_glide_esite>  (351) 
0

>  <r_i_glide_emodel>  (351) 
-48.8371

>  <r_i_glide_energy>  (351) 
-41.7047

>  <r_i_glide_einternal>  (351) 
0.864145

>  <r_i_glide_intrahb_reward>  (351) 
-0

>  <i_i_glide_confnum>  (351) 
2

>  <i_i_glide_posenum>  (351) 
9

>  <r_i_glide_eff_state_penalty>  (351) 
0

>  <ligand_id>  (351) 
106

>  <original_smiles>  (351) 
CC1(C)C(O)CCC2(C)C1CCC1(C)C2C2OCC23OC2CC4=CCC(O)C4C(O)CC2C13C

>  <smiles>  (351) 
[H]OC1([H])C([H])([H])C([H])=C2C([H])([H])C3([H])OC45C([H])([H])OC4([H])C4([H])C6(C([H])([H])[H])C([H])([H])C([H])([H])C([H])(O[H])C(C([H])([H])[H])(C([H])([H])[H])C6([H])C([H])([H])C([H])([H])C4(C([H])([H])[H])C5(C([H])([H])[H])C3([H])C([H])([H])C([H])(O[H])C21[H]

$$$$
106:0:1
     RDKit          3D

 78 84  0  0  1  0  0  0  0  0999 V2000
   -1.6403    3.3327    3.1739 C   0  0  0  0  0  0  0  0  0  0  0  0
   -0.3580    3.1510    4.0425 C   0  0  0  0  0  0  0  0  0  0  0  0
    0.2813    4.5704    4.0616 C   0  0  0  0  0  0  0  0  0  0  0  0
   -0.7951    2.7797    5.4839 C   0  0  1  0  0  0  0  0  0  0  0  0
   -1.6829    1.6805    5.4907 O   0  0  0  0  0  0  0  0  0  0  0  0
    0.3733    2.4545    6.4249 C   0  0  0  0  0  0  0  0  0  0  0  0
    1.2759    1.3509    5.8626 C   0  0  0  0  0  0  0  0  0  0  0  0
    1.7875    1.6280    4.4258 C   0  0  2  0  0  0  0  0  0  0  0  0
    2.8991    2.7199    4.5315 C   0  0  0  0  0  0  0  0  0  0  0  0
    0.6528    2.0960    3.4265 C   0  0  1  0  0  0  0  0  0  0  0  0
   -0.0742    0.9245    2.6907 C   0  0  0  0  0  0  0  0  0  0  0  0
    0.8256   -0.2161    2.1600 C   0  0  0  0  0  0  0  0  0  0  0  0
    1.7032   -0.8290    3.2576 C   0  0  2  0  0  0  0  0  0  0  0  0
    0.7280   -1.4883    4.2965 C   0  0  0  0  0  0  0  0  0  0  0  0
    2.5356    0.4159    3.7849 C   0  0  2  0  0  0  0  0  0  0  0  0
    3.6220   -0.3365    4.4835 C   0  0  2  0  0  0  0  0  0  0  0  0
    5.0021   -0.1202    4.7563 O   0  0  0  0  0  0  0  0  0  0  0  0
    5.1827   -1.4866    4.3228 C   0  0  0  0  0  0  0  0  0  0  0  0
    4.0496   -1.2641    3.3548 C   0  0  2  0  0  0  0  0  0  0  0  0
    4.6865   -0.6413    2.2234 O   0  0  0  0  0  0  0  0  0  0  0  0
    3.9821   -0.8869    1.0177 C   0  0  1  0  0  0  0  0  0  0  0  0
    4.9753   -0.9870   -0.1455 C   0  0  0  0  0  0  0  0  0  0  0  0
    4.3285   -1.3255   -1.4749 C   0  0  0  0  0  0  0  0  0  0  0  0
    4.4303   -0.6608   -2.6237 C   0  0  0  0  0  0  0  0  0  0  0  0
    3.6775   -1.3228   -3.7469 C   0  0  0  0  0  0  0  0  0  0  0  0
    3.3820   -2.7389   -3.1853 C   0  0  1  0  0  0  0  0  0  0  0  0
    4.4219   -3.5337   -3.7242 O   0  0  0  0  0  0  0  0  0  0  0  0
    3.4805   -2.5505   -1.6302 C   0  0  1  0  0  0  0  0  0  0  0  0
    3.8184   -3.7303   -0.6983 C   0  0  1  0  0  0  0  0  0  0  0  0
    5.1203   -4.2059   -0.9635 O   0  0  0  0  0  0  0  0  0  0  0  0
    3.7064   -3.4469    0.8349 C   0  0  0  0  0  0  0  0  0  0  0  0
    3.0726   -2.0972    1.3120 C   0  0  1  0  0  0  0  0  0  0  0  0
    2.8206   -1.9463    2.8510 C   0  0  2  0  0  0  0  0  0  0  0  0
    2.7045   -3.3250    3.5745 C   0  0  0  0  0  0  0  0  0  0  0  0
   -2.2866    4.1146    3.5665 H   0  0  0  0  0  0  0  0  0  0  0  0
   -2.2465    2.4303    3.1023 H   0  0  0  0  0  0  0  0  0  0  0  0
   -1.4043    3.6114    2.1477 H   0  0  0  0  0  0  0  0  0  0  0  0
    1.0018    4.7079    4.8661 H   0  0  0  0  0  0  0  0  0  0  0  0
   -0.4613    5.3525    4.2048 H   0  0  0  0  0  0  0  0  0  0  0  0
    0.7995    4.7945    3.1246 H   0  0  0  0  0  0  0  0  0  0  0  0
   -1.3447    3.6233    5.9028 H   0  0  0  0  0  0  0  0  0  0  0  0
   -2.3237    1.8263    4.8136 H   0  0  0  0  0  0  0  0  0  0  0  0
    0.9521    3.3500    6.6296 H   0  0  0  0  0  0  0  0  0  0  0  0
   -0.0152    2.1463    7.3936 H   0  0  0  0  0  0  0  0  0  0  0  0
    2.1194    1.1954    6.5342 H   0  0  0  0  0  0  0  0  0  0  0  0
    0.7016    0.4412    5.9144 H   0  0  0  0  0  0  0  0  0  0  0  0
    3.0766    3.2234    3.5772 H   0  0  0  0  0  0  0  0  0  0  0  0
    3.8583    2.3105    4.8477 H   0  0  0  0  0  0  0  0  0  0  0  0
    2.6743    3.4952    5.2649 H   0  0  0  0  0  0  0  0  0  0  0  0
    1.1447    2.6030    2.6032 H   0  0  0  0  0  0  0  0  0  0  0  0
   -0.8903    0.5404    3.2819 H   0  0  0  0  0  0  0  0  0  0  0  0
   -0.5586    1.3320    1.8000 H   0  0  0  0  0  0  0  0  0  0  0  0
    0.2676   -1.0153    1.7212 H   0  0  0  0  0  0  0  0  0  0  0  0
    1.4088    0.1996    1.3458 H   0  0  0  0  0  0  0  0  0  0  0  0
    1.2017   -1.7310    5.2485 H   0  0  0  0  0  0  0  0  0  0  0  0
    0.2948   -2.4060    3.8996 H   0  0  0  0  0  0  0  0  0  0  0  0
   -0.1364   -0.8835    4.5526 H   0  0  0  0  0  0  0  0  0  0  0  0
    2.9882    0.8755    2.9052 H   0  0  0  0  0  0  0  0  0  0  0  0
    3.1832   -0.8840    5.3334 H   0  0  0  0  0  0  0  0  0  0  0  0
    6.0794   -1.6904    3.7438 H   0  0  0  0  0  0  0  0  0  0  0  0
    4.9887   -2.2360    5.0952 H   0  0  0  0  0  0  0  0  0  0  0  0
    3.3770   -0.0007    0.8441 H   0  0  0  0  0  0  0  0  0  0  0  0
    5.4802   -0.0273   -0.2234 H   0  0  0  0  0  0  0  0  0  0  0  0
    5.7574   -1.7062    0.0813 H   0  0  0  0  0  0  0  0  0  0  0  0
    4.9596    0.2680   -2.7350 H   0  0  0  0  0  0  0  0  0  0  0  0
    2.7514   -0.7723   -3.9196 H   0  0  0  0  0  0  0  0  0  0  0  0
    4.2445   -1.3368   -4.6740 H   0  0  0  0  0  0  0  0  0  0  0  0
    2.4209   -3.1293   -3.5111 H   0  0  0  0  0  0  0  0  0  0  0  0
    5.1074   -3.5824   -3.0761 H   0  0  0  0  0  0  0  0  0  0  0  0
    2.4746   -2.2524   -1.3513 H   0  0  0  0  0  0  0  0  0  0  0  0
    3.1077   -4.5236   -0.9371 H   0  0  0  0  0  0  0  0  0  0  0  0
    5.7372   -3.5463   -0.7103 H   0  0  0  0  0  0  0  0  0  0  0  0
    3.0975   -4.2674    1.2184 H   0  0  0  0  0  0  0  0  0  0  0  0
    4.6767   -3.5560    1.3169 H   0  0  0  0  0  0  0  0  0  0  0  0
    2.1234   -2.0066    0.8027 H   0  0  0  0  0  0  0  0  0  0  0  0
    3.5960   -3.9363    3.4150 H   0  0  0  0  0  0  0  0  0  0  0  0
    1.8467   -3.9070    3.2269 H   0  0  0  0  0  0  0  0  0  0  0  0
    2.6398   -3.2383    4.6586 H   0  0  0  0  0  0  0  0  0  0  0  0
  1  2  1  0
  1 35  1  0
  1 36  1  0
  1 37  1  0
  2 10  1  0
  2  3  1  0
  2  4  1  0
  3 38  1  0
  3 39  1  0
  3 40  1  0
  4  5  1  0
  4  6  1  0
  4 41  1  1
  5 42  1  0
  6  7  1  0
  6 43  1  0
  6 44  1  0
  7  8  1  0
  7 45  1  0
  7 46  1  0
  8 15  1  0
  8  9  1  1
  8 10  1  0
  9 47  1  0
  9 48  1  0
  9 49  1  0
 10 11  1  0
 10 50  1  6
 11 12  1  0
 11 51  1  0
 11 52  1  0
 12 13  1  0
 12 53  1  0
 12 54  1  0
 13 33  1  0
 13 14  1  1
 13 15  1  0
 14 55  1  0
 14 56  1  0
 14 57  1  0
 15 16  1  0
 15 58  1  6
 16 19  1  0
 16 17  1  0
 16 59  1  1
 17 18  1  0
 18 19  1  0
 18 60  1  0
 18 61  1  0
 19 33  1  0
 19 20  1  6
 20 21  1  0
 21 32  1  0
 21 22  1  0
 21 62  1  6
 22 23  1  0
 22 63  1  0
 22 64  1  0
 23 28  1  0
 23 24  2  0
 24 25  1  0
 24 65  1  0
 25 26  1  0
 25 66  1  0
 25 67  1  0
 26 27  1  0
 26 28  1  0
 26 68  1  1
 27 69  1  0
 28 29  1  0
 28 70  1  1
 29 30  1  0
 29 31  1  0
 29 71  1  6
 30 72  1  0
 31 32  1  0
 31 73  1  0
 31 74  1  0
 32 33  1  0
 32 75  1  6
 33 34  1  1
 34 76  1  0
 34 77  1  0
 34 78  1  0
M  END
>  <i_m_ct_stereo_status>  (352) 
1

>  <s_m_source_file>  (352) 
/var/tmp/pbs.5076255.sched01/tmpzqmxgpmu/1265eqpa8lp.sdf

>  <i_m_source_file_index>  (352) 
24

>  <i_lp_mmshare_version>  (352) 
48012

>  <i_f3d_flags>  (352) 
0

>  <s_epik_input>  (352) 
W0NIMl0xT1tDQEhdKFtDQF0xMjMpW0NAQEhdNFtDQEBdNShbQ0gzXSlbQ0BIXShDKFtDSDNdKShbQ0gzXSlbQ0BASF0oW09IXSlbQ0gyXVtDSDJdNSlbQ0gyXVtDSDJdW0NAQF00KFtDSDNdKVtDQEBdMyhbQ0gzXSlbQ0BIXTZbQ0BASF0oTzIpW0NIMl1DPTdbQ0BIXShbQ0BASF0oW09IXSlbQ0gyXTYpW0NASF0oW09IXSlbQ0gyXVtDSF03

>  <s_epik_cmdline>  (352) 
J2VwaWtfcHl0aG9uJywgJy1waHQnLCAnMi4wJywgJy1waCcsICc3LjAnLCAnLXRuJywgJzgnLCAnLW1hJywgJzIwMCcsICctaW1hZScsICc8aW5maWxlLm1hZT4nLCAnLW9tYWUnLCAnPG91dGZpbGUubWFlPic=

>  <r_lp_tautomer_probability>  (352) 
1

>  <r_epik_Ionization_Penalty>  (352) 
2.87101e-06

>  <r_epik_Ionization_Penalty_Charging>  (352) 
0

>  <r_epik_Ionization_Penalty_Neutral>  (352) 
2.87101e-06

>  <r_epik_State_Penalty>  (352) 
-0

>  <r_epik_Charging_Adjusted_Penalty>  (352) 
0

>  <i_epik_Tot_Q>  (352) 
0

>  <i_epik_Tot_abs_Q>  (352) 
0

>  <s_lp_Force_Field>  (352) 
OPLS3e

>  <r_lp_Energy>  (352) 
125.737

>  <b_lp_Chiralities_Consistent>  (352) 
1

>  <s_lp_Variant>  (352) 
106:0-1

>  <s_i_glide_gridfile>  (352) 
pfpi4k_grid

>  <i_i_glide_lignum>  (352) 
24

>  <i_i_glide_rotatable_bonds>  (352) 
3

>  <r_i_docking_score>  (352) 
-3.37891

>  <r_i_glide_ligand_efficiency>  (352) 
-0.0993798

>  <r_i_glide_ligand_efficiency_sa>  (352) 
-0.321952

>  <r_i_glide_ligand_efficiency_ln>  (352) 
-0.746497

>  <r_i_glide_gscore>  (352) 
-3.37891

>  <r_i_glide_lipo>  (352) 
-0.36446

>  <r_i_glide_hbond>  (352) 
0

>  <r_i_glide_metal>  (352) 
-0

>  <r_i_glide_rewards>  (352) 
-0.686432

>  <r_i_glide_evdw>  (352) 
-36.0171

>  <r_i_glide_ecoul>  (352) 
-3.51444

>  <r_i_glide_erotb>  (352) 
0

>  <r_i_glide_esite>  (352) 
0

>  <r_i_glide_emodel>  (352) 
-50.7924

>  <r_i_glide_energy>  (352) 
-39.5316

>  <r_i_glide_einternal>  (352) 
0.940978

>  <r_i_glide_intrahb_reward>  (352) 
-0.5

>  <i_i_glide_confnum>  (352) 
1

>  <i_i_glide_posenum>  (352) 
2

>  <r_i_glide_eff_state_penalty>  (352) 
0

>  <ligand_id>  (352) 
106

>  <original_smiles>  (352) 
CC1(C)C(O)CCC2(C)C1CCC1(C)C2C2OCC23OC2CC4=CCC(O)C4C(O)CC2C13C

>  <smiles>  (352) 
[H]OC1([H])C([H])([H])C([H])=C2C([H])([H])C3([H])OC45C([H])([H])OC4([H])C4([H])C6(C([H])([H])[H])C([H])([H])C([H])([H])C([H])(O[H])C(C([H])([H])[H])(C([H])([H])[H])C6([H])C([H])([H])C([H])([H])C4(C([H])([H])[H])C5(C([H])([H])[H])C3([H])C([H])([H])C([H])(O[H])C21[H]

$$$$
106:0:2
     RDKit          3D

 78 84  0  0  1  0  0  0  0  0999 V2000
   -0.2629   -7.9199    2.1091 C   0  0  0  0  0  0  0  0  0  0  0  0
    0.1387   -7.8359    3.6080 C   0  0  0  0  0  0  0  0  0  0  0  0
   -1.1565   -8.2351    4.3552 C   0  0  0  0  0  0  0  0  0  0  0  0
    1.2358   -8.9037    3.9089 C   0  0  1  0  0  0  0  0  0  0  0  0
    2.3151   -8.8197    2.9972 O   0  0  0  0  0  0  0  0  0  0  0  0
    1.8080   -8.8241    5.3327 C   0  0  0  0  0  0  0  0  0  0  0  0
    2.3386   -7.4226    5.6709 C   0  0  0  0  0  0  0  0  0  0  0  0
    1.3149   -6.2775    5.4354 C   0  0  2  0  0  0  0  0  0  0  0  0
    0.2564   -6.3633    6.5780 C   0  0  0  0  0  0  0  0  0  0  0  0
    0.6054   -6.3806    4.0209 C   0  0  1  0  0  0  0  0  0  0  0  0
    1.3620   -5.6437    2.8684 C   0  0  0  0  0  0  0  0  0  0  0  0
    1.9567   -4.2483    3.1798 C   0  0  0  0  0  0  0  0  0  0  0  0
    2.8655   -4.2724    4.4272 C   0  0  2  0  0  0  0  0  0  0  0  0
    4.0877   -5.1679    4.0370 C   0  0  0  0  0  0  0  0  0  0  0  0
    1.9273   -4.8456    5.5653 C   0  0  2  0  0  0  0  0  0  0  0  0
    2.7459   -4.4273    6.7553 C   0  0  2  0  0  0  0  0  0  0  0  0
    2.4810   -4.0660    8.1267 O   0  0  0  0  0  0  0  0  0  0  0  0
    3.4237   -2.9620    7.8816 C   0  0  0  0  0  0  0  0  0  0  0  0
    2.8888   -2.9380    6.4568 C   0  0  2  0  0  0  0  0  0  0  0  0
    1.6979   -2.1479    6.4961 O   0  0  0  0  0  0  0  0  0  0  0  0
    1.4304   -1.5324    5.2462 C   0  0  1  0  0  0  0  0  0  0  0  0
    0.7579   -0.1740    5.4982 C   0  0  0  0  0  0  0  0  0  0  0  0
    0.5013    0.6226    4.2383 C   0  0  0  0  0  0  0  0  0  0  0  0
   -0.6474    1.1730    3.8421 C   0  0  0  0  0  0  0  0  0  0  0  0
   -0.4906    1.9209    2.5431 C   0  0  0  0  0  0  0  0  0  0  0  0
    1.0466    2.0528    2.3919 C   0  0  1  0  0  0  0  0  0  0  0  0
    1.4112    3.3293    2.8777 O   0  0  0  0  0  0  0  0  0  0  0  0
    1.6061    0.8891    3.2535 C   0  0  1  0  0  0  0  0  0  0  0  0
    3.0319    1.0043    3.8468 C   0  0  1  0  0  0  0  0  0  0  0  0
    3.1457    2.1087    4.7213 O   0  0  0  0  0  0  0  0  0  0  0  0
    3.5773   -0.2596    4.5716 C   0  0  0  0  0  0  0  0  0  0  0  0
    2.7615   -1.5853    4.4577 C   0  0  1  0  0  0  0  0  0  0  0  0
    3.4385   -2.8689    5.0437 C   0  0  2  0  0  0  0  0  0  0  0  0
    4.9908   -2.7480    5.1138 C   0  0  0  0  0  0  0  0  0  0  0  0
   -0.6344   -8.9159    1.8621 H   0  0  0  0  0  0  0  0  0  0  0  0
    0.5713   -7.7401    1.4299 H   0  0  0  0  0  0  0  0  0  0  0  0
   -1.0525   -7.2100    1.8623 H   0  0  0  0  0  0  0  0  0  0  0  0
   -0.9772   -8.5490    5.3795 H   0  0  0  0  0  0  0  0  0  0  0  0
   -1.6377   -9.0886    3.8778 H   0  0  0  0  0  0  0  0  0  0  0  0
   -1.8888   -7.4255    4.3714 H   0  0  0  0  0  0  0  0  0  0  0  0
    0.8082   -9.8978    3.7764 H   0  0  0  0  0  0  0  0  0  0  0  0
    2.0406   -9.1958    2.1760 H   0  0  0  0  0  0  0  0  0  0  0  0
    1.0580   -9.1369    6.0532 H   0  0  0  0  0  0  0  0  0  0  0  0
    2.6143   -9.5524    5.4423 H   0  0  0  0  0  0  0  0  0  0  0  0
    2.6768   -7.4076    6.7056 H   0  0  0  0  0  0  0  0  0  0  0  0
    3.2310   -7.2965    5.0779 H   0  0  0  0  0  0  0  0  0  0  0  0
   -0.6735   -5.8549    6.3154 H   0  0  0  0  0  0  0  0  0  0  0  0
    0.6163   -5.9080    7.5010 H   0  0  0  0  0  0  0  0  0  0  0  0
    0.0000   -7.3848    6.8491 H   0  0  0  0  0  0  0  0  0  0  0  0
   -0.3106   -5.7932    4.1035 H   0  0  0  0  0  0  0  0  0  0  0  0
    2.1050   -6.2935    2.4175 H   0  0  0  0  0  0  0  0  0  0  0  0
    0.6479   -5.4658    2.0732 H   0  0  0  0  0  0  0  0  0  0  0  0
    2.5189   -3.8871    2.3188 H   0  0  0  0  0  0  0  0  0  0  0  0
    1.1208   -3.5651    3.2937 H   0  0  0  0  0  0  0  0  0  0  0  0
    4.6837   -5.4862    4.8929 H   0  0  0  0  0  0  0  0  0  0  0  0
    4.7487   -4.6445    3.3430 H   0  0  0  0  0  0  0  0  0  0  0  0
    3.8301   -6.0793    3.5092 H   0  0  0  0  0  0  0  0  0  0  0  0
    1.0247   -4.2363    5.5735 H   0  0  0  0  0  0  0  0  0  0  0  0
    3.7003   -4.9687    6.7386 H   0  0  0  0  0  0  0  0  0  0  0  0
    3.1987   -2.0649    8.4612 H   0  0  0  0  0  0  0  0  0  0  0  0
    4.4726   -3.2547    7.9849 H   0  0  0  0  0  0  0  0  0  0  0  0
    0.6901   -2.1544    4.7544 H   0  0  0  0  0  0  0  0  0  0  0  0
   -0.1888   -0.3365    6.0114 H   0  0  0  0  0  0  0  0  0  0  0  0
    1.3679    0.4303    6.1684 H   0  0  0  0  0  0  0  0  0  0  0  0
   -1.5962    1.1081    4.3481 H   0  0  0  0  0  0  0  0  0  0  0  0
   -0.9063    1.3162    1.7382 H   0  0  0  0  0  0  0  0  0  0  0  0
   -1.0127    2.8807    2.5427 H   0  0  0  0  0  0  0  0  0  0  0  0
    1.3582    1.9915    1.3470 H   0  0  0  0  0  0  0  0  0  0  0  0
    1.0269    3.9496    2.2581 H   0  0  0  0  0  0  0  0  0  0  0  0
    1.6073    0.0300    2.5874 H   0  0  0  0  0  0  0  0  0  0  0  0
    3.6942    1.2280    3.0113 H   0  0  0  0  0  0  0  0  0  0  0  0
    2.7898    2.8576    4.2582 H   0  0  0  0  0  0  0  0  0  0  0  0
    4.5615   -0.4147    4.1363 H   0  0  0  0  0  0  0  0  0  0  0  0
    3.7509   -0.0470    5.6270 H   0  0  0  0  0  0  0  0  0  0  0  0
    2.5741   -1.7369    3.3959 H   0  0  0  0  0  0  0  0  0  0  0  0
    5.2907   -1.8894    5.7143 H   0  0  0  0  0  0  0  0  0  0  0  0
    5.4417   -2.6392    4.1247 H   0  0  0  0  0  0  0  0  0  0  0  0
    5.4544   -3.5969    5.6144 H   0  0  0  0  0  0  0  0  0  0  0  0
  1  2  1  0
  1 35  1  0
  1 36  1  0
  1 37  1  0
  2 10  1  0
  2  3  1  0
  2  4  1  0
  3 38  1  0
  3 39  1  0
  3 40  1  0
  4  5  1  0
  4  6  1  0
  4 41  1  1
  5 42  1  0
  6  7  1  0
  6 43  1  0
  6 44  1  0
  7  8  1  0
  7 45  1  0
  7 46  1  0
  8 15  1  0
  8  9  1  1
  8 10  1  0
  9 47  1  0
  9 48  1  0
  9 49  1  0
 10 11  1  0
 10 50  1  1
 11 12  1  0
 11 51  1  0
 11 52  1  0
 12 13  1  0
 12 53  1  0
 12 54  1  0
 13 33  1  0
 13 14  1  6
 13 15  1  0
 14 55  1  0
 14 56  1  0
 14 57  1  0
 15 16  1  0
 15 58  1  1
 16 19  1  0
 16 17  1  0
 16 59  1  1
 17 18  1  0
 18 19  1  0
 18 60  1  0
 18 61  1  0
 19 33  1  0
 19 20  1  1
 20 21  1  0
 21 32  1  0
 21 22  1  0
 21 62  1  6
 22 23  1  0
 22 63  1  0
 22 64  1  0
 23 28  1  0
 23 24  2  0
 24 25  1  0
 24 65  1  0
 25 26  1  0
 25 66  1  0
 25 67  1  0
 26 27  1  0
 26 28  1  0
 26 68  1  6
 27 69  1  0
 28 29  1  0
 28 70  1  6
 29 30  1  0
 29 31  1  0
 29 71  1  6
 30 72  1  0
 31 32  1  0
 31 73  1  0
 31 74  1  0
 32 33  1  0
 32 75  1  6
 33 34  1  1
 34 76  1  0
 34 77  1  0
 34 78  1  0
M  END
>  <i_m_ct_stereo_status>  (353) 
1

>  <s_m_source_file>  (353) 
/var/tmp/pbs.5076255.sched01/tmpzqmxgpmu/1265eqpa8lp.sdf

>  <i_m_source_file_index>  (353) 
24

>  <i_lp_mmshare_version>  (353) 
48012

>  <i_f3d_flags>  (353) 
0

>  <s_epik_input>  (353) 
W0NIMl0xT1tDQEhdKFtDQF0xMjMpW0NAQEhdNFtDQEBdNShbQ0gzXSlbQ0BIXShDKFtDSDNdKShbQ0gzXSlbQ0BASF0oW09IXSlbQ0gyXVtDSDJdNSlbQ0gyXVtDSDJdW0NAQF00KFtDSDNdKVtDQEBdMyhbQ0gzXSlbQ0BIXTZbQ0BASF0oTzIpW0NIMl1DPTdbQ0BIXShbQ0BASF0oW09IXSlbQ0gyXTYpW0NASF0oW09IXSlbQ0gyXVtDSF03

>  <s_epik_cmdline>  (353) 
J2VwaWtfcHl0aG9uJywgJy1waHQnLCAnMi4wJywgJy1waCcsICc3LjAnLCAnLXRuJywgJzgnLCAnLW1hJywgJzIwMCcsICctaW1hZScsICc8aW5maWxlLm1hZT4nLCAnLW9tYWUnLCAnPG91dGZpbGUubWFlPic=

>  <r_lp_tautomer_probability>  (353) 
1

>  <r_epik_Ionization_Penalty>  (353) 
2.87101e-06

>  <r_epik_Ionization_Penalty_Charging>  (353) 
0

>  <r_epik_Ionization_Penalty_Neutral>  (353) 
2.87101e-06

>  <r_epik_State_Penalty>  (353) 
-0

>  <r_epik_Charging_Adjusted_Penalty>  (353) 
0

>  <i_epik_Tot_Q>  (353) 
0

>  <i_epik_Tot_abs_Q>  (353) 
0

>  <s_lp_Force_Field>  (353) 
OPLS3e

>  <r_lp_Energy>  (353) 
125.737

>  <b_lp_Chiralities_Consistent>  (353) 
1

>  <s_lp_Variant>  (353) 
106:0-1

>  <s_i_glide_gridfile>  (353) 
pfpi4k_grid

>  <i_i_glide_lignum>  (353) 
24

>  <i_i_glide_rotatable_bonds>  (353) 
3

>  <r_i_docking_score>  (353) 
-2.80346

>  <r_i_glide_ligand_efficiency>  (353) 
-0.0824548

>  <r_i_glide_ligand_efficiency_sa>  (353) 
-0.267121

>  <r_i_glide_ligand_efficiency_ln>  (353) 
-0.619363

>  <r_i_glide_gscore>  (353) 
-2.80346

>  <r_i_glide_lipo>  (353) 
-0.0265017

>  <r_i_glide_hbond>  (353) 
0

>  <r_i_glide_metal>  (353) 
-0

>  <r_i_glide_rewards>  (353) 
-0.686432

>  <r_i_glide_evdw>  (353) 
-26.3119

>  <r_i_glide_ecoul>  (353) 
-5.16622

>  <r_i_glide_erotb>  (353) 
0

>  <r_i_glide_esite>  (353) 
0

>  <r_i_glide_emodel>  (353) 
-42.1801

>  <r_i_glide_energy>  (353) 
-31.4781

>  <r_i_glide_einternal>  (353) 
1.16906

>  <r_i_glide_intrahb_reward>  (353) 
-0.5

>  <i_i_glide_confnum>  (353) 
1

>  <i_i_glide_posenum>  (353) 
31

>  <r_i_glide_eff_state_penalty>  (353) 
0

>  <ligand_id>  (353) 
106

>  <original_smiles>  (353) 
CC1(C)C(O)CCC2(C)C1CCC1(C)C2C2OCC23OC2CC4=CCC(O)C4C(O)CC2C13C

>  <smiles>  (353) 
[H]OC1([H])C([H])([H])C([H])=C2C([H])([H])C3([H])OC45C([H])([H])OC4([H])C4([H])C6(C([H])([H])[H])C([H])([H])C([H])([H])C([H])(O[H])C(C([H])([H])[H])(C([H])([H])[H])C6([H])C([H])([H])C([H])([H])C4(C([H])([H])[H])C5(C([H])([H])[H])C3([H])C([H])([H])C([H])(O[H])C21[H]

$$$$
107:0:0
     RDKit          3D

 41 44  0  0  1  0  0  0  0  0999 V2000
   -4.0960  -12.6509   -8.6947 C   0  0  0  0  0  0  0  0  0  0  0  0
   -4.8694  -11.8261   -7.6525 C   0  0  0  0  0  0  0  0  0  0  0  0
   -6.4076  -11.8818   -7.8002 C   0  0  2  0  0  0  0  0  0  0  0  0
   -6.9260  -11.1101   -9.0329 C   0  0  0  0  0  0  0  0  0  0  0  0
   -8.4158  -11.1411   -9.1687 N   0  0  1  0  0  0  0  0  0  0  0  0
   -8.9108  -12.4108   -9.7620 C   0  0  0  0  0  0  0  0  0  0  0  0
   -9.1529  -10.7433   -7.9316 C   0  0  2  0  0  0  0  0  0  0  0  0
   -8.9774   -9.2212   -7.6466 C   0  0  0  0  0  0  0  0  0  0  0  0
   -7.7549   -8.9526   -6.8121 C   0  0  0  0  0  0  0  0  0  0  0  0
   -6.9373   -9.9138   -6.3116 C   0  0  0  0  0  0  0  0  0  0  0  0
   -5.8987   -9.3696   -5.5746 N   0  0  0  0  0  0  0  0  0  0  0  0
   -6.1130   -8.0579   -5.5795 C   0  0  0  0  0  0  0  0  0  0  0  0
   -5.4218   -6.9874   -4.9614 C   0  0  0  0  0  0  0  0  0  0  0  0
   -5.8596   -5.6960   -5.1202 C   0  0  0  0  0  0  0  0  0  0  0  0
   -7.0013   -5.4292   -5.9155 C   0  0  0  0  0  0  0  0  0  0  0  0
   -7.6946   -6.4559   -6.5178 C   0  0  0  0  0  0  0  0  0  0  0  0
   -7.2657   -7.7353   -6.3541 N   0  0  0  0  0  0  0  0  0  0  0  0
   -7.1459  -11.3817   -6.5399 C   0  0  1  0  0  0  0  0  0  0  0  0
   -8.6613  -11.6148   -6.7454 C   0  0  0  0  0  0  0  0  0  0  0  0
   -3.0343  -12.6427   -8.4579 H   0  0  0  0  0  0  0  0  0  0  0  0
   -4.2221  -12.2565   -9.7005 H   0  0  0  0  0  0  0  0  0  0  0  0
   -4.4150  -13.6929   -8.6968 H   0  0  0  0  0  0  0  0  0  0  0  0
   -4.6027  -12.2119   -6.6684 H   0  0  0  0  0  0  0  0  0  0  0  0
   -4.5170  -10.7907   -7.6680 H   0  0  0  0  0  0  0  0  0  0  0  0
   -6.6654  -12.9355   -7.9294 H   0  0  0  0  0  0  0  0  0  0  0  0
   -6.5900  -10.0712   -9.0243 H   0  0  0  0  0  0  0  0  0  0  0  0
   -6.4868  -11.5633   -9.9211 H   0  0  0  0  0  0  0  0  0  0  0  0
   -8.6857  -13.2632   -9.1192 H   0  0  0  0  0  0  0  0  0  0  0  0
   -8.4409  -12.5888  -10.7311 H   0  0  0  0  0  0  0  0  0  0  0  0
   -9.9912  -12.3750   -9.9181 H   0  0  0  0  0  0  0  0  0  0  0  0
  -10.2152  -10.9263   -8.1058 H   0  0  0  0  0  0  0  0  0  0  0  0
   -8.9416   -8.6429   -8.5673 H   0  0  0  0  0  0  0  0  0  0  0  0
   -9.8669   -8.8747   -7.1264 H   0  0  0  0  0  0  0  0  0  0  0  0
   -4.5462   -7.2245   -4.3639 H   0  0  0  0  0  0  0  0  0  0  0  0
   -5.3033   -4.8707   -4.6767 H   0  0  0  0  0  0  0  0  0  0  0  0
   -7.3289   -4.4062   -6.0732 H   0  0  0  0  0  0  0  0  0  0  0  0
   -8.5802   -6.3002   -7.1308 H   0  0  0  0  0  0  0  0  0  0  0  0
   -6.8134  -11.9632   -5.6848 H   0  0  0  0  0  0  0  0  0  0  0  0
   -9.2019  -11.3273   -5.8447 H   0  0  0  0  0  0  0  0  0  0  0  0
   -8.8791  -12.6767   -6.9041 H   0  0  0  0  0  0  0  0  0  0  0  0
   -8.6468  -10.4317   -9.8530 H   0  0  0  0  0  0  0  0  0  0  0  0
  1  2  1  0
  1 20  1  0
  1 21  1  0
  1 22  1  0
  2  3  1  0
  2 23  1  0
  2 24  1  0
  3 18  1  0
  3  4  1  0
  3 25  1  6
  4  5  1  0
  4 26  1  0
  4 27  1  0
  5  6  1  0
  5  7  1  0
  5 41  1  6
  6 28  1  0
  6 29  1  0
  6 30  1  0
  7 19  1  0
  7  8  1  0
  7 31  1  6
  8  9  1  0
  8 32  1  0
  8 33  1  0
  9 17  1  0
  9 10  2  0
 10 11  1  0
 10 18  1  0
 11 12  2  0
 12 17  1  0
 12 13  1  0
 13 14  2  0
 13 34  1  0
 14 15  1  0
 14 35  1  0
 15 16  2  0
 15 36  1  0
 16 17  1  0
 16 37  1  0
 18 19  1  0
 18 38  1  1
 19 39  1  0
 19 40  1  0
M  CHG  1   5   1
M  END
>  <i_m_ct_stereo_status>  (354) 
1

>  <s_m_source_file>  (354) 
/var/tmp/pbs.5076255.sched01/tmpzqmxgpmu/1265eqpa8lp.sdf

>  <i_m_source_file_index>  (354) 
25

>  <i_lp_mmshare_version>  (354) 
48012

>  <i_f3d_flags>  (354) 
0

>  <s_epik_input>  (354) 
W0NIM11OKFtDSF0xMilbQ0gyXVtDQEBIXShbQ0gyXVtDSDNdKVtDSF0oW0NIMl0yKWMzYyhbQ0gyXTEpbjRjKG4zKVtjSF1bY0hdW2NIXVtjSF00

>  <s_epik_cmdline>  (354) 
J2VwaWtfcHl0aG9uJywgJy1waHQnLCAnMi4wJywgJy1waCcsICc3LjAnLCAnLXRuJywgJzgnLCAnLW1hJywgJzIwMCcsICctaW1hZScsICc8aW5maWxlLm1hZT4nLCAnLW9tYWUnLCAnPG91dGZpbGUubWFlPic=

>  <r_epik_Ionization_Penalty>  (354) 
0.0594213

>  <r_epik_Ionization_Penalty_Charging>  (354) 
0.0594213

>  <r_epik_Ionization_Penalty_Neutral>  (354) 
2.20229e-13

>  <r_epik_State_Penalty>  (354) 
0.128589

>  <r_epik_Charging_Adjusted_Penalty>  (354) 
0.18801

>  <i_epik_Tot_Q>  (354) 
1

>  <i_epik_Tot_abs_Q>  (354) 
1

>  <s_lp_Force_Field>  (354) 
OPLS3e

>  <r_lp_Energy>  (354) 
32.7831

>  <b_lp_Chiralities_Consistent>  (354) 
1

>  <s_lp_Variant>  (354) 
107:0-1

>  <s_i_glide_gridfile>  (354) 
pfpi4k_grid

>  <i_i_glide_lignum>  (354) 
25

>  <i_i_glide_rotatable_bonds>  (354) 
1

>  <r_i_docking_score>  (354) 
-5.05534

>  <r_i_glide_ligand_efficiency>  (354) 
-0.26607

>  <r_i_glide_ligand_efficiency_sa>  (354) 
-0.709983

>  <r_i_glide_ligand_efficiency_ln>  (354) 
-1.28164

>  <r_i_glide_gscore>  (354) 
-5.05534

>  <r_i_glide_lipo>  (354) 
-1.80961

>  <r_i_glide_hbond>  (354) 
0

>  <r_i_glide_metal>  (354) 
-0

>  <r_i_glide_rewards>  (354) 
-2.2886

>  <r_i_glide_evdw>  (354) 
-21.4214

>  <r_i_glide_ecoul>  (354) 
0.759612

>  <r_i_glide_erotb>  (354) 
0

>  <r_i_glide_esite>  (354) 
0

>  <r_i_glide_emodel>  (354) 
-29.9384

>  <r_i_glide_energy>  (354) 
-20.6618

>  <r_i_glide_einternal>  (354) 
0.086667

>  <r_i_glide_intrahb_reward>  (354) 
-0

>  <i_i_glide_confnum>  (354) 
1

>  <i_i_glide_posenum>  (354) 
7

>  <r_i_glide_eff_state_penalty>  (354) 
0

>  <ligand_id>  (354) 
107

>  <original_smiles>  (354) 
CCC1CN(C)C2Cc3c(nc4ccccn34)C1C2

>  <smiles>  (354) 
[H]c1c([H])c([H])n2c3c(nc2c1[H])C1([H])C([H])([H])C([H])(C3([H])[H])[N+]([H])(C([H])([H])[H])C([H])([H])C1([H])C([H])([H])C([H])([H])[H]

$$$$
107:0:1
     RDKit          3D

 41 44  0  0  1  0  0  0  0  0999 V2000
    4.0954    1.1696    5.2353 C   0  0  0  0  0  0  0  0  0  0  0  0
    2.6794    0.7697    5.6840 C   0  0  0  0  0  0  0  0  0  0  0  0
    1.6248    0.7521    4.5515 C   0  0  2  0  0  0  0  0  0  0  0  0
    1.3406    2.1540    3.9484 C   0  0  0  0  0  0  0  0  0  0  0  0
    0.3013    2.1304    2.8766 N   0  0  1  0  0  0  0  0  0  0  0  0
    0.8462    1.6745    1.5788 C   0  0  0  0  0  0  0  0  0  0  0  0
   -0.9608    1.4225    3.2509 C   0  0  2  0  0  0  0  0  0  0  0  0
   -1.7716    2.2214    4.3201 C   0  0  0  0  0  0  0  0  0  0  0  0
   -1.3584    1.8486    5.7123 C   0  0  0  0  0  0  0  0  0  0  0  0
   -0.4465    0.8839    6.0207 C   0  0  0  0  0  0  0  0  0  0  0  0
   -0.3023    0.7327    7.3885 N   0  0  0  0  0  0  0  0  0  0  0  0
   -1.1033    1.6475    7.9321 C   0  0  0  0  0  0  0  0  0  0  0  0
   -1.3802    1.9757    9.2821 C   0  0  0  0  0  0  0  0  0  0  0  0
   -2.3054    2.9473    9.5791 C   0  0  0  0  0  0  0  0  0  0  0  0
   -2.9798    3.6273    8.5385 C   0  0  0  0  0  0  0  0  0  0  0  0
   -2.7195    3.3224    7.2202 C   0  0  0  0  0  0  0  0  0  0  0  0
   -1.8058    2.3597    6.9226 N   0  0  0  0  0  0  0  0  0  0  0  0
    0.2921    0.0858    4.9891 C   0  0  1  0  0  0  0  0  0  0  0  0
   -0.6222   -0.0110    3.7518 C   0  0  0  0  0  0  0  0  0  0  0  0
    4.7994    1.0739    6.0610 H   0  0  0  0  0  0  0  0  0  0  0  0
    4.1365    2.2035    4.8971 H   0  0  0  0  0  0  0  0  0  0  0  0
    4.4571    0.5334    4.4277 H   0  0  0  0  0  0  0  0  0  0  0  0
    2.7411   -0.2294    6.1172 H   0  0  0  0  0  0  0  0  0  0  0  0
    2.3593    1.4258    6.4963 H   0  0  0  0  0  0  0  0  0  0  0  0
    2.0479    0.1271    3.7611 H   0  0  0  0  0  0  0  0  0  0  0  0
    1.0339    2.8485    4.7306 H   0  0  0  0  0  0  0  0  0  0  0  0
    2.2560    2.5759    3.5342 H   0  0  0  0  0  0  0  0  0  0  0  0
    1.1966    0.6422    1.6140 H   0  0  0  0  0  0  0  0  0  0  0  0
    1.6836    2.3080    1.2815 H   0  0  0  0  0  0  0  0  0  0  0  0
    0.0835    1.7442    0.8021 H   0  0  0  0  0  0  0  0  0  0  0  0
   -1.5827    1.3563    2.3575 H   0  0  0  0  0  0  0  0  0  0  0  0
   -1.6659    3.2953    4.1635 H   0  0  0  0  0  0  0  0  0  0  0  0
   -2.8305    2.0015    4.1870 H   0  0  0  0  0  0  0  0  0  0  0  0
   -0.8699    1.4434   10.0754 H   0  0  0  0  0  0  0  0  0  0  0  0
   -2.5200    3.1768   10.6228 H   0  0  0  0  0  0  0  0  0  0  0  0
   -3.7091    4.3938    8.7825 H   0  0  0  0  0  0  0  0  0  0  0  0
   -3.2157    3.7975    6.3798 H   0  0  0  0  0  0  0  0  0  0  0  0
    0.4933   -0.9157    5.3660 H   0  0  0  0  0  0  0  0  0  0  0  0
   -1.5431   -0.5259    4.0283 H   0  0  0  0  0  0  0  0  0  0  0  0
   -0.1559   -0.6179    2.9699 H   0  0  0  0  0  0  0  0  0  0  0  0
    0.0494    3.0927    2.6857 H   0  0  0  0  0  0  0  0  0  0  0  0
  1  2  1  0
  1 20  1  0
  1 21  1  0
  1 22  1  0
  2  3  1  0
  2 23  1  0
  2 24  1  0
  3 18  1  0
  3  4  1  0
  3 25  1  6
  4  5  1  0
  4 26  1  0
  4 27  1  0
  5  6  1  0
  5  7  1  0
  5 41  1  6
  6 28  1  0
  6 29  1  0
  6 30  1  0
  7 19  1  0
  7  8  1  0
  7 31  1  6
  8  9  1  0
  8 32  1  0
  8 33  1  0
  9 17  1  0
  9 10  2  0
 10 11  1  0
 10 18  1  0
 11 12  2  0
 12 17  1  0
 12 13  1  0
 13 14  2  0
 13 34  1  0
 14 15  1  0
 14 35  1  0
 15 16  2  0
 15 36  1  0
 16 17  1  0
 16 37  1  0
 18 19  1  0
 18 38  1  1
 19 39  1  0
 19 40  1  0
M  CHG  1   5   1
M  END
>  <i_m_ct_stereo_status>  (355) 
1

>  <s_m_source_file>  (355) 
/var/tmp/pbs.5076255.sched01/tmpzqmxgpmu/1265eqpa8lp.sdf

>  <i_m_source_file_index>  (355) 
25

>  <i_lp_mmshare_version>  (355) 
48012

>  <i_f3d_flags>  (355) 
0

>  <s_epik_input>  (355) 
W0NIM11OKFtDSF0xMilbQ0gyXVtDQEBIXShbQ0gyXVtDSDNdKVtDSF0oW0NIMl0yKWMzYyhbQ0gyXTEpbjRjKG4zKVtjSF1bY0hdW2NIXVtjSF00

>  <s_epik_cmdline>  (355) 
J2VwaWtfcHl0aG9uJywgJy1waHQnLCAnMi4wJywgJy1waCcsICc3LjAnLCAnLXRuJywgJzgnLCAnLW1hJywgJzIwMCcsICctaW1hZScsICc8aW5maWxlLm1hZT4nLCAnLW9tYWUnLCAnPG91dGZpbGUubWFlPic=

>  <r_epik_Ionization_Penalty>  (355) 
0.0594213

>  <r_epik_Ionization_Penalty_Charging>  (355) 
0.0594213

>  <r_epik_Ionization_Penalty_Neutral>  (355) 
2.20229e-13

>  <r_epik_State_Penalty>  (355) 
0.128589

>  <r_epik_Charging_Adjusted_Penalty>  (355) 
0.18801

>  <i_epik_Tot_Q>  (355) 
1

>  <i_epik_Tot_abs_Q>  (355) 
1

>  <s_lp_Force_Field>  (355) 
OPLS3e

>  <r_lp_Energy>  (355) 
32.7831

>  <b_lp_Chiralities_Consistent>  (355) 
1

>  <s_lp_Variant>  (355) 
107:0-1

>  <s_i_glide_gridfile>  (355) 
pfpi4k_grid

>  <i_i_glide_lignum>  (355) 
25

>  <i_i_glide_rotatable_bonds>  (355) 
1

>  <r_i_docking_score>  (355) 
-3.65135

>  <r_i_glide_ligand_efficiency>  (355) 
-0.192176

>  <r_i_glide_ligand_efficiency_sa>  (355) 
-0.512804

>  <r_i_glide_ligand_efficiency_ln>  (355) 
-0.925696

>  <r_i_glide_gscore>  (355) 
-3.65135

>  <r_i_glide_lipo>  (355) 
-0.222616

>  <r_i_glide_hbond>  (355) 
-0.0434482

>  <r_i_glide_metal>  (355) 
-0

>  <r_i_glide_rewards>  (355) 
-1.66114

>  <r_i_glide_evdw>  (355) 
-16.8985

>  <r_i_glide_ecoul>  (355) 
-5.129

>  <r_i_glide_erotb>  (355) 
0

>  <r_i_glide_esite>  (355) 
-0.109873

>  <r_i_glide_emodel>  (355) 
-28.746

>  <r_i_glide_energy>  (355) 
-22.0275

>  <r_i_glide_einternal>  (355) 
8.98259e-05

>  <r_i_glide_intrahb_reward>  (355) 
-0

>  <i_i_glide_confnum>  (355) 
1

>  <i_i_glide_posenum>  (355) 
2

>  <r_i_glide_eff_state_penalty>  (355) 
0

>  <ligand_id>  (355) 
107

>  <original_smiles>  (355) 
CCC1CN(C)C2Cc3c(nc4ccccn34)C1C2

>  <smiles>  (355) 
[H]c1c([H])c([H])n2c3c(nc2c1[H])C1([H])C([H])([H])C([H])(C3([H])[H])[N+]([H])(C([H])([H])[H])C([H])([H])C1([H])C([H])([H])C([H])([H])[H]

$$$$
107:0:2
     RDKit          3D

 41 44  0  0  1  0  0  0  0  0999 V2000
    4.5031   -1.8209   -3.2209 C   0  0  0  0  0  0  0  0  0  0  0  0
    4.5783   -1.3140   -1.7706 C   0  0  0  0  0  0  0  0  0  0  0  0
    4.8825   -2.4076   -0.7186 C   0  0  2  0  0  0  0  0  0  0  0  0
    3.7690   -3.4832   -0.6103 C   0  0  0  0  0  0  0  0  0  0  0  0
    4.0611   -4.5163    0.4270 N   0  0  1  0  0  0  0  0  0  0  0  0
    5.0032   -5.5547   -0.0540 C   0  0  0  0  0  0  0  0  0  0  0  0
    4.4299   -3.9699    1.7679 C   0  0  2  0  0  0  0  0  0  0  0  0
    3.2068   -3.3012    2.4726 C   0  0  0  0  0  0  0  0  0  0  0  0
    3.0940   -1.8569    2.1010 C   0  0  0  0  0  0  0  0  0  0  0  0
    3.9791   -1.1825    1.3166 C   0  0  0  0  0  0  0  0  0  0  0  0
    3.6424    0.1444    1.1875 N   0  0  0  0  0  0  0  0  0  0  0  0
    2.5178    0.2991    1.8858 C   0  0  0  0  0  0  0  0  0  0  0  0
    1.6951    1.4290    2.1235 C   0  0  0  0  0  0  0  0  0  0  0  0
    0.5722    1.3116    2.9030 C   0  0  0  0  0  0  0  0  0  0  0  0
    0.2363    0.0697    3.4881 C   0  0  0  0  0  0  0  0  0  0  0  0
    1.0233   -1.0414    3.2758 C   0  0  0  0  0  0  0  0  0  0  0  0
    2.1324   -0.9312    2.4882 N   0  0  0  0  0  0  0  0  0  0  0  0
    5.1822   -1.8209    0.6863 C   0  0  1  0  0  0  0  0  0  0  0  0
    5.6165   -2.9768    1.6095 C   0  0  0  0  0  0  0  0  0  0  0  0
    4.3779   -0.9871   -3.9107 H   0  0  0  0  0  0  0  0  0  0  0  0
    3.6547   -2.4870   -3.3700 H   0  0  0  0  0  0  0  0  0  0  0  0
    5.4085   -2.3535   -3.5102 H   0  0  0  0  0  0  0  0  0  0  0  0
    5.3622   -0.5590   -1.7227 H   0  0  0  0  0  0  0  0  0  0  0  0
    3.6511   -0.7939   -1.5247 H   0  0  0  0  0  0  0  0  0  0  0  0
    5.7916   -2.9070   -1.0593 H   0  0  0  0  0  0  0  0  0  0  0  0
    2.8064   -3.0178   -0.3961 H   0  0  0  0  0  0  0  0  0  0  0  0
    3.6315   -3.9823   -1.5681 H   0  0  0  0  0  0  0  0  0  0  0  0
    5.9822   -5.1279   -0.2790 H   0  0  0  0  0  0  0  0  0  0  0  0
    4.6284   -6.0261   -0.9642 H   0  0  0  0  0  0  0  0  0  0  0  0
    5.1413   -6.3418    0.6906 H   0  0  0  0  0  0  0  0  0  0  0  0
    4.7427   -4.8069    2.3937 H   0  0  0  0  0  0  0  0  0  0  0  0
    2.2822   -3.8317    2.2392 H   0  0  0  0  0  0  0  0  0  0  0  0
    3.3366   -3.3743    3.5536 H   0  0  0  0  0  0  0  0  0  0  0  0
    1.9542    2.3850    1.6807 H   0  0  0  0  0  0  0  0  0  0  0  0
   -0.0530    2.1873    3.0629 H   0  0  0  0  0  0  0  0  0  0  0  0
   -0.6533   -0.0128    4.1052 H   0  0  0  0  0  0  0  0  0  0  0  0
    0.8076   -2.0167    3.7002 H   0  0  0  0  0  0  0  0  0  0  0  0
    5.9928   -1.0995    0.6135 H   0  0  0  0  0  0  0  0  0  0  0  0
    5.8821   -2.5732    2.5879 H   0  0  0  0  0  0  0  0  0  0  0  0
    6.5158   -3.4705    1.2318 H   0  0  0  0  0  0  0  0  0  0  0  0
    3.1943   -5.0161    0.5660 H   0  0  0  0  0  0  0  0  0  0  0  0
  1  2  1  0
  1 20  1  0
  1 21  1  0
  1 22  1  0
  2  3  1  0
  2 23  1  0
  2 24  1  0
  3 18  1  0
  3  4  1  0
  3 25  1  6
  4  5  1  0
  4 26  1  0
  4 27  1  0
  5  6  1  0
  5  7  1  0
  5 41  1  1
  6 28  1  0
  6 29  1  0
  6 30  1  0
  7 19  1  0
  7  8  1  0
  7 31  1  1
  8  9  1  0
  8 32  1  0
  8 33  1  0
  9 17  1  0
  9 10  2  0
 10 11  1  0
 10 18  1  0
 11 12  2  0
 12 17  1  0
 12 13  1  0
 13 14  2  0
 13 34  1  0
 14 15  1  0
 14 35  1  0
 15 16  2  0
 15 36  1  0
 16 17  1  0
 16 37  1  0
 18 19  1  0
 18 38  1  6
 19 39  1  0
 19 40  1  0
M  CHG  1   5   1
M  END
>  <i_m_ct_stereo_status>  (356) 
1

>  <s_m_source_file>  (356) 
/var/tmp/pbs.5076255.sched01/tmpzqmxgpmu/1265eqpa8lp.sdf

>  <i_m_source_file_index>  (356) 
25

>  <i_lp_mmshare_version>  (356) 
48012

>  <i_f3d_flags>  (356) 
0

>  <s_epik_input>  (356) 
W0NIM11OKFtDSF0xMilbQ0gyXVtDQEBIXShbQ0gyXVtDSDNdKVtDSF0oW0NIMl0yKWMzYyhbQ0gyXTEpbjRjKG4zKVtjSF1bY0hdW2NIXVtjSF00

>  <s_epik_cmdline>  (356) 
J2VwaWtfcHl0aG9uJywgJy1waHQnLCAnMi4wJywgJy1waCcsICc3LjAnLCAnLXRuJywgJzgnLCAnLW1hJywgJzIwMCcsICctaW1hZScsICc8aW5maWxlLm1hZT4nLCAnLW9tYWUnLCAnPG91dGZpbGUubWFlPic=

>  <r_epik_Ionization_Penalty>  (356) 
0.0594213

>  <r_epik_Ionization_Penalty_Charging>  (356) 
0.0594213

>  <r_epik_Ionization_Penalty_Neutral>  (356) 
2.20229e-13

>  <r_epik_State_Penalty>  (356) 
0.128589

>  <r_epik_Charging_Adjusted_Penalty>  (356) 
0.18801

>  <i_epik_Tot_Q>  (356) 
1

>  <i_epik_Tot_abs_Q>  (356) 
1

>  <s_lp_Force_Field>  (356) 
OPLS3e

>  <r_lp_Energy>  (356) 
32.7831

>  <b_lp_Chiralities_Consistent>  (356) 
1

>  <s_lp_Variant>  (356) 
107:0-1

>  <s_i_glide_gridfile>  (356) 
pfpi4k_grid

>  <i_i_glide_lignum>  (356) 
25

>  <i_i_glide_rotatable_bonds>  (356) 
1

>  <r_i_docking_score>  (356) 
-3.40001

>  <r_i_glide_ligand_efficiency>  (356) 
-0.178948

>  <r_i_glide_ligand_efficiency_sa>  (356) 
-0.477506

>  <r_i_glide_ligand_efficiency_ln>  (356) 
-0.861977

>  <r_i_glide_gscore>  (356) 
-3.40001

>  <r_i_glide_lipo>  (356) 
-0.26083

>  <r_i_glide_hbond>  (356) 
0

>  <r_i_glide_metal>  (356) 
-0

>  <r_i_glide_rewards>  (356) 
-1.66114

>  <r_i_glide_evdw>  (356) 
-20.5998

>  <r_i_glide_ecoul>  (356) 
-2.72672

>  <r_i_glide_erotb>  (356) 
0

>  <r_i_glide_esite>  (356) 
-0.0390453

>  <r_i_glide_emodel>  (356) 
-29.5935

>  <r_i_glide_energy>  (356) 
-23.3265

>  <r_i_glide_einternal>  (356) 
0.0046512

>  <r_i_glide_intrahb_reward>  (356) 
-0

>  <i_i_glide_confnum>  (356) 
2

>  <i_i_glide_posenum>  (356) 
31

>  <r_i_glide_eff_state_penalty>  (356) 
0

>  <ligand_id>  (356) 
107

>  <original_smiles>  (356) 
CCC1CN(C)C2Cc3c(nc4ccccn34)C1C2

>  <smiles>  (356) 
[H]c1c([H])c([H])n2c3c(nc2c1[H])C1([H])C([H])([H])C([H])(C3([H])[H])[N+]([H])(C([H])([H])[H])C([H])([H])C1([H])C([H])([H])C([H])([H])[H]

$$$$
107:1:0
     RDKit          3D

 41 44  0  0  1  0  0  0  0  0999 V2000
    1.1187   -5.6292    2.7556 C   0  0  0  0  0  0  0  0  0  0  0  0
    2.2914   -5.4160    1.7781 C   0  0  0  0  0  0  0  0  0  0  0  0
    3.5004   -4.6501    2.3722 C   0  0  2  0  0  0  0  0  0  0  0  0
    3.1078   -3.2312    2.8534 C   0  0  0  0  0  0  0  0  0  0  0  0
    4.2279   -2.4155    3.3481 N   0  0  0  0  0  0  0  0  0  0  0  0
    4.5459   -2.7175    4.7402 C   0  0  0  0  0  0  0  0  0  0  0  0
    5.4253   -2.3880    2.4955 C   0  0  2  0  0  0  0  0  0  0  0  0
    5.1774   -1.5578    1.2060 C   0  0  0  0  0  0  0  0  0  0  0  0
    4.6024   -2.4015    0.1065 C   0  0  0  0  0  0  0  0  0  0  0  0
    4.3614   -3.7441    0.1545 C   0  0  0  0  0  0  0  0  0  0  0  0
    3.8224   -4.1217   -1.0913 N   0  0  0  0  0  0  0  0  0  0  0  0
    3.7512   -3.0526   -1.8529 C   0  0  0  0  0  0  0  0  0  0  0  0
    3.2698   -2.9909   -3.1365 C   0  0  0  0  0  0  0  0  0  0  0  0
    3.2842   -1.7364   -3.7103 C   0  0  0  0  0  0  0  0  0  0  0  0
    3.8128   -0.6398   -3.0118 C   0  0  0  0  0  0  0  0  0  0  0  0
    4.3078   -0.8171   -1.7204 C   0  0  0  0  0  0  0  0  0  0  0  0
    4.2289   -2.0533   -1.1680 N   0  0  0  0  0  0  0  0  0  0  0  0
    4.6902   -4.5324    1.3858 C   0  0  1  0  0  0  0  0  0  0  0  0
    5.8406   -3.8438    2.1542 C   0  0  0  0  0  0  0  0  0  0  0  0
    0.2819   -6.1124    2.2547 H   0  0  0  0  0  0  0  0  0  0  0  0
    0.7318   -4.6946    3.1576 H   0  0  0  0  0  0  0  0  0  0  0  0
    1.4042   -6.2593    3.5983 H   0  0  0  0  0  0  0  0  0  0  0  0
    2.6222   -6.3969    1.4309 H   0  0  0  0  0  0  0  0  0  0  0  0
    1.9268   -4.8881    0.9000 H   0  0  0  0  0  0  0  0  0  0  0  0
    3.8350   -5.2359    3.2264 H   0  0  0  0  0  0  0  0  0  0  0  0
    2.6041   -2.7057    2.0421 H   0  0  0  0  0  0  0  0  0  0  0  0
    2.3978   -3.3162    3.6709 H   0  0  0  0  0  0  0  0  0  0  0  0
    5.2897   -2.0099    5.1074 H   0  0  0  0  0  0  0  0  0  0  0  0
    4.9308   -3.7283    4.8774 H   0  0  0  0  0  0  0  0  0  0  0  0
    3.6622   -2.6001    5.3686 H   0  0  0  0  0  0  0  0  0  0  0  0
    6.2092   -1.8748    3.0548 H   0  0  0  0  0  0  0  0  0  0  0  0
    4.5507   -0.6891    1.4018 H   0  0  0  0  0  0  0  0  0  0  0  0
    6.1402   -1.1833    0.8644 H   0  0  0  0  0  0  0  0  0  0  0  0
    2.8713   -3.8701   -3.6088 H   0  0  0  0  0  0  0  0  0  0  0  0
    2.8638   -1.5765   -4.6927 H   0  0  0  0  0  0  0  0  0  0  0  0
    3.7697    0.3515   -3.4498 H   0  0  0  0  0  0  0  0  0  0  0  0
    4.6696   -0.0516   -1.0646 H   0  0  0  0  0  0  0  0  0  0  0  0
    5.0187   -5.5238    1.0873 H   0  0  0  0  0  0  0  0  0  0  0  0
    6.7329   -3.8200    1.5266 H   0  0  0  0  0  0  0  0  0  0  0  0
    6.1099   -4.4150    3.0422 H   0  0  0  0  0  0  0  0  0  0  0  0
    3.5409   -5.0434   -1.4400 H   0  0  0  0  0  0  0  0  0  0  0  0
  1  2  1  0
  1 20  1  0
  1 21  1  0
  1 22  1  0
  2  3  1  0
  2 23  1  0
  2 24  1  0
  3 18  1  0
  3  4  1  0
  3 25  1  1
  4  5  1  0
  4 26  1  0
  4 27  1  0
  5  6  1  0
  5  7  1  0
  6 28  1  0
  6 29  1  0
  6 30  1  0
  7 19  1  0
  7  8  1  0
  7 31  1  1
  8  9  1  0
  8 32  1  0
  8 33  1  0
  9 17  1  0
  9 10  2  0
 10 11  1  0
 10 18  1  0
 11 12  2  0
 11 41  1  0
 12 17  1  0
 12 13  1  0
 13 14  2  0
 13 34  1  0
 14 15  1  0
 14 35  1  0
 15 16  2  0
 15 36  1  0
 16 17  1  0
 16 37  1  0
 18 19  1  0
 18 38  1  6
 19 39  1  0
 19 40  1  0
M  CHG  1  11   1
M  END
>  <i_m_ct_stereo_status>  (357) 
1

>  <s_m_source_file>  (357) 
/var/tmp/pbs.5076255.sched01/tmpzqmxgpmu/1265eqpa8lp.sdf

>  <i_m_source_file_index>  (357) 
26

>  <i_lp_mmshare_version>  (357) 
48012

>  <i_f3d_flags>  (357) 
0

>  <s_epik_input>  (357) 
W0NIM11OKFtDSF0xMilbQ0gyXVtDQEBIXShbQ0gyXVtDSDNdKVtDSF0oW0NIMl0yKWMzYyhbQ0gyXTEpbjRjKG4zKVtjSF1bY0hdW2NIXVtjSF00

>  <s_epik_cmdline>  (357) 
J2VwaWtfcHl0aG9uJywgJy1waHQnLCAnMi4wJywgJy1waCcsICc3LjAnLCAnLXRuJywgJzgnLCAnLW1hJywgJzIwMCcsICctaW1hZScsICc8aW5maWxlLm1hZT4nLCAnLW9tYWUnLCAnPG91dGZpbGUubWFlPic=

>  <r_epik_Ionization_Penalty>  (357) 
0.771697

>  <r_epik_Ionization_Penalty_Charging>  (357) 
0

>  <r_epik_Ionization_Penalty_Neutral>  (357) 
0.771697

>  <r_epik_State_Penalty>  (357) 
1.27436

>  <r_epik_Charging_Adjusted_Penalty>  (357) 
1.27436

>  <i_epik_Tot_Q>  (357) 
1

>  <i_epik_Tot_abs_Q>  (357) 
1

>  <s_lp_Force_Field>  (357) 
OPLS3e

>  <r_lp_Energy>  (357) 
34.3172

>  <b_lp_Chiralities_Consistent>  (357) 
1

>  <s_lp_Variant>  (357) 
107:0-2

>  <s_i_glide_gridfile>  (357) 
pfpi4k_grid

>  <i_i_glide_lignum>  (357) 
26

>  <i_i_glide_rotatable_bonds>  (357) 
1

>  <r_i_docking_score>  (357) 
-4.08794

>  <r_i_glide_ligand_efficiency>  (357) 
-0.215154

>  <r_i_glide_ligand_efficiency_sa>  (357) 
-0.574119

>  <r_i_glide_ligand_efficiency_ln>  (357) 
-1.03638

>  <r_i_glide_gscore>  (357) 
-4.08794

>  <r_i_glide_lipo>  (357) 
-0.601396

>  <r_i_glide_hbond>  (357) 
0

>  <r_i_glide_metal>  (357) 
-0

>  <r_i_glide_rewards>  (357) 
-1.66114

>  <r_i_glide_evdw>  (357) 
-15.7398

>  <r_i_glide_ecoul>  (357) 
-6.40415

>  <r_i_glide_erotb>  (357) 
0

>  <r_i_glide_esite>  (357) 
-0.0777857

>  <r_i_glide_emodel>  (357) 
-26.8606

>  <r_i_glide_energy>  (357) 
-22.1439

>  <r_i_glide_einternal>  (357) 
0.489126

>  <r_i_glide_intrahb_reward>  (357) 
-0

>  <i_i_glide_confnum>  (357) 
1

>  <i_i_glide_posenum>  (357) 
14

>  <r_i_glide_eff_state_penalty>  (357) 
0

>  <ligand_id>  (357) 
107

>  <original_smiles>  (357) 
CCC1CN(C)C2Cc3c(nc4ccccn34)C1C2

>  <smiles>  (357) 
[H]c1c([H])c([H])n2c3c([n+]([H])c2c1[H])C1([H])C([H])([H])C([H])(N(C([H])([H])[H])C([H])([H])C1([H])C([H])([H])C([H])([H])[H])C3([H])[H]

$$$$
107:1:1
     RDKit          3D

 41 44  0  0  1  0  0  0  0  0999 V2000
    1.6925   -6.7282    1.8313 C   0  0  0  0  0  0  0  0  0  0  0  0
    1.7299   -5.2238    2.1345 C   0  0  0  0  0  0  0  0  0  0  0  0
    3.0654   -4.6797    2.6882 C   0  0  2  0  0  0  0  0  0  0  0  0
    2.9174   -3.2061    3.1510 C   0  0  0  0  0  0  0  0  0  0  0  0
    4.1633   -2.5753    3.6158 N   0  0  0  0  0  0  0  0  0  0  0  0
    4.4513   -2.8953    5.0104 C   0  0  0  0  0  0  0  0  0  0  0  0
    5.3388   -2.7838    2.7525 C   0  0  2  0  0  0  0  0  0  0  0  0
    5.2677   -1.9325    1.4497 C   0  0  0  0  0  0  0  0  0  0  0  0
    4.5268   -2.6532    0.3749 C   0  0  0  0  0  0  0  0  0  0  0  0
    4.0463   -3.9425    0.4559 C   0  0  0  0  0  0  0  0  0  0  0  0
    3.4084   -4.2419   -0.7444 N   0  0  0  0  0  0  0  0  0  0  0  0
    3.5213   -3.1849   -1.5531 C   0  0  0  0  0  0  0  0  0  0  0  0
    3.0604   -3.0531   -2.8525 C   0  0  0  0  0  0  0  0  0  0  0  0
    3.3023   -1.8541   -3.4795 C   0  0  0  0  0  0  0  0  0  0  0  0
    4.0054   -0.8342   -2.7889 C   0  0  0  0  0  0  0  0  0  0  0  0
    4.4577   -1.0412   -1.4976 C   0  0  0  0  0  0  0  0  0  0  0  0
    4.1825   -2.2543   -0.9001 N   0  0  0  0  0  0  0  0  0  0  0  0
    4.2471   -4.7818    1.6971 C   0  0  1  0  0  0  0  0  0  0  0  0
    5.5063   -4.2924    2.4387 C   0  0  0  0  0  0  0  0  0  0  0  0
    0.6942   -7.0357    1.5192 H   0  0  0  0  0  0  0  0  0  0  0  0
    1.9498   -7.3177    2.7110 H   0  0  0  0  0  0  0  0  0  0  0  0
    2.3749   -6.9945    1.0262 H   0  0  0  0  0  0  0  0  0  0  0  0
    1.4769   -4.6798    1.2319 H   0  0  0  0  0  0  0  0  0  0  0  0
    0.9448   -5.0064    2.8589 H   0  0  0  0  0  0  0  0  0  0  0  0
    3.3053   -5.2862    3.5617 H   0  0  0  0  0  0  0  0  0  0  0  0
    2.5147   -2.6086    2.3327 H   0  0  0  0  0  0  0  0  0  0  0  0
    2.1777   -3.1565    3.9482 H   0  0  0  0  0  0  0  0  0  0  0  0
    5.3186   -2.3295    5.3541 H   0  0  0  0  0  0  0  0  0  0  0  0
    4.6484   -3.9564    5.1672 H   0  0  0  0  0  0  0  0  0  0  0  0
    3.6144   -2.6059    5.6465 H   0  0  0  0  0  0  0  0  0  0  0  0
    6.2040   -2.4157    3.3050 H   0  0  0  0  0  0  0  0  0  0  0  0
    4.8191   -0.9561    1.6393 H   0  0  0  0  0  0  0  0  0  0  0  0
    6.2880   -1.7486    1.1030 H   0  0  0  0  0  0  0  0  0  0  0  0
    2.5127   -3.8547   -3.3328 H   0  0  0  0  0  0  0  0  0  0  0  0
    2.9331   -1.6840   -4.4891 H   0  0  0  0  0  0  0  0  0  0  0  0
    4.1523    0.1309   -3.2687 H   0  0  0  0  0  0  0  0  0  0  0  0
    4.9629   -0.3006   -0.8840 H   0  0  0  0  0  0  0  0  0  0  0  0
    4.4043   -5.8184    1.4092 H   0  0  0  0  0  0  0  0  0  0  0  0
    6.3853   -4.4390    1.8052 H   0  0  0  0  0  0  0  0  0  0  0  0
    5.6835   -4.8804    3.3407 H   0  0  0  0  0  0  0  0  0  0  0  0
    3.0116   -5.1321   -1.0453 H   0  0  0  0  0  0  0  0  0  0  0  0
  1  2  1  0
  1 20  1  0
  1 21  1  0
  1 22  1  0
  2  3  1  0
  2 23  1  0
  2 24  1  0
  3 18  1  0
  3  4  1  0
  3 25  1  1
  4  5  1  0
  4 26  1  0
  4 27  1  0
  5  6  1  0
  5  7  1  0
  6 28  1  0
  6 29  1  0
  6 30  1  0
  7 19  1  0
  7  8  1  0
  7 31  1  1
  8  9  1  0
  8 32  1  0
  8 33  1  0
  9 17  1  0
  9 10  2  0
 10 11  1  0
 10 18  1  0
 11 12  2  0
 11 41  1  0
 12 17  1  0
 12 13  1  0
 13 14  2  0
 13 34  1  0
 14 15  1  0
 14 35  1  0
 15 16  2  0
 15 36  1  0
 16 17  1  0
 16 37  1  0
 18 19  1  0
 18 38  1  6
 19 39  1  0
 19 40  1  0
M  CHG  1  11   1
M  END
>  <i_m_ct_stereo_status>  (358) 
1

>  <s_m_source_file>  (358) 
/var/tmp/pbs.5076255.sched01/tmpzqmxgpmu/1265eqpa8lp.sdf

>  <i_m_source_file_index>  (358) 
26

>  <i_lp_mmshare_version>  (358) 
48012

>  <i_f3d_flags>  (358) 
0

>  <s_epik_input>  (358) 
W0NIM11OKFtDSF0xMilbQ0gyXVtDQEBIXShbQ0gyXVtDSDNdKVtDSF0oW0NIMl0yKWMzYyhbQ0gyXTEpbjRjKG4zKVtjSF1bY0hdW2NIXVtjSF00

>  <s_epik_cmdline>  (358) 
J2VwaWtfcHl0aG9uJywgJy1waHQnLCAnMi4wJywgJy1waCcsICc3LjAnLCAnLXRuJywgJzgnLCAnLW1hJywgJzIwMCcsICctaW1hZScsICc8aW5maWxlLm1hZT4nLCAnLW9tYWUnLCAnPG91dGZpbGUubWFlPic=

>  <r_epik_Ionization_Penalty>  (358) 
0.771697

>  <r_epik_Ionization_Penalty_Charging>  (358) 
0

>  <r_epik_Ionization_Penalty_Neutral>  (358) 
0.771697

>  <r_epik_State_Penalty>  (358) 
1.27436

>  <r_epik_Charging_Adjusted_Penalty>  (358) 
1.27436

>  <i_epik_Tot_Q>  (358) 
1

>  <i_epik_Tot_abs_Q>  (358) 
1

>  <s_lp_Force_Field>  (358) 
OPLS3e

>  <r_lp_Energy>  (358) 
34.3172

>  <b_lp_Chiralities_Consistent>  (358) 
1

>  <s_lp_Variant>  (358) 
107:0-2

>  <s_i_glide_gridfile>  (358) 
pfpi4k_grid

>  <i_i_glide_lignum>  (358) 
26

>  <i_i_glide_rotatable_bonds>  (358) 
1

>  <r_i_docking_score>  (358) 
-3.74223

>  <r_i_glide_ligand_efficiency>  (358) 
-0.196959

>  <r_i_glide_ligand_efficiency_sa>  (358) 
-0.525566

>  <r_i_glide_ligand_efficiency_ln>  (358) 
-0.948735

>  <r_i_glide_gscore>  (358) 
-3.74223

>  <r_i_glide_lipo>  (358) 
-0.443693

>  <r_i_glide_hbond>  (358) 
0

>  <r_i_glide_metal>  (358) 
-0

>  <r_i_glide_rewards>  (358) 
-1.67915

>  <r_i_glide_evdw>  (358) 
-17.2721

>  <r_i_glide_ecoul>  (358) 
-4.63574

>  <r_i_glide_erotb>  (358) 
0

>  <r_i_glide_esite>  (358) 
-0.0604162

>  <r_i_glide_emodel>  (358) 
-26.5457

>  <r_i_glide_energy>  (358) 
-21.9078

>  <r_i_glide_einternal>  (358) 
0.0159625

>  <r_i_glide_intrahb_reward>  (358) 
-0

>  <i_i_glide_confnum>  (358) 
2

>  <i_i_glide_posenum>  (358) 
4

>  <r_i_glide_eff_state_penalty>  (358) 
0

>  <ligand_id>  (358) 
107

>  <original_smiles>  (358) 
CCC1CN(C)C2Cc3c(nc4ccccn34)C1C2

>  <smiles>  (358) 
[H]c1c([H])c([H])n2c3c([n+]([H])c2c1[H])C1([H])C([H])([H])C([H])(N(C([H])([H])[H])C([H])([H])C1([H])C([H])([H])C([H])([H])[H])C3([H])[H]

$$$$
107:1:2
     RDKit          3D

 41 44  0  0  1  0  0  0  0  0999 V2000
    4.4724   -8.4088    0.9138 C   0  0  0  0  0  0  0  0  0  0  0  0
    3.5780   -7.1702    1.0904 C   0  0  0  0  0  0  0  0  0  0  0  0
    4.0918   -6.1264    2.1115 C   0  0  2  0  0  0  0  0  0  0  0  0
    2.9450   -5.1879    2.5669 C   0  0  0  0  0  0  0  0  0  0  0  0
    3.3516   -4.1018    3.4758 N   0  0  0  0  0  0  0  0  0  0  0  0
    3.4144   -4.5488    4.8643 C   0  0  0  0  0  0  0  0  0  0  0  0
    4.5678   -3.3635    3.0841 C   0  0  2  0  0  0  0  0  0  0  0  0
    4.3007   -2.4141    1.8751 C   0  0  0  0  0  0  0  0  0  0  0  0
    4.4964   -3.1203    0.5675 C   0  0  0  0  0  0  0  0  0  0  0  0
    4.9470   -4.4118    0.4104 C   0  0  0  0  0  0  0  0  0  0  0  0
    5.0073   -4.6831   -0.9583 N   0  0  0  0  0  0  0  0  0  0  0  0
    4.6073   -3.6056   -1.6207 C   0  0  0  0  0  0  0  0  0  0  0  0
    4.4931   -3.4443   -2.9937 C   0  0  0  0  0  0  0  0  0  0  0  0
    4.0389   -2.2184   -3.4257 C   0  0  0  0  0  0  0  0  0  0  0  0
    3.7347   -1.1999   -2.4851 C   0  0  0  0  0  0  0  0  0  0  0  0
    3.8697   -1.4355   -1.1260 C   0  0  0  0  0  0  0  0  0  0  0  0
    4.3129   -2.6748   -0.7271 N   0  0  0  0  0  0  0  0  0  0  0  0
    5.2842   -5.2784    1.6027 C   0  0  1  0  0  0  0  0  0  0  0  0
    5.7096   -4.3652    2.7693 C   0  0  0  0  0  0  0  0  0  0  0  0
    4.0034   -9.1332    0.2472 H   0  0  0  0  0  0  0  0  0  0  0  0
    4.6442   -8.9211    1.8609 H   0  0  0  0  0  0  0  0  0  0  0  0
    5.4374   -8.1512    0.4864 H   0  0  0  0  0  0  0  0  0  0  0  0
    3.4117   -6.6875    0.1279 H   0  0  0  0  0  0  0  0  0  0  0  0
    2.6012   -7.5287    1.4159 H   0  0  0  0  0  0  0  0  0  0  0  0
    4.4258   -6.6848    2.9861 H   0  0  0  0  0  0  0  0  0  0  0  0
    2.4789   -4.7449    1.6872 H   0  0  0  0  0  0  0  0  0  0  0  0
    2.1692   -5.7810    3.0492 H   0  0  0  0  0  0  0  0  0  0  0  0
    3.6115   -3.7010    5.5222 H   0  0  0  0  0  0  0  0  0  0  0  0
    4.1901   -5.2972    5.0289 H   0  0  0  0  0  0  0  0  0  0  0  0
    2.4590   -4.9738    5.1736 H   0  0  0  0  0  0  0  0  0  0  0  0
    4.8560   -2.7330    3.9304 H   0  0  0  0  0  0  0  0  0  0  0  0
    3.3106   -1.9614    1.9383 H   0  0  0  0  0  0  0  0  0  0  0  0
    5.0185   -1.5959    1.9253 H   0  0  0  0  0  0  0  0  0  0  0  0
    4.7233   -4.2688   -3.6546 H   0  0  0  0  0  0  0  0  0  0  0  0
    3.8951   -2.0216   -4.4841 H   0  0  0  0  0  0  0  0  0  0  0  0
    3.3615   -0.2413   -2.8363 H   0  0  0  0  0  0  0  0  0  0  0  0
    3.6289   -0.7224   -0.3437 H   0  0  0  0  0  0  0  0  0  0  0  0
    6.1167   -5.9326    1.3506 H   0  0  0  0  0  0  0  0  0  0  0  0
    6.6004   -3.8163    2.4703 H   0  0  0  0  0  0  0  0  0  0  0  0
    5.9878   -4.9503    3.6452 H   0  0  0  0  0  0  0  0  0  0  0  0
    5.2515   -5.5664   -1.3893 H   0  0  0  0  0  0  0  0  0  0  0  0
  1  2  1  0
  1 20  1  0
  1 21  1  0
  1 22  1  0
  2  3  1  0
  2 23  1  0
  2 24  1  0
  3 18  1  0
  3  4  1  0
  3 25  1  1
  4  5  1  0
  4 26  1  0
  4 27  1  0
  5  6  1  0
  5  7  1  0
  6 28  1  0
  6 29  1  0
  6 30  1  0
  7 19  1  0
  7  8  1  0
  7 31  1  1
  8  9  1  0
  8 32  1  0
  8 33  1  0
  9 17  1  0
  9 10  2  0
 10 11  1  0
 10 18  1  0
 11 12  2  0
 11 41  1  0
 12 17  1  0
 12 13  1  0
 13 14  2  0
 13 34  1  0
 14 15  1  0
 14 35  1  0
 15 16  2  0
 15 36  1  0
 16 17  1  0
 16 37  1  0
 18 19  1  0
 18 38  1  6
 19 39  1  0
 19 40  1  0
M  CHG  1  11   1
M  END
>  <i_m_ct_stereo_status>  (359) 
1

>  <s_m_source_file>  (359) 
/var/tmp/pbs.5076255.sched01/tmpzqmxgpmu/1265eqpa8lp.sdf

>  <i_m_source_file_index>  (359) 
26

>  <i_lp_mmshare_version>  (359) 
48012

>  <i_f3d_flags>  (359) 
0

>  <s_epik_input>  (359) 
W0NIM11OKFtDSF0xMilbQ0gyXVtDQEBIXShbQ0gyXVtDSDNdKVtDSF0oW0NIMl0yKWMzYyhbQ0gyXTEpbjRjKG4zKVtjSF1bY0hdW2NIXVtjSF00

>  <s_epik_cmdline>  (359) 
J2VwaWtfcHl0aG9uJywgJy1waHQnLCAnMi4wJywgJy1waCcsICc3LjAnLCAnLXRuJywgJzgnLCAnLW1hJywgJzIwMCcsICctaW1hZScsICc8aW5maWxlLm1hZT4nLCAnLW9tYWUnLCAnPG91dGZpbGUubWFlPic=

>  <r_epik_Ionization_Penalty>  (359) 
0.771697

>  <r_epik_Ionization_Penalty_Charging>  (359) 
0

>  <r_epik_Ionization_Penalty_Neutral>  (359) 
0.771697

>  <r_epik_State_Penalty>  (359) 
1.27436

>  <r_epik_Charging_Adjusted_Penalty>  (359) 
1.27436

>  <i_epik_Tot_Q>  (359) 
1

>  <i_epik_Tot_abs_Q>  (359) 
1

>  <s_lp_Force_Field>  (359) 
OPLS3e

>  <r_lp_Energy>  (359) 
34.3172

>  <b_lp_Chiralities_Consistent>  (359) 
1

>  <s_lp_Variant>  (359) 
107:0-2

>  <s_i_glide_gridfile>  (359) 
pfpi4k_grid

>  <i_i_glide_lignum>  (359) 
26

>  <i_i_glide_rotatable_bonds>  (359) 
1

>  <r_i_docking_score>  (359) 
-3.12481

>  <r_i_glide_ligand_efficiency>  (359) 
-0.164464

>  <r_i_glide_ligand_efficiency_sa>  (359) 
-0.438855

>  <r_i_glide_ligand_efficiency_ln>  (359) 
-0.792206

>  <r_i_glide_gscore>  (359) 
-3.12481

>  <r_i_glide_lipo>  (359) 
-0.505604

>  <r_i_glide_hbond>  (359) 
0

>  <r_i_glide_metal>  (359) 
-0

>  <r_i_glide_rewards>  (359) 
-1.66114

>  <r_i_glide_evdw>  (359) 
-18.9762

>  <r_i_glide_ecoul>  (359) 
0.152303

>  <r_i_glide_erotb>  (359) 
0

>  <r_i_glide_esite>  (359) 
-0.0321025

>  <r_i_glide_emodel>  (359) 
-22.4424

>  <r_i_glide_energy>  (359) 
-18.8238

>  <r_i_glide_einternal>  (359) 
0.407761

>  <r_i_glide_intrahb_reward>  (359) 
-0

>  <i_i_glide_confnum>  (359) 
1

>  <i_i_glide_posenum>  (359) 
37

>  <r_i_glide_eff_state_penalty>  (359) 
0

>  <ligand_id>  (359) 
107

>  <original_smiles>  (359) 
CCC1CN(C)C2Cc3c(nc4ccccn34)C1C2

>  <smiles>  (359) 
[H]c1c([H])c([H])n2c3c([n+]([H])c2c1[H])C1([H])C([H])([H])C([H])(N(C([H])([H])[H])C([H])([H])C1([H])C([H])([H])C([H])([H])[H])C3([H])[H]

$$$$
107:3:0
     RDKit          3D

 40 43  0  0  1  0  0  0  0  0999 V2000
    8.0996   -2.7506   -1.7525 C   0  0  0  0  0  0  0  0  0  0  0  0
    8.3581   -2.6262   -0.2262 C   0  0  0  0  0  0  0  0  0  0  0  0
    7.3384   -3.3267    0.7139 C   0  0  2  0  0  0  0  0  0  0  0  0
    6.9321   -4.7467    0.2446 C   0  0  0  0  0  0  0  0  0  0  0  0
    5.9428   -5.4423    1.0784 N   0  0  0  0  0  0  0  0  0  0  0  0
    6.5569   -6.1275    2.2020 C   0  0  0  0  0  0  0  0  0  0  0  0
    4.7787   -4.6275    1.4682 C   0  0  2  0  0  0  0  0  0  0  0  0
    3.8393   -4.3646    0.2445 C   0  0  0  0  0  0  0  0  0  0  0  0
    4.2046   -3.1233   -0.5060 C   0  0  0  0  0  0  0  0  0  0  0  0
    5.1786   -2.2488   -0.1256 C   0  0  0  0  0  0  0  0  0  0  0  0
    5.2462   -1.1558   -0.9736 N   0  0  0  0  0  0  0  0  0  0  0  0
    4.3453   -1.3982   -1.9319 C   0  0  0  0  0  0  0  0  0  0  0  0
    4.0297   -0.7085   -3.1169 C   0  0  0  0  0  0  0  0  0  0  0  0
    3.0227   -1.1805   -3.9413 C   0  0  0  0  0  0  0  0  0  0  0  0
    2.3283   -2.3543   -3.6058 C   0  0  0  0  0  0  0  0  0  0  0  0
    2.6392   -3.0589   -2.4714 C   0  0  0  0  0  0  0  0  0  0  0  0
    3.6453   -2.6116   -1.6553 N   0  0  0  0  0  0  0  0  0  0  0  0
    6.0772   -2.4898    1.0530 C   0  0  1  0  0  0  0  0  0  0  0  0
    5.2648   -3.2858    2.0967 C   0  0  0  0  0  0  0  0  0  0  0  0
    8.9115   -2.2499   -2.2826 H   0  0  0  0  0  0  0  0  0  0  0  0
    7.1567   -2.3137   -2.0739 H   0  0  0  0  0  0  0  0  0  0  0  0
    8.1142   -3.8020   -2.0693 H   0  0  0  0  0  0  0  0  0  0  0  0
    9.3442   -3.0397   -0.0172 H   0  0  0  0  0  0  0  0  0  0  0  0
    8.4441   -1.5793    0.0746 H   0  0  0  0  0  0  0  0  0  0  0  0
    7.8856   -3.4703    1.6480 H   0  0  0  0  0  0  0  0  0  0  0  0
    6.4330   -4.6600   -0.7142 H   0  0  0  0  0  0  0  0  0  0  0  0
    7.8264   -5.3616    0.1343 H   0  0  0  0  0  0  0  0  0  0  0  0
    5.7944   -6.7187    2.7141 H   0  0  0  0  0  0  0  0  0  0  0  0
    7.0051   -5.4256    2.9048 H   0  0  0  0  0  0  0  0  0  0  0  0
    7.3272   -6.8119    1.8392 H   0  0  0  0  0  0  0  0  0  0  0  0
    4.2083   -5.2082    2.1953 H   0  0  0  0  0  0  0  0  0  0  0  0
    3.7775   -5.2360   -0.4100 H   0  0  0  0  0  0  0  0  0  0  0  0
    2.8394   -4.1884    0.6397 H   0  0  0  0  0  0  0  0  0  0  0  0
    4.5651    0.1958   -3.3664 H   0  0  0  0  0  0  0  0  0  0  0  0
    2.7404   -0.6033   -4.8187 H   0  0  0  0  0  0  0  0  0  0  0  0
    1.4912   -2.6995   -4.2130 H   0  0  0  0  0  0  0  0  0  0  0  0
    2.1221   -3.9614   -2.1684 H   0  0  0  0  0  0  0  0  0  0  0  0
    6.3702   -1.5280    1.4652 H   0  0  0  0  0  0  0  0  0  0  0  0
    4.3977   -2.6921    2.3874 H   0  0  0  0  0  0  0  0  0  0  0  0
    5.8362   -3.4515    3.0108 H   0  0  0  0  0  0  0  0  0  0  0  0
  1  2  1  0
  1 20  1  0
  1 21  1  0
  1 22  1  0
  2  3  1  0
  2 23  1  0
  2 24  1  0
  3 18  1  0
  3  4  1  0
  3 25  1  1
  4  5  1  0
  4 26  1  0
  4 27  1  0
  5  6  1  0
  5  7  1  0
  6 28  1  0
  6 29  1  0
  6 30  1  0
  7 19  1  0
  7  8  1  0
  7 31  1  1
  8  9  1  0
  8 32  1  0
  8 33  1  0
  9 17  1  0
  9 10  2  0
 10 11  1  0
 10 18  1  0
 11 12  2  0
 12 17  1  0
 12 13  1  0
 13 14  2  0
 13 34  1  0
 14 15  1  0
 14 35  1  0
 15 16  2  0
 15 36  1  0
 16 17  1  0
 16 37  1  0
 18 19  1  0
 18 38  1  1
 19 39  1  0
 19 40  1  0
M  END
>  <i_m_ct_stereo_status>  (360) 
1

>  <s_m_source_file>  (360) 
/var/tmp/pbs.5076255.sched01/tmpzqmxgpmu/1265eqpa8lp.sdf

>  <i_m_source_file_index>  (360) 
28

>  <i_lp_mmshare_version>  (360) 
48012

>  <i_f3d_flags>  (360) 
0

>  <s_epik_input>  (360) 
W0NIM11OKFtDSF0xMilbQ0gyXVtDQEBIXShbQ0gyXVtDSDNdKVtDSF0oW0NIMl0yKWMzYyhbQ0gyXTEpbjRjKG4zKVtjSF1bY0hdW2NIXVtjSF00

>  <s_epik_cmdline>  (360) 
J2VwaWtfcHl0aG9uJywgJy1waHQnLCAnMi4wJywgJy1waCcsICc3LjAnLCAnLXRuJywgJzgnLCAnLW1hJywgJzIwMCcsICctaW1hZScsICc8aW5maWxlLm1hZT4nLCAnLW9tYWUnLCAnPG91dGZpbGUubWFlPic=

>  <r_epik_Ionization_Penalty>  (360) 
3.69979

>  <r_epik_Ionization_Penalty_Charging>  (360) 
2.16531

>  <r_epik_Ionization_Penalty_Neutral>  (360) 
1.53447

>  <r_epik_State_Penalty>  (360) 
2.64252

>  <r_epik_Charging_Adjusted_Penalty>  (360) 
4.80783

>  <i_epik_Tot_Q>  (360) 
0

>  <i_epik_Tot_abs_Q>  (360) 
0

>  <s_lp_Force_Field>  (360) 
OPLS3e

>  <r_lp_Energy>  (360) 
31.1706

>  <b_lp_Chiralities_Consistent>  (360) 
1

>  <s_lp_Variant>  (360) 
107:0-4

>  <s_i_glide_gridfile>  (360) 
pfpi4k_grid

>  <i_i_glide_lignum>  (360) 
28

>  <i_i_glide_rotatable_bonds>  (360) 
1

>  <r_i_docking_score>  (360) 
-4.28497

>  <r_i_glide_ligand_efficiency>  (360) 
-0.225525

>  <r_i_glide_ligand_efficiency_sa>  (360) 
-0.60179

>  <r_i_glide_ligand_efficiency_ln>  (360) 
-1.08633

>  <r_i_glide_gscore>  (360) 
-4.28497

>  <r_i_glide_lipo>  (360) 
-1.03513

>  <r_i_glide_hbond>  (360) 
0

>  <r_i_glide_metal>  (360) 
-0

>  <r_i_glide_rewards>  (360) 
-1.66801

>  <r_i_glide_evdw>  (360) 
-23.5888

>  <r_i_glide_ecoul>  (360) 
-2.1814

>  <r_i_glide_erotb>  (360) 
0

>  <r_i_glide_esite>  (360) 
-0.0751774

>  <r_i_glide_emodel>  (360) 
-30.4821

>  <r_i_glide_energy>  (360) 
-25.7702

>  <r_i_glide_einternal>  (360) 
3.20796

>  <r_i_glide_intrahb_reward>  (360) 
-0

>  <i_i_glide_confnum>  (360) 
2

>  <i_i_glide_posenum>  (360) 
40

>  <r_i_glide_eff_state_penalty>  (360) 
0

>  <ligand_id>  (360) 
107

>  <original_smiles>  (360) 
CCC1CN(C)C2Cc3c(nc4ccccn34)C1C2

>  <smiles>  (360) 
[H]c1c([H])c([H])n2c3c(nc2c1[H])C1([H])C([H])([H])C([H])(N(C([H])([H])[H])C([H])([H])C1([H])C([H])([H])C([H])([H])[H])C3([H])[H]

$$$$
107:3:1
     RDKit          3D

 40 43  0  0  1  0  0  0  0  0999 V2000
    9.1269   -2.7988    0.4964 C   0  0  0  0  0  0  0  0  0  0  0  0
    8.2437   -3.9550    0.0022 C   0  0  0  0  0  0  0  0  0  0  0  0
    7.1753   -4.4231    1.0245 C   0  0  2  0  0  0  0  0  0  0  0  0
    6.4831   -5.7411    0.5801 C   0  0  0  0  0  0  0  0  0  0  0  0
    5.3917   -6.2026    1.4555 N   0  0  0  0  0  0  0  0  0  0  0  0
    5.8964   -6.9413    2.6066 C   0  0  0  0  0  0  0  0  0  0  0  0
    4.4205   -5.1652    1.8541 C   0  0  2  0  0  0  0  0  0  0  0  0
    3.4872   -4.7740    0.6683 C   0  0  0  0  0  0  0  0  0  0  0  0
    4.0847   -3.6871   -0.1732 C   0  0  0  0  0  0  0  0  0  0  0  0
    5.2481   -3.0402    0.1086 C   0  0  0  0  0  0  0  0  0  0  0  0
    5.5447   -2.0770   -0.8521 N   0  0  0  0  0  0  0  0  0  0  0  0
    4.5324   -2.1337   -1.7204 C   0  0  0  0  0  0  0  0  0  0  0  0
    4.2707   -1.3977   -2.9052 C   0  0  0  0  0  0  0  0  0  0  0  0
    3.1430   -1.6573   -3.6445 C   0  0  0  0  0  0  0  0  0  0  0  0
    2.2375   -2.6568   -3.2249 C   0  0  0  0  0  0  0  0  0  0  0  0
    2.4647   -3.3730   -2.0706 C   0  0  0  0  0  0  0  0  0  0  0  0
    3.5902   -3.1238   -1.3411 N   0  0  0  0  0  0  0  0  0  0  0  0
    6.0932   -3.3528    1.3125 C   0  0  1  0  0  0  0  0  0  0  0  0
    5.1741   -3.9224    2.4103 C   0  0  0  0  0  0  0  0  0  0  0  0
    9.8143   -2.4787   -0.2824 H   0  0  0  0  0  0  0  0  0  0  0  0
    9.7266   -3.0978    1.3552 H   0  0  0  0  0  0  0  0  0  0  0  0
    8.5385   -1.9243    0.7742 H   0  0  0  0  0  0  0  0  0  0  0  0
    7.7662   -3.6657   -0.9350 H   0  0  0  0  0  0  0  0  0  0  0  0
    8.8910   -4.7968   -0.2472 H   0  0  0  0  0  0  0  0  0  0  0  0
    7.7028   -4.6429    1.9506 H   0  0  0  0  0  0  0  0  0  0  0  0
    6.0585   -5.6079   -0.4119 H   0  0  0  0  0  0  0  0  0  0  0  0
    7.2307   -6.5295    0.4927 H   0  0  0  0  0  0  0  0  0  0  0  0
    5.0610   -7.3520    3.1744 H   0  0  0  0  0  0  0  0  0  0  0  0
    6.4926   -6.3150    3.2716 H   0  0  0  0  0  0  0  0  0  0  0  0
    6.5099   -7.7813    2.2777 H   0  0  0  0  0  0  0  0  0  0  0  0
    3.7856   -5.5936    2.6358 H   0  0  0  0  0  0  0  0  0  0  0  0
    3.2338   -5.6424    0.0595 H   0  0  0  0  0  0  0  0  0  0  0  0
    2.5553   -4.3959    1.0849 H   0  0  0  0  0  0  0  0  0  0  0  0
    4.9695   -0.6317   -3.2073 H   0  0  0  0  0  0  0  0  0  0  0  0
    2.9427   -1.0877   -4.5453 H   0  0  0  0  0  0  0  0  0  0  0  0
    1.3450   -2.8705   -3.8124 H   0  0  0  0  0  0  0  0  0  0  0  0
    1.7987   -4.1560   -1.7194 H   0  0  0  0  0  0  0  0  0  0  0  0
    6.5442   -2.4383    1.6848 H   0  0  0  0  0  0  0  0  0  0  0  0
    4.4482   -3.1606    2.6935 H   0  0  0  0  0  0  0  0  0  0  0  0
    5.7401   -4.1561    3.3129 H   0  0  0  0  0  0  0  0  0  0  0  0
  1  2  1  0
  1 20  1  0
  1 21  1  0
  1 22  1  0
  2  3  1  0
  2 23  1  0
  2 24  1  0
  3 18  1  0
  3  4  1  0
  3 25  1  1
  4  5  1  0
  4 26  1  0
  4 27  1  0
  5  6  1  0
  5  7  1  0
  6 28  1  0
  6 29  1  0
  6 30  1  0
  7 19  1  0
  7  8  1  0
  7 31  1  1
  8  9  1  0
  8 32  1  0
  8 33  1  0
  9 17  1  0
  9 10  2  0
 10 11  1  0
 10 18  1  0
 11 12  2  0
 12 17  1  0
 12 13  1  0
 13 14  2  0
 13 34  1  0
 14 15  1  0
 14 35  1  0
 15 16  2  0
 15 36  1  0
 16 17  1  0
 16 37  1  0
 18 19  1  0
 18 38  1  1
 19 39  1  0
 19 40  1  0
M  END
>  <i_m_ct_stereo_status>  (361) 
1

>  <s_m_source_file>  (361) 
/var/tmp/pbs.5076255.sched01/tmpzqmxgpmu/1265eqpa8lp.sdf

>  <i_m_source_file_index>  (361) 
28

>  <i_lp_mmshare_version>  (361) 
48012

>  <i_f3d_flags>  (361) 
0

>  <s_epik_input>  (361) 
W0NIM11OKFtDSF0xMilbQ0gyXVtDQEBIXShbQ0gyXVtDSDNdKVtDSF0oW0NIMl0yKWMzYyhbQ0gyXTEpbjRjKG4zKVtjSF1bY0hdW2NIXVtjSF00

>  <s_epik_cmdline>  (361) 
J2VwaWtfcHl0aG9uJywgJy1waHQnLCAnMi4wJywgJy1waCcsICc3LjAnLCAnLXRuJywgJzgnLCAnLW1hJywgJzIwMCcsICctaW1hZScsICc8aW5maWxlLm1hZT4nLCAnLW9tYWUnLCAnPG91dGZpbGUubWFlPic=

>  <r_epik_Ionization_Penalty>  (361) 
3.69979

>  <r_epik_Ionization_Penalty_Charging>  (361) 
2.16531

>  <r_epik_Ionization_Penalty_Neutral>  (361) 
1.53447

>  <r_epik_State_Penalty>  (361) 
2.64252

>  <r_epik_Charging_Adjusted_Penalty>  (361) 
4.80783

>  <i_epik_Tot_Q>  (361) 
0

>  <i_epik_Tot_abs_Q>  (361) 
0

>  <s_lp_Force_Field>  (361) 
OPLS3e

>  <r_lp_Energy>  (361) 
31.1706

>  <b_lp_Chiralities_Consistent>  (361) 
1

>  <s_lp_Variant>  (361) 
107:0-4

>  <s_i_glide_gridfile>  (361) 
pfpi4k_grid

>  <i_i_glide_lignum>  (361) 
28

>  <i_i_glide_rotatable_bonds>  (361) 
1

>  <r_i_docking_score>  (361) 
-4.09461

>  <r_i_glide_ligand_efficiency>  (361) 
-0.215506

>  <r_i_glide_ligand_efficiency_sa>  (361) 
-0.575056

>  <r_i_glide_ligand_efficiency_ln>  (361) 
-1.03807

>  <r_i_glide_gscore>  (361) 
-4.09461

>  <r_i_glide_lipo>  (361) 
-1.06244

>  <r_i_glide_hbond>  (361) 
0

>  <r_i_glide_metal>  (361) 
-0

>  <r_i_glide_rewards>  (361) 
-1.66801

>  <r_i_glide_evdw>  (361) 
-22.2795

>  <r_i_glide_ecoul>  (361) 
-1.50306

>  <r_i_glide_erotb>  (361) 
0

>  <r_i_glide_esite>  (361) 
-0.0247167

>  <r_i_glide_emodel>  (361) 
-29.8025

>  <r_i_glide_energy>  (361) 
-23.7826

>  <r_i_glide_einternal>  (361) 
0.415327

>  <r_i_glide_intrahb_reward>  (361) 
-0

>  <i_i_glide_confnum>  (361) 
2

>  <i_i_glide_posenum>  (361) 
36

>  <r_i_glide_eff_state_penalty>  (361) 
0

>  <ligand_id>  (361) 
107

>  <original_smiles>  (361) 
CCC1CN(C)C2Cc3c(nc4ccccn34)C1C2

>  <smiles>  (361) 
[H]c1c([H])c([H])n2c3c(nc2c1[H])C1([H])C([H])([H])C([H])(N(C([H])([H])[H])C([H])([H])C1([H])C([H])([H])C([H])([H])[H])C3([H])[H]

$$$$
107:3:2
     RDKit          3D

 40 43  0  0  1  0  0  0  0  0999 V2000
    3.8029   -2.2793   -2.8743 C   0  0  0  0  0  0  0  0  0  0  0  0
    3.8799   -1.6987   -1.4547 C   0  0  0  0  0  0  0  0  0  0  0  0
    3.9660   -2.7567   -0.3279 C   0  0  2  0  0  0  0  0  0  0  0  0
    2.6668   -3.5982   -0.1985 C   0  0  0  0  0  0  0  0  0  0  0  0
    2.6602   -4.5606    0.9219 N   0  0  0  0  0  0  0  0  0  0  0  0
    3.3578   -5.7935    0.5726 C   0  0  0  0  0  0  0  0  0  0  0  0
    3.1273   -4.0305    2.2202 C   0  0  2  0  0  0  0  0  0  0  0  0
    2.0658   -3.0838    2.8600 C   0  0  0  0  0  0  0  0  0  0  0  0
    2.2270   -1.6747    2.3836 C   0  0  0  0  0  0  0  0  0  0  0  0
    3.2340   -1.2378    1.5778 C   0  0  0  0  0  0  0  0  0  0  0  0
    3.1401    0.1257    1.3326 N   0  0  0  0  0  0  0  0  0  0  0  0
    2.0485    0.5243    1.9859 C   0  0  0  0  0  0  0  0  0  0  0  0
    1.4288    1.7915    2.1127 C   0  0  0  0  0  0  0  0  0  0  0  0
    0.2919    1.9374    2.8651 C   0  0  0  0  0  0  0  0  0  0  0  0
   -0.2684    0.8263    3.5361 C   0  0  0  0  0  0  0  0  0  0  0  0
    0.3223   -0.4132    3.4366 C   0  0  0  0  0  0  0  0  0  0  0  0
    1.4433   -0.5665    2.6716 N   0  0  0  0  0  0  0  0  0  0  0  0
    4.3162   -2.1349    1.0461 C   0  0  1  0  0  0  0  0  0  0  0  0
    4.4917   -3.3026    2.0380 C   0  0  0  0  0  0  0  0  0  0  0  0
    3.7964   -1.4797   -3.6141 H   0  0  0  0  0  0  0  0  0  0  0  0
    2.8921   -2.8588   -3.0210 H   0  0  0  0  0  0  0  0  0  0  0  0
    4.6553   -2.9238   -3.0896 H   0  0  0  0  0  0  0  0  0  0  0  0
    4.7472   -1.0410   -1.3984 H   0  0  0  0  0  0  0  0  0  0  0  0
    3.0139   -1.0550   -1.2876 H   0  0  0  0  0  0  0  0  0  0  0  0
    4.7825   -3.4256   -0.5991 H   0  0  0  0  0  0  0  0  0  0  0  0
    1.8182   -2.9262   -0.0801 H   0  0  0  0  0  0  0  0  0  0  0  0
    2.4880   -4.1382   -1.1267 H   0  0  0  0  0  0  0  0  0  0  0  0
    3.2514   -6.5236    1.3782 H   0  0  0  0  0  0  0  0  0  0  0  0
    4.4222   -5.6344    0.3894 H   0  0  0  0  0  0  0  0  0  0  0  0
    2.9191   -6.2359   -0.3213 H   0  0  0  0  0  0  0  0  0  0  0  0
    3.2511   -4.8784    2.8961 H   0  0  0  0  0  0  0  0  0  0  0  0
    1.0531   -3.4453    2.6866 H   0  0  0  0  0  0  0  0  0  0  0  0
    2.2128   -3.0950    3.9400 H   0  0  0  0  0  0  0  0  0  0  0  0
    1.8457    2.6492    1.5977 H   0  0  0  0  0  0  0  0  0  0  0  0
   -0.1739    2.9179    2.9244 H   0  0  0  0  0  0  0  0  0  0  0  0
   -1.1777    0.9465    4.1216 H   0  0  0  0  0  0  0  0  0  0  0  0
   -0.0700   -1.3039    3.9224 H   0  0  0  0  0  0  0  0  0  0  0  0
    5.2493   -1.5783    0.9755 H   0  0  0  0  0  0  0  0  0  0  0  0
    4.8138   -2.9055    3.0016 H   0  0  0  0  0  0  0  0  0  0  0  0
    5.2809   -3.9834    1.7129 H   0  0  0  0  0  0  0  0  0  0  0  0
  1  2  1  0
  1 20  1  0
  1 21  1  0
  1 22  1  0
  2  3  1  0
  2 23  1  0
  2 24  1  0
  3 18  1  0
  3  4  1  0
  3 25  1  6
  4  5  1  0
  4 26  1  0
  4 27  1  0
  5  6  1  0
  5  7  1  0
  6 28  1  0
  6 29  1  0
  6 30  1  0
  7 19  1  0
  7  8  1  0
  7 31  1  1
  8  9  1  0
  8 32  1  0
  8 33  1  0
  9 17  1  0
  9 10  2  0
 10 11  1  0
 10 18  1  0
 11 12  2  0
 12 17  1  0
 12 13  1  0
 13 14  2  0
 13 34  1  0
 14 15  1  0
 14 35  1  0
 15 16  2  0
 15 36  1  0
 16 17  1  0
 16 37  1  0
 18 19  1  0
 18 38  1  6
 19 39  1  0
 19 40  1  0
M  END
>  <i_m_ct_stereo_status>  (362) 
1

>  <s_m_source_file>  (362) 
/var/tmp/pbs.5076255.sched01/tmpzqmxgpmu/1265eqpa8lp.sdf

>  <i_m_source_file_index>  (362) 
28

>  <i_lp_mmshare_version>  (362) 
48012

>  <i_f3d_flags>  (362) 
0

>  <s_epik_input>  (362) 
W0NIM11OKFtDSF0xMilbQ0gyXVtDQEBIXShbQ0gyXVtDSDNdKVtDSF0oW0NIMl0yKWMzYyhbQ0gyXTEpbjRjKG4zKVtjSF1bY0hdW2NIXVtjSF00

>  <s_epik_cmdline>  (362) 
J2VwaWtfcHl0aG9uJywgJy1waHQnLCAnMi4wJywgJy1waCcsICc3LjAnLCAnLXRuJywgJzgnLCAnLW1hJywgJzIwMCcsICctaW1hZScsICc8aW5maWxlLm1hZT4nLCAnLW9tYWUnLCAnPG91dGZpbGUubWFlPic=

>  <r_epik_Ionization_Penalty>  (362) 
3.69979

>  <r_epik_Ionization_Penalty_Charging>  (362) 
2.16531

>  <r_epik_Ionization_Penalty_Neutral>  (362) 
1.53447

>  <r_epik_State_Penalty>  (362) 
2.64252

>  <r_epik_Charging_Adjusted_Penalty>  (362) 
4.80783

>  <i_epik_Tot_Q>  (362) 
0

>  <i_epik_Tot_abs_Q>  (362) 
0

>  <s_lp_Force_Field>  (362) 
OPLS3e

>  <r_lp_Energy>  (362) 
31.1706

>  <b_lp_Chiralities_Consistent>  (362) 
1

>  <s_lp_Variant>  (362) 
107:0-4

>  <s_i_glide_gridfile>  (362) 
pfpi4k_grid

>  <i_i_glide_lignum>  (362) 
28

>  <i_i_glide_rotatable_bonds>  (362) 
1

>  <r_i_docking_score>  (362) 
-2.98453

>  <r_i_glide_ligand_efficiency>  (362) 
-0.157081

>  <r_i_glide_ligand_efficiency_sa>  (362) 
-0.419154

>  <r_i_glide_ligand_efficiency_ln>  (362) 
-0.756643

>  <r_i_glide_gscore>  (362) 
-2.98453

>  <r_i_glide_lipo>  (362) 
-0.0943394

>  <r_i_glide_hbond>  (362) 
0

>  <r_i_glide_metal>  (362) 
-0

>  <r_i_glide_rewards>  (362) 
-1.66801

>  <r_i_glide_evdw>  (362) 
-19.7012

>  <r_i_glide_ecoul>  (362) 
-1.14236

>  <r_i_glide_erotb>  (362) 
0

>  <r_i_glide_esite>  (362) 
-0.0657689

>  <r_i_glide_emodel>  (362) 
-25.3874

>  <r_i_glide_energy>  (362) 
-20.8435

>  <r_i_glide_einternal>  (362) 
0.00106174

>  <r_i_glide_intrahb_reward>  (362) 
-0

>  <i_i_glide_confnum>  (362) 
1

>  <i_i_glide_posenum>  (362) 
12

>  <r_i_glide_eff_state_penalty>  (362) 
0

>  <ligand_id>  (362) 
107

>  <original_smiles>  (362) 
CCC1CN(C)C2Cc3c(nc4ccccn34)C1C2

>  <smiles>  (362) 
[H]c1c([H])c([H])n2c3c(nc2c1[H])C1([H])C([H])([H])C([H])(N(C([H])([H])[H])C([H])([H])C1([H])C([H])([H])C([H])([H])[H])C3([H])[H]

$$$$
108:0:0
     RDKit          3D

 33 35  0  0  1  0  0  0  0  0999 V2000
    3.2090   -0.9261    3.7688 O   0  0  0  0  0  0  0  0  0  0  0  0
    3.0751   -0.6704    2.5730 C   0  0  0  0  0  0  0  0  0  0  0  0
    2.0130    0.0096    2.0822 N   0  0  0  0  0  0  0  0  0  0  0  0
    0.8852    0.4604    2.8042 C   0  0  0  0  0  0  0  0  0  0  0  0
    0.3117    1.7119    2.4901 C   0  0  0  0  0  0  0  0  0  0  0  0
   -0.8201    2.1689    3.1955 C   0  0  0  0  0  0  0  0  0  0  0  0
   -1.3982    1.3637    4.1987 C   0  0  0  0  0  0  0  0  0  0  0  0
   -0.8533    0.0971    4.4836 C   0  0  0  0  0  0  0  0  0  0  0  0
   -1.5793   -0.9163    5.6750 Cl  0  0  0  0  0  0  0  0  0  0  0  0
    0.2805   -0.3494    3.7883 C   0  0  0  0  0  0  0  0  0  0  0  0
    4.0124   -0.9968    1.6449 N   0  0  0  0  0  0  0  0  0  0  0  0
    5.3291   -1.5337    2.0329 C   0  0  0  0  0  0  0  0  0  0  0  0
    5.7754   -2.7302    1.1712 C   0  0  0  0  0  0  0  0  0  0  0  0
    5.4915   -2.5312   -0.3049 C   0  0  0  0  0  0  0  0  0  0  0  0
    6.1153   -3.3441   -1.1784 N   0  0  0  0  0  0  0  0  0  0  0  0
    5.8179   -3.1787   -2.4704 C   0  0  0  0  0  0  0  0  0  0  0  0
    4.9909   -2.2738   -2.9935 N   0  0  0  0  0  0  0  0  0  0  0  0
    4.3667   -1.4527   -2.1244 C   0  0  0  0  0  0  0  0  0  0  0  0
    4.5956   -1.5499   -0.7419 C   0  0  0  0  0  0  0  0  0  0  0  0
    3.8680   -0.6565    0.2206 C   0  0  0  0  0  0  0  0  0  0  0  0
    2.0026    0.1915    1.0896 H   0  0  0  0  0  0  0  0  0  0  0  0
    0.7434    2.3289    1.7153 H   0  0  0  0  0  0  0  0  0  0  0  0
   -1.2452    3.1374    2.9536 H   0  0  0  0  0  0  0  0  0  0  0  0
   -2.2651    1.7174    4.7339 H   0  0  0  0  0  0  0  0  0  0  0  0
    0.6695   -1.3317    4.0060 H   0  0  0  0  0  0  0  0  0  0  0  0
    6.0470   -0.7206    1.9265 H   0  0  0  0  0  0  0  0  0  0  0  0
    5.3744   -1.8329    3.0781 H   0  0  0  0  0  0  0  0  0  0  0  0
    6.8473   -2.9031    1.3026 H   0  0  0  0  0  0  0  0  0  0  0  0
    5.2681   -3.6411    1.4971 H   0  0  0  0  0  0  0  0  0  0  0  0
    6.3088   -3.8353   -3.1699 H   0  0  0  0  0  0  0  0  0  0  0  0
    3.6962   -0.7126   -2.5409 H   0  0  0  0  0  0  0  0  0  0  0  0
    2.8329   -0.7380   -0.1056 H   0  0  0  0  0  0  0  0  0  0  0  0
    4.1968    0.3759    0.0786 H   0  0  0  0  0  0  0  0  0  0  0  0
  1  2  2  0
  2  3  1  0
  2 11  1  0
  3  4  1  0
  3 21  1  0
  4 10  1  0
  4  5  2  0
  5  6  1  0
  5 22  1  0
  6  7  2  0
  6 23  1  0
  7  8  1  0
  7 24  1  0
  8  9  1  0
  8 10  2  0
 10 25  1  0
 11 20  1  0
 11 12  1  0
 12 13  1  0
 12 26  1  0
 12 27  1  0
 13 14  1  0
 13 28  1  0
 13 29  1  0
 14 19  2  0
 14 15  1  0
 15 16  2  0
 16 17  1  0
 16 30  1  0
 17 18  2  0
 18 19  1  0
 18 31  1  0
 19 20  1  0
 20 32  1  0
 20 33  1  0
M  END
>  <i_m_ct_stereo_status>  (363) 
1

>  <s_m_source_file>  (363) 
/var/tmp/pbs.5076255.sched01/tmpzqmxgpmu/1265eqpa8lp.sdf

>  <i_m_source_file_index>  (363) 
29

>  <i_lp_mmshare_version>  (363) 
48012

>  <i_f3d_flags>  (363) 
0

>  <s_epik_input>  (363) 
bjFbY0hdbltjSF1jKGMxMilbQ0gyXU4oW0NIMl1bQ0gyXTIpQyg9TylbTkhdYzNbY0hdW2NIXVtjSF1jKENsKVtjSF0z

>  <s_epik_cmdline>  (363) 
J2VwaWtfcHl0aG9uJywgJy1waHQnLCAnMi4wJywgJy1waCcsICc3LjAnLCAnLXRuJywgJzgnLCAnLW1hJywgJzIwMCcsICctaW1hZScsICc8aW5maWxlLm1hZT4nLCAnLW9tYWUnLCAnPG91dGZpbGUubWFlPic=

>  <r_lp_tautomer_probability>  (363) 
1

>  <r_epik_Ionization_Penalty>  (363) 
3.50503e-05

>  <r_epik_Ionization_Penalty_Charging>  (363) 
0

>  <r_epik_Ionization_Penalty_Neutral>  (363) 
3.50503e-05

>  <r_epik_State_Penalty>  (363) 
-0

>  <r_epik_Charging_Adjusted_Penalty>  (363) 
0

>  <i_epik_Tot_Q>  (363) 
0

>  <i_epik_Tot_abs_Q>  (363) 
0

>  <s_epik_Chemistry_Notes>  (363) 
This compound contains an electron-poor aromatic ring that is susceptible to covalent hydrolysis at low pH, typically resulting in measured values for nitrogen ring protonation that are around two units higher than predicted values.

>  <s_lp_Force_Field>  (363) 
OPLS3e

>  <r_lp_Energy>  (363) 
40.9746

>  <b_lp_Chiralities_Consistent>  (363) 
1

>  <s_lp_Variant>  (363) 
108:0-1

>  <s_i_glide_gridfile>  (363) 
pfpi4k_grid

>  <i_i_glide_lignum>  (363) 
29

>  <i_i_glide_rotatable_bonds>  (363) 
3

>  <r_i_docking_score>  (363) 
-3.37756

>  <r_i_glide_ligand_efficiency>  (363) 
-0.168878

>  <r_i_glide_ligand_efficiency_sa>  (363) 
-0.458406

>  <r_i_glide_ligand_efficiency_ln>  (363) 
-0.845293

>  <r_i_glide_gscore>  (363) 
-3.37756

>  <r_i_glide_lipo>  (363) 
-0.183664

>  <r_i_glide_hbond>  (363) 
0

>  <r_i_glide_metal>  (363) 
-0

>  <r_i_glide_rewards>  (363) 
-1.77385

>  <r_i_glide_evdw>  (363) 
-27.5182

>  <r_i_glide_ecoul>  (363) 
-4.3324

>  <r_i_glide_erotb>  (363) 
0.654851

>  <r_i_glide_esite>  (363) 
-0.049132

>  <r_i_glide_emodel>  (363) 
-37.1333

>  <r_i_glide_energy>  (363) 
-31.8506

>  <r_i_glide_einternal>  (363) 
3.36079

>  <r_i_glide_intrahb_reward>  (363) 
-0

>  <i_i_glide_confnum>  (363) 
5

>  <i_i_glide_posenum>  (363) 
16

>  <r_i_glide_eff_state_penalty>  (363) 
0

>  <ligand_id>  (363) 
108

>  <original_smiles>  (363) 
O=C(Nc1cccc(Cl)c1)N1CCc2ncncc2C1

>  <smiles>  (363) 
[H]c1nc([H])c2c(n1)C([H])([H])C([H])([H])N(C(=O)N([H])c1c([H])c([H])c([H])c(Cl)c1[H])C2([H])[H]

$$$$
108:0:1
     RDKit          3D

 33 35  0  0  1  0  0  0  0  0999 V2000
    3.5104   -1.3015    3.8676 O   0  0  0  0  0  0  0  0  0  0  0  0
    3.2304   -0.9737    2.7130 C   0  0  0  0  0  0  0  0  0  0  0  0
    2.0796   -0.3556    2.3778 N   0  0  0  0  0  0  0  0  0  0  0  0
    0.9606   -0.0091    3.1747 C   0  0  0  0  0  0  0  0  0  0  0  0
    0.6059   -0.6981    4.3591 C   0  0  0  0  0  0  0  0  0  0  0  0
   -0.5380   -0.3097    5.0844 C   0  0  0  0  0  0  0  0  0  0  0  0
   -1.3306    0.7613    4.6292 C   0  0  0  0  0  0  0  0  0  0  0  0
   -0.9924    1.4395    3.4433 C   0  0  0  0  0  0  0  0  0  0  0  0
   -1.9732    2.7496    2.8943 Cl  0  0  0  0  0  0  0  0  0  0  0  0
    0.1462    1.0466    2.7122 C   0  0  0  0  0  0  0  0  0  0  0  0
    4.0936   -1.1253    1.6733 N   0  0  0  0  0  0  0  0  0  0  0  0
    5.5146   -1.4540    1.8830 C   0  0  0  0  0  0  0  0  0  0  0  0
    6.0279   -2.5750    0.9555 C   0  0  0  0  0  0  0  0  0  0  0  0
    5.5414   -2.4416   -0.4750 C   0  0  0  0  0  0  0  0  0  0  0  0
    6.1742   -3.1540   -1.4255 N   0  0  0  0  0  0  0  0  0  0  0  0
    5.7000   -3.0531   -2.6708 C   0  0  0  0  0  0  0  0  0  0  0  0
    4.6978   -2.2764   -3.0829 N   0  0  0  0  0  0  0  0  0  0  0  0
    4.0640   -1.5510   -2.1368 C   0  0  0  0  0  0  0  0  0  0  0  0
    4.4574   -1.6084   -0.7864 C   0  0  0  0  0  0  0  0  0  0  0  0
    3.7179   -0.8324    0.2780 C   0  0  0  0  0  0  0  0  0  0  0  0
    2.0206   -0.0535    1.4157 H   0  0  0  0  0  0  0  0  0  0  0  0
    1.1932   -1.5296    4.7176 H   0  0  0  0  0  0  0  0  0  0  0  0
   -0.7989   -0.8334    5.9922 H   0  0  0  0  0  0  0  0  0  0  0  0
   -2.1977    1.0680    5.1881 H   0  0  0  0  0  0  0  0  0  0  0  0
    0.3948    1.5696    1.7984 H   0  0  0  0  0  0  0  0  0  0  0  0
    6.0854   -0.5440    1.6999 H   0  0  0  0  0  0  0  0  0  0  0  0
    5.7335   -1.7321    2.9125 H   0  0  0  0  0  0  0  0  0  0  0  0
    7.1196   -2.5788    0.9551 H   0  0  0  0  0  0  0  0  0  0  0  0
    5.7099   -3.5479    1.3323 H   0  0  0  0  0  0  0  0  0  0  0  0
    6.2069   -3.6223   -3.4350 H   0  0  0  0  0  0  0  0  0  0  0  0
    3.2431   -0.9270   -2.4640 H   0  0  0  0  0  0  0  0  0  0  0  0
    2.6697   -1.0736    0.0957 H   0  0  0  0  0  0  0  0  0  0  0  0
    3.8535    0.2329    0.1023 H   0  0  0  0  0  0  0  0  0  0  0  0
  1  2  2  0
  2  3  1  0
  2 11  1  0
  3  4  1  0
  3 21  1  0
  4 10  1  0
  4  5  2  0
  5  6  1  0
  5 22  1  0
  6  7  2  0
  6 23  1  0
  7  8  1  0
  7 24  1  0
  8  9  1  0
  8 10  2  0
 10 25  1  0
 11 20  1  0
 11 12  1  0
 12 13  1  0
 12 26  1  0
 12 27  1  0
 13 14  1  0
 13 28  1  0
 13 29  1  0
 14 19  2  0
 14 15  1  0
 15 16  2  0
 16 17  1  0
 16 30  1  0
 17 18  2  0
 18 19  1  0
 18 31  1  0
 19 20  1  0
 20 32  1  0
 20 33  1  0
M  END
>  <i_m_ct_stereo_status>  (364) 
1

>  <s_m_source_file>  (364) 
/var/tmp/pbs.5076255.sched01/tmpzqmxgpmu/1265eqpa8lp.sdf

>  <i_m_source_file_index>  (364) 
29

>  <i_lp_mmshare_version>  (364) 
48012

>  <i_f3d_flags>  (364) 
0

>  <s_epik_input>  (364) 
bjFbY0hdbltjSF1jKGMxMilbQ0gyXU4oW0NIMl1bQ0gyXTIpQyg9TylbTkhdYzNbY0hdW2NIXVtjSF1jKENsKVtjSF0z

>  <s_epik_cmdline>  (364) 
J2VwaWtfcHl0aG9uJywgJy1waHQnLCAnMi4wJywgJy1waCcsICc3LjAnLCAnLXRuJywgJzgnLCAnLW1hJywgJzIwMCcsICctaW1hZScsICc8aW5maWxlLm1hZT4nLCAnLW9tYWUnLCAnPG91dGZpbGUubWFlPic=

>  <r_lp_tautomer_probability>  (364) 
1

>  <r_epik_Ionization_Penalty>  (364) 
3.50503e-05

>  <r_epik_Ionization_Penalty_Charging>  (364) 
0

>  <r_epik_Ionization_Penalty_Neutral>  (364) 
3.50503e-05

>  <r_epik_State_Penalty>  (364) 
-0

>  <r_epik_Charging_Adjusted_Penalty>  (364) 
0

>  <i_epik_Tot_Q>  (364) 
0

>  <i_epik_Tot_abs_Q>  (364) 
0

>  <s_epik_Chemistry_Notes>  (364) 
This compound contains an electron-poor aromatic ring that is susceptible to covalent hydrolysis at low pH, typically resulting in measured values for nitrogen ring protonation that are around two units higher than predicted values.

>  <s_lp_Force_Field>  (364) 
OPLS3e

>  <r_lp_Energy>  (364) 
40.9746

>  <b_lp_Chiralities_Consistent>  (364) 
1

>  <s_lp_Variant>  (364) 
108:0-1

>  <s_i_glide_gridfile>  (364) 
pfpi4k_grid

>  <i_i_glide_lignum>  (364) 
29

>  <i_i_glide_rotatable_bonds>  (364) 
3

>  <r_i_docking_score>  (364) 
-3.10599

>  <r_i_glide_ligand_efficiency>  (364) 
-0.1553

>  <r_i_glide_ligand_efficiency_sa>  (364) 
-0.421548

>  <r_i_glide_ligand_efficiency_ln>  (364) 
-0.777327

>  <r_i_glide_gscore>  (364) 
-3.10599

>  <r_i_glide_lipo>  (364) 
-0.213279

>  <r_i_glide_hbond>  (364) 
0

>  <r_i_glide_metal>  (364) 
-0

>  <r_i_glide_rewards>  (364) 
-1.72955

>  <r_i_glide_evdw>  (364) 
-27.9669

>  <r_i_glide_ecoul>  (364) 
-2.60776

>  <r_i_glide_erotb>  (364) 
0.654851

>  <r_i_glide_esite>  (364) 
-0.028503

>  <r_i_glide_emodel>  (364) 
-36.7542

>  <r_i_glide_energy>  (364) 
-30.5747

>  <r_i_glide_einternal>  (364) 
0.688268

>  <r_i_glide_intrahb_reward>  (364) 
-0

>  <i_i_glide_confnum>  (364) 
5

>  <i_i_glide_posenum>  (364) 
25

>  <r_i_glide_eff_state_penalty>  (364) 
0

>  <ligand_id>  (364) 
108

>  <original_smiles>  (364) 
O=C(Nc1cccc(Cl)c1)N1CCc2ncncc2C1

>  <smiles>  (364) 
[H]c1nc([H])c2c(n1)C([H])([H])C([H])([H])N(C(=O)N([H])c1c([H])c([H])c([H])c(Cl)c1[H])C2([H])[H]

$$$$
108:0:2
     RDKit          3D

 33 35  0  0  1  0  0  0  0  0999 V2000
    5.4126   -5.4051    2.8648 O   0  0  0  0  0  0  0  0  0  0  0  0
    4.4674   -5.7340    2.1457 C   0  0  0  0  0  0  0  0  0  0  0  0
    4.3459   -5.3626    0.8558 N   0  0  0  0  0  0  0  0  0  0  0  0
    5.1524   -4.5058    0.0644 C   0  0  0  0  0  0  0  0  0  0  0  0
    6.4910   -4.1725    0.3770 C   0  0  0  0  0  0  0  0  0  0  0  0
    7.2359   -3.3494   -0.4897 C   0  0  0  0  0  0  0  0  0  0  0  0
    6.6574   -2.8658   -1.6768 C   0  0  0  0  0  0  0  0  0  0  0  0
    5.3243   -3.1853   -1.9939 C   0  0  0  0  0  0  0  0  0  0  0  0
    4.6043   -2.5962   -3.4489 Cl  0  0  0  0  0  0  0  0  0  0  0  0
    4.5776   -4.0014   -1.1209 C   0  0  0  0  0  0  0  0  0  0  0  0
    3.4676   -6.5509    2.5756 N   0  0  0  0  0  0  0  0  0  0  0  0
    3.5720   -7.2638    3.8633 C   0  0  0  0  0  0  0  0  0  0  0  0
    2.2880   -7.1827    4.7141 C   0  0  0  0  0  0  0  0  0  0  0  0
    1.0244   -7.3718    3.8981 C   0  0  0  0  0  0  0  0  0  0  0  0
   -0.1178   -7.6368    4.5642 N   0  0  0  0  0  0  0  0  0  0  0  0
   -1.2209   -7.8086    3.8306 C   0  0  0  0  0  0  0  0  0  0  0  0
   -1.3181   -7.6907    2.5057 N   0  0  0  0  0  0  0  0  0  0  0  0
   -0.1761   -7.4587    1.8332 C   0  0  0  0  0  0  0  0  0  0  0  0
    1.0438   -7.2533    2.4994 C   0  0  0  0  0  0  0  0  0  0  0  0
    2.3056   -6.9139    1.7397 C   0  0  0  0  0  0  0  0  0  0  0  0
    3.5082   -5.6893    0.3994 H   0  0  0  0  0  0  0  0  0  0  0  0
    6.9766   -4.5580    1.2588 H   0  0  0  0  0  0  0  0  0  0  0  0
    8.2638   -3.1159   -0.2469 H   0  0  0  0  0  0  0  0  0  0  0  0
    7.2438   -2.2564   -2.3457 H   0  0  0  0  0  0  0  0  0  0  0  0
    3.5621   -4.2554   -1.3896 H   0  0  0  0  0  0  0  0  0  0  0  0
    3.7936   -8.3054    3.6333 H   0  0  0  0  0  0  0  0  0  0  0  0
    4.4025   -6.9176    4.4761 H   0  0  0  0  0  0  0  0  0  0  0  0
    2.3219   -7.9458    5.4971 H   0  0  0  0  0  0  0  0  0  0  0  0
    2.2295   -6.2159    5.2188 H   0  0  0  0  0  0  0  0  0  0  0  0
   -2.1378   -8.0060    4.3637 H   0  0  0  0  0  0  0  0  0  0  0  0
   -0.2477   -7.3812    0.7554 H   0  0  0  0  0  0  0  0  0  0  0  0
    1.9997   -6.0873    1.0952 H   0  0  0  0  0  0  0  0  0  0  0  0
    2.5804   -7.7529    1.0985 H   0  0  0  0  0  0  0  0  0  0  0  0
  1  2  2  0
  2  3  1  0
  2 11  1  0
  3  4  1  0
  3 21  1  0
  4 10  1  0
  4  5  2  0
  5  6  1  0
  5 22  1  0
  6  7  2  0
  6 23  1  0
  7  8  1  0
  7 24  1  0
  8  9  1  0
  8 10  2  0
 10 25  1  0
 11 20  1  0
 11 12  1  0
 12 13  1  0
 12 26  1  0
 12 27  1  0
 13 14  1  0
 13 28  1  0
 13 29  1  0
 14 19  2  0
 14 15  1  0
 15 16  2  0
 16 17  1  0
 16 30  1  0
 17 18  2  0
 18 19  1  0
 18 31  1  0
 19 20  1  0
 20 32  1  0
 20 33  1  0
M  END
>  <i_m_ct_stereo_status>  (365) 
1

>  <s_m_source_file>  (365) 
/var/tmp/pbs.5076255.sched01/tmpzqmxgpmu/1265eqpa8lp.sdf

>  <i_m_source_file_index>  (365) 
29

>  <i_lp_mmshare_version>  (365) 
48012

>  <i_f3d_flags>  (365) 
0

>  <s_epik_input>  (365) 
bjFbY0hdbltjSF1jKGMxMilbQ0gyXU4oW0NIMl1bQ0gyXTIpQyg9TylbTkhdYzNbY0hdW2NIXVtjSF1jKENsKVtjSF0z

>  <s_epik_cmdline>  (365) 
J2VwaWtfcHl0aG9uJywgJy1waHQnLCAnMi4wJywgJy1waCcsICc3LjAnLCAnLXRuJywgJzgnLCAnLW1hJywgJzIwMCcsICctaW1hZScsICc8aW5maWxlLm1hZT4nLCAnLW9tYWUnLCAnPG91dGZpbGUubWFlPic=

>  <r_lp_tautomer_probability>  (365) 
1

>  <r_epik_Ionization_Penalty>  (365) 
3.50503e-05

>  <r_epik_Ionization_Penalty_Charging>  (365) 
0

>  <r_epik_Ionization_Penalty_Neutral>  (365) 
3.50503e-05

>  <r_epik_State_Penalty>  (365) 
-0

>  <r_epik_Charging_Adjusted_Penalty>  (365) 
0

>  <i_epik_Tot_Q>  (365) 
0

>  <i_epik_Tot_abs_Q>  (365) 
0

>  <s_epik_Chemistry_Notes>  (365) 
This compound contains an electron-poor aromatic ring that is susceptible to covalent hydrolysis at low pH, typically resulting in measured values for nitrogen ring protonation that are around two units higher than predicted values.

>  <s_lp_Force_Field>  (365) 
OPLS3e

>  <r_lp_Energy>  (365) 
40.9746

>  <b_lp_Chiralities_Consistent>  (365) 
1

>  <s_lp_Variant>  (365) 
108:0-1

>  <s_i_glide_gridfile>  (365) 
pfpi4k_grid

>  <i_i_glide_lignum>  (365) 
29

>  <i_i_glide_rotatable_bonds>  (365) 
3

>  <r_i_docking_score>  (365) 
-3.09771

>  <r_i_glide_ligand_efficiency>  (365) 
-0.154886

>  <r_i_glide_ligand_efficiency_sa>  (365) 
-0.420424

>  <r_i_glide_ligand_efficiency_ln>  (365) 
-0.775255

>  <r_i_glide_gscore>  (365) 
-3.09771

>  <r_i_glide_lipo>  (365) 
-0.585229

>  <r_i_glide_hbond>  (365) 
0

>  <r_i_glide_metal>  (365) 
-0

>  <r_i_glide_rewards>  (365) 
-1.45567

>  <r_i_glide_evdw>  (365) 
-26.5411

>  <r_i_glide_ecoul>  (365) 
-2.09854

>  <r_i_glide_erotb>  (365) 
0.654851

>  <r_i_glide_esite>  (365) 
-0.069826

>  <r_i_glide_emodel>  (365) 
-34.6774

>  <r_i_glide_energy>  (365) 
-28.6397

>  <r_i_glide_einternal>  (365) 
0.95088

>  <r_i_glide_intrahb_reward>  (365) 
-0

>  <i_i_glide_confnum>  (365) 
5

>  <i_i_glide_posenum>  (365) 
2

>  <r_i_glide_eff_state_penalty>  (365) 
0

>  <ligand_id>  (365) 
108

>  <original_smiles>  (365) 
O=C(Nc1cccc(Cl)c1)N1CCc2ncncc2C1

>  <smiles>  (365) 
[H]c1nc([H])c2c(n1)C([H])([H])C([H])([H])N(C(=O)N([H])c1c([H])c([H])c([H])c(Cl)c1[H])C2([H])[H]

$$$$
109:0:0
     RDKit          3D

 67 74  0  0  1  0  0  0  0  0999 V2000
    0.1909   -2.2830    9.6142 C   0  0  0  0  0  0  0  0  0  0  0  0
    0.5496   -1.1956    8.6157 C   0  0  0  0  0  0  0  0  0  0  0  0
    1.0984   -0.1563    8.9837 O   0  0  0  0  0  0  0  0  0  0  0  0
    0.1804   -1.5192    7.3406 O   0  0  0  0  0  0  0  0  0  0  0  0
    0.5749   -0.7595    6.1781 C   0  0  2  0  0  0  0  0  0  0  0  0
    2.1533   -0.9059    6.0737 C   0  0  1  0  0  0  0  0  0  0  0  0
    2.6941   -2.3471    6.0007 C   0  0  1  0  0  0  0  0  0  0  0  0
    2.1397   -3.2532    4.8823 C   0  0  0  0  0  0  0  0  0  0  0  0
    3.2712   -3.4187    3.8667 C   0  0  1  0  0  0  0  0  0  0  0  0
    3.3757   -2.2519    2.8901 C   0  0  0  0  0  0  0  0  0  0  0  0
    4.5514   -1.4352    3.4606 C   0  0  2  0  0  0  0  0  0  0  0  0
    5.2043   -0.5101    2.4231 C   0  0  0  0  0  0  0  0  0  0  0  0
    5.3986   -2.5235    3.7774 O   0  0  0  0  0  0  0  0  0  0  0  0
    4.5595   -3.2356    4.6635 C   0  0  1  0  0  0  0  0  0  0  0  0
    4.1958   -2.1734    5.7079 C   0  0  2  0  0  0  0  0  0  0  0  0
    5.0617   -2.3021    6.9822 C   0  0  0  0  0  0  0  0  0  0  0  0
    4.3122   -0.8437    4.8932 C   0  0  1  0  0  0  0  0  0  0  0  0
    5.4911    0.0497    5.3598 C   0  0  0  0  0  0  0  0  0  0  0  0
    2.9710   -0.1090    5.0694 C   0  0  1  0  0  0  0  0  0  0  0  0
    2.3520    0.4293    3.9005 O   0  0  0  0  0  0  0  0  0  0  0  0
    2.7898    1.3917    4.8520 C   0  0  1  0  0  0  0  0  0  0  0  0
    1.7492    2.2048    5.6307 C   0  0  2  0  0  0  0  0  0  0  0  0
    1.0949    1.4937    6.6920 O   0  0  0  0  0  0  0  0  0  0  0  0
    0.0125    0.7250    6.2193 C   0  0  2  0  0  0  0  0  0  0  0  0
   -1.1173    0.8248    7.0695 O   0  0  0  0  0  0  0  0  0  0  0  0
   -0.3869    1.3950    4.8502 C   0  0  1  0  0  0  0  0  0  0  0  0
   -0.2371    0.5488    3.7123 O   0  0  0  0  0  0  0  0  0  0  0  0
   -1.7201    2.1367    4.6117 C   0  0  0  0  0  0  0  0  0  0  0  0
   -1.3105    3.2100    3.5442 C   0  0  1  0  0  0  0  0  0  0  0  0
   -2.1055    4.3685    3.6828 O   0  0  0  0  0  0  0  0  0  0  0  0
    0.2362    3.4350    3.6822 C   0  0  1  0  0  0  0  0  0  0  0  0
    0.7230    4.8889    3.7950 C   0  0  0  0  0  0  0  0  0  0  0  0
    0.4753    2.6281    4.9424 C   0  0  2  0  0  0  0  0  0  0  0  0
    0.6979   -3.2122    9.3567 H   0  0  0  0  0  0  0  0  0  0  0  0
   -0.8833   -2.4615    9.6599 H   0  0  0  0  0  0  0  0  0  0  0  0
    0.5180   -1.9673   10.6033 H   0  0  0  0  0  0  0  0  0  0  0  0
    0.0924   -1.2556    5.3379 H   0  0  0  0  0  0  0  0  0  0  0  0
    2.5687   -0.5309    7.0109 H   0  0  0  0  0  0  0  0  0  0  0  0
    2.5377   -2.8563    6.9532 H   0  0  0  0  0  0  0  0  0  0  0  0
    1.9068   -4.2337    5.3042 H   0  0  0  0  0  0  0  0  0  0  0  0
    1.2250   -2.8852    4.4237 H   0  0  0  0  0  0  0  0  0  0  0  0
    3.2288   -4.3702    3.3392 H   0  0  0  0  0  0  0  0  0  0  0  0
    3.6454   -2.6409    1.9073 H   0  0  0  0  0  0  0  0  0  0  0  0
    2.4481   -1.6958    2.7656 H   0  0  0  0  0  0  0  0  0  0  0  0
    4.5807    0.3655    2.2481 H   0  0  0  0  0  0  0  0  0  0  0  0
    5.3381   -1.0241    1.4722 H   0  0  0  0  0  0  0  0  0  0  0  0
    6.1916   -0.1804    2.7478 H   0  0  0  0  0  0  0  0  0  0  0  0
    4.9807   -4.1570    5.0633 H   0  0  0  0  0  0  0  0  0  0  0  0
    6.1264   -2.2594    6.7489 H   0  0  0  0  0  0  0  0  0  0  0  0
    4.8877   -3.2613    7.4709 H   0  0  0  0  0  0  0  0  0  0  0  0
    4.8366   -1.5219    7.7073 H   0  0  0  0  0  0  0  0  0  0  0  0
    5.3520    0.3936    6.3862 H   0  0  0  0  0  0  0  0  0  0  0  0
    5.5967    0.9353    4.7342 H   0  0  0  0  0  0  0  0  0  0  0  0
    6.4396   -0.4871    5.3140 H   0  0  0  0  0  0  0  0  0  0  0  0
    3.6160    1.9877    4.4721 H   0  0  0  0  0  0  0  0  0  0  0  0
    2.2542    3.0632    6.0708 H   0  0  0  0  0  0  0  0  0  0  0  0
   -1.3160    1.7453    7.1551 H   0  0  0  0  0  0  0  0  0  0  0  0
   -0.2609    1.0808    2.9309 H   0  0  0  0  0  0  0  0  0  0  0  0
   -2.5195    1.4800    4.2712 H   0  0  0  0  0  0  0  0  0  0  0  0
   -2.0782    2.6332    5.5181 H   0  0  0  0  0  0  0  0  0  0  0  0
   -1.5057    2.8209    2.5439 H   0  0  0  0  0  0  0  0  0  0  0  0
   -2.9311    4.1686    3.2717 H   0  0  0  0  0  0  0  0  0  0  0  0
    0.7453    2.9550    2.8453 H   0  0  0  0  0  0  0  0  0  0  0  0
    0.2683    5.4253    4.6291 H   0  0  0  0  0  0  0  0  0  0  0  0
    0.5083    5.4476    2.8820 H   0  0  0  0  0  0  0  0  0  0  0  0
    1.8030    4.9097    3.9409 H   0  0  0  0  0  0  0  0  0  0  0  0
    0.0412    3.2791    5.7174 H   0  0  0  0  0  0  0  0  0  0  0  0
  1  2  1  0
  1 34  1  0
  1 35  1  0
  1 36  1  0
  2  3  2  0
  2  4  1  0
  4  5  1  0
  5 24  1  0
  5  6  1  0
  5 37  1  6
  6 19  1  0
  6  7  1  0
  6 38  1  1
  7 15  1  0
  7  8  1  0
  7 39  1  1
  8  9  1  0
  8 40  1  0
  8 41  1  0
  9 14  1  0
  9 10  1  0
  9 42  1  6
 10 11  1  0
 10 43  1  0
 10 44  1  0
 11 17  1  0
 11 12  1  6
 11 13  1  0
 12 45  1  0
 12 46  1  0
 12 47  1  0
 13 14  1  0
 14 15  1  0
 14 48  1  1
 15 16  1  1
 15 17  1  0
 16 49  1  0
 16 50  1  0
 16 51  1  0
 17 18  1  1
 17 19  1  0
 18 52  1  0
 18 53  1  0
 18 54  1  0
 19 21  1  0
 19 20  1  6
 20 21  1  0
 21 22  1  0
 21 55  1  6
 22 33  1  0
 22 23  1  0
 22 56  1  1
 23 24  1  0
 24 25  1  1
 24 26  1  0
 25 57  1  0
 26 33  1  0
 26 27  1  6
 26 28  1  0
 27 58  1  0
 28 29  1  0
 28 59  1  0
 28 60  1  0
 29 30  1  0
 29 31  1  0
 29 61  1  6
 30 62  1  0
 31 32  1  0
 31 33  1  0
 31 63  1  6
 32 64  1  0
 32 65  1  0
 32 66  1  0
 33 67  1  1
M  END
>  <i_m_ct_stereo_status>  (366) 
1

>  <s_m_source_file>  (366) 
/var/tmp/pbs.5076255.sched01/tmpzqmxgpmu/1265eqpa8lp.sdf

>  <i_m_source_file_index>  (366) 
30

>  <i_lp_mmshare_version>  (366) 
48012

>  <i_f3d_flags>  (366) 
0

>  <s_epik_input>  (366) 
TzFbQ0BIXTJbQ0BIXShPMylbQ0BASF0oW0NASF0oW0NIM10pW0NAQEhdKFtDSDJdNClbT0hdKVtDQEBdNChbT0hdKVtDQEBdMyhbT0hdKVtDQEhdKE9DKD1PKVtDSDNdKVtDQEhdKFtDQEBdMTI1KVtDQEBIXTZbQ0BAXTcoW0NIM10pW0NASF04W0NAQEhdKFtDSDJdNilbQ0gyXVtDQEBdKE84KShbQ0gzXSlbQ0BAXTU3W0NIM10=

>  <s_epik_cmdline>  (366) 
J2VwaWtfcHl0aG9uJywgJy1waHQnLCAnMi4wJywgJy1waCcsICc3LjAnLCAnLXRuJywgJzgnLCAnLW1hJywgJzIwMCcsICctaW1hZScsICc8aW5maWxlLm1hZT4nLCAnLW9tYWUnLCAnPG91dGZpbGUubWFlPic=

>  <r_lp_tautomer_probability>  (366) 
1

>  <r_epik_Ionization_Penalty>  (366) 
3.60071e-05

>  <r_epik_Ionization_Penalty_Charging>  (366) 
0

>  <r_epik_Ionization_Penalty_Neutral>  (366) 
3.60071e-05

>  <r_epik_State_Penalty>  (366) 
-0

>  <r_epik_Charging_Adjusted_Penalty>  (366) 
0

>  <i_epik_Tot_Q>  (366) 
0

>  <i_epik_Tot_abs_Q>  (366) 
0

>  <s_epik_Chemistry_Notes>  (366) 
This compound has an ester and may undergo hydrolysis at high or low pH.

>  <s_lp_Force_Field>  (366) 
OPLS3e

>  <r_lp_Energy>  (366) 
86.4015

>  <b_lp_Chiralities_Consistent>  (366) 
1

>  <s_lp_Variant>  (366) 
109:0-1

>  <s_i_glide_gridfile>  (366) 
pfpi4k_grid

>  <i_i_glide_lignum>  (366) 
30

>  <i_i_glide_rotatable_bonds>  (366) 
5

>  <r_i_docking_score>  (366) 
-2.29194

>  <r_i_glide_ligand_efficiency>  (366) 
-0.0694526

>  <r_i_glide_ligand_efficiency_sa>  (366) 
-0.222772

>  <r_i_glide_ligand_efficiency_ln>  (366) 
-0.509715

>  <r_i_glide_gscore>  (366) 
-2.29194

>  <r_i_glide_lipo>  (366) 
-0.250395

>  <r_i_glide_hbond>  (366) 
-0.16

>  <r_i_glide_metal>  (366) 
-0

>  <r_i_glide_rewards>  (366) 
-0.255459

>  <r_i_glide_evdw>  (366) 
-20.924

>  <r_i_glide_ecoul>  (366) 
-4.10046

>  <r_i_glide_erotb>  (366) 
0.0941621

>  <r_i_glide_esite>  (366) 
-0.0589747

>  <r_i_glide_emodel>  (366) 
-25.6993

>  <r_i_glide_energy>  (366) 
-25.0245

>  <r_i_glide_einternal>  (366) 
6.00578

>  <r_i_glide_intrahb_reward>  (366) 
-0

>  <i_i_glide_confnum>  (366) 
4

>  <i_i_glide_posenum>  (366) 
5

>  <r_i_glide_eff_state_penalty>  (366) 
0

>  <ligand_id>  (366) 
109

>  <original_smiles>  (366) 
CC(=O)OC1C2C3CC4CC5(C)OC4C3(C)C5(C)C23OC3C2OC1(O)C1(O)CC(O)C(C)C21

>  <smiles>  (366) 
[H]OC1([H])C([H])([H])C2(O[H])C3(O[H])OC([H])(C4([H])OC45C([H])(C3([H])OC(=O)C([H])([H])[H])C3([H])C([H])([H])C4([H])C([H])([H])C6(C([H])([H])[H])OC4([H])C3(C([H])([H])[H])C65C([H])([H])[H])C2([H])C1([H])C([H])([H])[H]

$$$$
109:0:1
     RDKit          3D

 67 74  0  0  1  0  0  0  0  0999 V2000
    2.8854   -5.4820    4.9739 C   0  0  0  0  0  0  0  0  0  0  0  0
    3.1586   -4.1398    4.3366 C   0  0  0  0  0  0  0  0  0  0  0  0
    4.0786   -3.4331    4.7552 O   0  0  0  0  0  0  0  0  0  0  0  0
    2.2910   -3.8292    3.3418 O   0  0  0  0  0  0  0  0  0  0  0  0
    2.3220   -2.5957    2.5906 C   0  0  2  0  0  0  0  0  0  0  0  0
    3.6631   -2.5925    1.7486 C   0  0  1  0  0  0  0  0  0  0  0  0
    3.8764   -3.7740    0.7950 C   0  0  1  0  0  0  0  0  0  0  0  0
    2.7722   -4.0400   -0.2385 C   0  0  0  0  0  0  0  0  0  0  0  0
    3.3631   -3.6480   -1.5973 C   0  0  1  0  0  0  0  0  0  0  0  0
    3.2778   -2.2064   -1.9342 C   0  0  0  0  0  0  0  0  0  0  0  0
    4.6610   -1.7064   -1.6368 C   0  0  2  0  0  0  0  0  0  0  0  0
    4.7977   -0.3858   -2.3534 C   0  0  0  0  0  0  0  0  0  0  0  0
    5.4142   -2.7444   -2.2300 O   0  0  0  0  0  0  0  0  0  0  0  0
    4.8757   -3.8119   -1.4712 C   0  0  1  0  0  0  0  0  0  0  0  0
    5.1305   -3.3891   -0.0189 C   0  0  2  0  0  0  0  0  0  0  0  0
    6.4108   -4.0530    0.5154 C   0  0  0  0  0  0  0  0  0  0  0  0
    5.0981   -1.8317   -0.1213 C   0  0  1  0  0  0  0  0  0  0  0  0
    6.4842   -1.2103    0.1421 C   0  0  0  0  0  0  0  0  0  0  0  0
    4.0703   -1.3781    0.9526 C   0  0  1  0  0  0  0  0  0  0  0  0
    3.0847   -0.4180    0.5956 O   0  0  0  0  0  0  0  0  0  0  0  0
    4.0642    0.0347    1.5352 C   0  0  1  0  0  0  0  0  0  0  0  0
    3.6262    0.3443    2.9858 C   0  0  2  0  0  0  0  0  0  0  0  0
    3.3870   -0.8250    3.7642 O   0  0  0  0  0  0  0  0  0  0  0  0
    2.1001   -1.3314    3.5411 C   0  0  2  0  0  0  0  0  0  0  0  0
    1.4841   -1.6954    4.7365 O   0  0  0  0  0  0  0  0  0  0  0  0
    1.2874   -0.1108    3.0014 C   0  0  1  0  0  0  0  0  0  0  0  0
    0.8034   -0.2291    1.6931 O   0  0  0  0  0  0  0  0  0  0  0  0
    0.0999    0.5627    3.7252 C   0  0  0  0  0  0  0  0  0  0  0  0
    0.1863    2.0294    3.1817 C   0  0  1  0  0  0  0  0  0  0  0  0
   -0.2166    2.9332    4.1790 O   0  0  0  0  0  0  0  0  0  0  0  0
    1.6577    2.2565    2.7042 C   0  0  1  0  0  0  0  0  0  0  0  0
    2.3701    3.5220    3.2250 C   0  0  0  0  0  0  0  0  0  0  0  0
    2.2724    0.9682    3.2379 C   0  0  2  0  0  0  0  0  0  0  0  0
    2.9578   -6.2898    4.2368 H   0  0  0  0  0  0  0  0  0  0  0  0
    1.8943   -5.4490    5.4316 H   0  0  0  0  0  0  0  0  0  0  0  0
    3.6305   -5.6284    5.7573 H   0  0  0  0  0  0  0  0  0  0  0  0
    1.4488   -2.6425    1.9480 H   0  0  0  0  0  0  0  0  0  0  0  0
    4.5152   -2.6644    2.4244 H   0  0  0  0  0  0  0  0  0  0  0  0
    4.0424   -4.6852    1.3654 H   0  0  0  0  0  0  0  0  0  0  0  0
    2.5815   -5.1128   -0.2692 H   0  0  0  0  0  0  0  0  0  0  0  0
    1.8199   -3.5526   -0.0253 H   0  0  0  0  0  0  0  0  0  0  0  0
    2.8688   -4.1407   -2.4272 H   0  0  0  0  0  0  0  0  0  0  0  0
    3.0079   -2.0645   -2.9909 H   0  0  0  0  0  0  0  0  0  0  0  0
    2.6207   -1.6993   -1.2703 H   0  0  0  0  0  0  0  0  0  0  0  0
    4.2056    0.3867   -1.8779 H   0  0  0  0  0  0  0  0  0  0  0  0
    4.4938   -0.4100   -3.4147 H   0  0  0  0  0  0  0  0  0  0  0  0
    5.8388   -0.1420   -2.3150 H   0  0  0  0  0  0  0  0  0  0  0  0
    5.2218   -4.7976   -1.7707 H   0  0  0  0  0  0  0  0  0  0  0  0
    7.2652   -3.8399   -0.1260 H   0  0  0  0  0  0  0  0  0  0  0  0
    6.2963   -5.1373    0.5289 H   0  0  0  0  0  0  0  0  0  0  0  0
    6.6397   -3.7295    1.5292 H   0  0  0  0  0  0  0  0  0  0  0  0
    6.8478   -1.4073    1.1537 H   0  0  0  0  0  0  0  0  0  0  0  0
    6.4562   -0.1271    0.0300 H   0  0  0  0  0  0  0  0  0  0  0  0
    7.2150   -1.6119   -0.5613 H   0  0  0  0  0  0  0  0  0  0  0  0
    4.7187    0.7833    1.0991 H   0  0  0  0  0  0  0  0  0  0  0  0
    4.4229    0.9096    3.4855 H   0  0  0  0  0  0  0  0  0  0  0  0
    1.9425   -2.4334    5.1005 H   0  0  0  0  0  0  0  0  0  0  0  0
    1.5012   -0.4396    1.0409 H   0  0  0  0  0  0  0  0  0  0  0  0
   -0.8490    0.0813    3.5057 H   0  0  0  0  0  0  0  0  0  0  0  0
    0.2354    0.5337    4.8053 H   0  0  0  0  0  0  0  0  0  0  0  0
   -0.4829    2.1343    2.3223 H   0  0  0  0  0  0  0  0  0  0  0  0
   -0.2028    3.7814    3.7589 H   0  0  0  0  0  0  0  0  0  0  0  0
    1.6821    2.2546    1.6149 H   0  0  0  0  0  0  0  0  0  0  0  0
    2.4045    3.5560    4.3186 H   0  0  0  0  0  0  0  0  0  0  0  0
    1.8786    4.4281    2.8534 H   0  0  0  0  0  0  0  0  0  0  0  0
    3.4005    3.5233    2.8639 H   0  0  0  0  0  0  0  0  0  0  0  0
    2.3183    1.1426    4.3150 H   0  0  0  0  0  0  0  0  0  0  0  0
  1  2  1  0
  1 34  1  0
  1 35  1  0
  1 36  1  0
  2  3  2  0
  2  4  1  0
  4  5  1  0
  5 24  1  0
  5  6  1  0
  5 37  1  6
  6 19  1  0
  6  7  1  0
  6 38  1  1
  7 15  1  0
  7  8  1  0
  7 39  1  1
  8  9  1  0
  8 40  1  0
  8 41  1  0
  9 14  1  0
  9 10  1  0
  9 42  1  6
 10 11  1  0
 10 43  1  0
 10 44  1  0
 11 17  1  0
 11 12  1  6
 11 13  1  0
 12 45  1  0
 12 46  1  0
 12 47  1  0
 13 14  1  0
 14 15  1  0
 14 48  1  6
 15 16  1  1
 15 17  1  0
 16 49  1  0
 16 50  1  0
 16 51  1  0
 17 18  1  6
 17 19  1  0
 18 52  1  0
 18 53  1  0
 18 54  1  0
 19 21  1  0
 19 20  1  6
 20 21  1  0
 21 22  1  0
 21 55  1  6
 22 33  1  0
 22 23  1  0
 22 56  1  1
 23 24  1  0
 24 25  1  1
 24 26  1  0
 25 57  1  0
 26 33  1  0
 26 27  1  6
 26 28  1  0
 27 58  1  0
 28 29  1  0
 28 59  1  0
 28 60  1  0
 29 30  1  0
 29 31  1  0
 29 61  1  6
 30 62  1  0
 31 32  1  0
 31 33  1  0
 31 63  1  6
 32 64  1  0
 32 65  1  0
 32 66  1  0
 33 67  1  1
M  END
>  <i_m_ct_stereo_status>  (367) 
1

>  <s_m_source_file>  (367) 
/var/tmp/pbs.5076255.sched01/tmpzqmxgpmu/1265eqpa8lp.sdf

>  <i_m_source_file_index>  (367) 
30

>  <i_lp_mmshare_version>  (367) 
48012

>  <i_f3d_flags>  (367) 
0

>  <s_epik_input>  (367) 
TzFbQ0BIXTJbQ0BIXShPMylbQ0BASF0oW0NASF0oW0NIM10pW0NAQEhdKFtDSDJdNClbT0hdKVtDQEBdNChbT0hdKVtDQEBdMyhbT0hdKVtDQEhdKE9DKD1PKVtDSDNdKVtDQEhdKFtDQEBdMTI1KVtDQEBIXTZbQ0BAXTcoW0NIM10pW0NASF04W0NAQEhdKFtDSDJdNilbQ0gyXVtDQEBdKE84KShbQ0gzXSlbQ0BAXTU3W0NIM10=

>  <s_epik_cmdline>  (367) 
J2VwaWtfcHl0aG9uJywgJy1waHQnLCAnMi4wJywgJy1waCcsICc3LjAnLCAnLXRuJywgJzgnLCAnLW1hJywgJzIwMCcsICctaW1hZScsICc8aW5maWxlLm1hZT4nLCAnLW9tYWUnLCAnPG91dGZpbGUubWFlPic=

>  <r_lp_tautomer_probability>  (367) 
1

>  <r_epik_Ionization_Penalty>  (367) 
3.60071e-05

>  <r_epik_Ionization_Penalty_Charging>  (367) 
0

>  <r_epik_Ionization_Penalty_Neutral>  (367) 
3.60071e-05

>  <r_epik_State_Penalty>  (367) 
-0

>  <r_epik_Charging_Adjusted_Penalty>  (367) 
0

>  <i_epik_Tot_Q>  (367) 
0

>  <i_epik_Tot_abs_Q>  (367) 
0

>  <s_epik_Chemistry_Notes>  (367) 
This compound has an ester and may undergo hydrolysis at high or low pH.

>  <s_lp_Force_Field>  (367) 
OPLS3e

>  <r_lp_Energy>  (367) 
86.4015

>  <b_lp_Chiralities_Consistent>  (367) 
1

>  <s_lp_Variant>  (367) 
109:0-1

>  <s_i_glide_gridfile>  (367) 
pfpi4k_grid

>  <i_i_glide_lignum>  (367) 
30

>  <i_i_glide_rotatable_bonds>  (367) 
5

>  <r_i_docking_score>  (367) 
-2.27775

>  <r_i_glide_ligand_efficiency>  (367) 
-0.0690227

>  <r_i_glide_ligand_efficiency_sa>  (367) 
-0.221393

>  <r_i_glide_ligand_efficiency_ln>  (367) 
-0.50656

>  <r_i_glide_gscore>  (367) 
-2.27775

>  <r_i_glide_lipo>  (367) 
-0.222347

>  <r_i_glide_hbond>  (367) 
0

>  <r_i_glide_metal>  (367) 
-0

>  <r_i_glide_rewards>  (367) 
-0.755459

>  <r_i_glide_evdw>  (367) 
-18.6073

>  <r_i_glide_ecoul>  (367) 
-3.09071

>  <r_i_glide_erotb>  (367) 
0.0941621

>  <r_i_glide_esite>  (367) 
-0.00013249

>  <r_i_glide_emodel>  (367) 
-27.1854

>  <r_i_glide_energy>  (367) 
-21.698

>  <r_i_glide_einternal>  (367) 
5.16804

>  <r_i_glide_intrahb_reward>  (367) 
-0.5

>  <i_i_glide_confnum>  (367) 
2

>  <i_i_glide_posenum>  (367) 
4

>  <r_i_glide_eff_state_penalty>  (367) 
0

>  <ligand_id>  (367) 
109

>  <original_smiles>  (367) 
CC(=O)OC1C2C3CC4CC5(C)OC4C3(C)C5(C)C23OC3C2OC1(O)C1(O)CC(O)C(C)C21

>  <smiles>  (367) 
[H]OC1([H])C([H])([H])C2(O[H])C3(O[H])OC([H])(C4([H])OC45C([H])(C3([H])OC(=O)C([H])([H])[H])C3([H])C([H])([H])C4([H])C([H])([H])C6(C([H])([H])[H])OC4([H])C3(C([H])([H])[H])C65C([H])([H])[H])C2([H])C1([H])C([H])([H])[H]

$$$$
109:0:2
     RDKit          3D

 67 74  0  0  1  0  0  0  0  0999 V2000
    2.3374   -4.5675    7.0060 C   0  0  0  0  0  0  0  0  0  0  0  0
    2.6580   -3.4405    6.0444 C   0  0  0  0  0  0  0  0  0  0  0  0
    3.5594   -2.6436    6.2909 O   0  0  0  0  0  0  0  0  0  0  0  0
    1.8131   -3.4049    4.9749 O   0  0  0  0  0  0  0  0  0  0  0  0
    1.9381   -2.4496    3.8955 C   0  0  2  0  0  0  0  0  0  0  0  0
    3.2964   -2.7606    3.1274 C   0  0  1  0  0  0  0  0  0  0  0  0
    3.4667   -4.1961    2.5908 C   0  0  1  0  0  0  0  0  0  0  0  0
    2.3660   -4.7285    1.6669 C   0  0  0  0  0  0  0  0  0  0  0  0
    2.9594   -4.7590    0.2579 C   0  0  1  0  0  0  0  0  0  0  0  0
    2.9361   -3.4122   -0.4597 C   0  0  0  0  0  0  0  0  0  0  0  0
    4.3795   -2.9034   -0.2914 C   0  0  2  0  0  0  0  0  0  0  0  0
    4.7724   -1.8235   -1.3190 C   0  0  0  0  0  0  0  0  0  0  0  0
    5.0427   -4.1270   -0.5518 O   0  0  0  0  0  0  0  0  0  0  0  0
    4.4606   -4.9347    0.4548 C   0  0  1  0  0  0  0  0  0  0  0  0
    4.7386   -4.1344    1.7312 C   0  0  2  0  0  0  0  0  0  0  0  0
    5.9610   -4.6865    2.4825 C   0  0  0  0  0  0  0  0  0  0  0  0
    4.8193   -2.6657    1.1942 C   0  0  1  0  0  0  0  0  0  0  0  0
    6.2390   -2.0623    1.2769 C   0  0  0  0  0  0  0  0  0  0  0  0
    3.8353   -1.8393    2.0381 C   0  0  1  0  0  0  0  0  0  0  0  0
    2.9645   -0.9518    1.3338 O   0  0  0  0  0  0  0  0  0  0  0  0
    3.9056   -0.3147    2.1860 C   0  0  1  0  0  0  0  0  0  0  0  0
    3.4189    0.4032    3.4537 C   0  0  2  0  0  0  0  0  0  0  0  0
    3.0923   -0.4749    4.5325 O   0  0  0  0  0  0  0  0  0  0  0  0
    1.7723   -0.9593    4.4223 C   0  0  2  0  0  0  0  0  0  0  0  0
    1.0927   -0.9200    5.6600 O   0  0  0  0  0  0  0  0  0  0  0  0
    1.0406    0.0693    3.4863 C   0  0  1  0  0  0  0  0  0  0  0  0
    0.6223   -0.4739    2.2425 O   0  0  0  0  0  0  0  0  0  0  0  0
   -0.1158    0.9863    3.9543 C   0  0  0  0  0  0  0  0  0  0  0  0
    0.0727    2.2324    3.0278 C   0  0  1  0  0  0  0  0  0  0  0  0
   -0.3048    3.4338    3.6695 O   0  0  0  0  0  0  0  0  0  0  0  0
    1.5734    2.2382    2.5591 C   0  0  1  0  0  0  0  0  0  0  0  0
    2.3470    3.5578    2.7343 C   0  0  0  0  0  0  0  0  0  0  0  0
    2.1008    1.1333    3.4492 C   0  0  2  0  0  0  0  0  0  0  0  0
    2.4392   -5.5369    6.5208 H   0  0  0  0  0  0  0  0  0  0  0  0
    1.3281   -4.4490    7.3994 H   0  0  0  0  0  0  0  0  0  0  0  0
    3.0384   -4.5168    7.8375 H   0  0  0  0  0  0  0  0  0  0  0  0
    1.0790   -2.6504    3.2571 H   0  0  0  0  0  0  0  0  0  0  0  0
    4.0916   -2.6806    3.8715 H   0  0  0  0  0  0  0  0  0  0  0  0
    3.5725   -4.8963    3.4198 H   0  0  0  0  0  0  0  0  0  0  0  0
    2.1127   -5.7510    1.9556 H   0  0  0  0  0  0  0  0  0  0  0  0
    1.4540   -4.1499    1.7314 H   0  0  0  0  0  0  0  0  0  0  0  0
    2.5148   -5.5454   -0.3453 H   0  0  0  0  0  0  0  0  0  0  0  0
    2.7270   -3.5781   -1.5187 H   0  0  0  0  0  0  0  0  0  0  0  0
    2.1792   -2.7260   -0.0885 H   0  0  0  0  0  0  0  0  0  0  0  0
    4.3273   -0.8615   -1.0646 H   0  0  0  0  0  0  0  0  0  0  0  0
    4.4296   -2.1003   -2.3157 H   0  0  0  0  0  0  0  0  0  0  0  0
    5.8538   -1.7013   -1.3780 H   0  0  0  0  0  0  0  0  0  0  0  0
    4.7953   -5.9702    0.4732 H   0  0  0  0  0  0  0  0  0  0  0  0
    6.8512   -4.7032    1.8512 H   0  0  0  0  0  0  0  0  0  0  0  0
    5.7821   -5.7104    2.8117 H   0  0  0  0  0  0  0  0  0  0  0  0
    6.1686   -4.0970    3.3710 H   0  0  0  0  0  0  0  0  0  0  0  0
    6.5625   -1.9660    2.3131 H   0  0  0  0  0  0  0  0  0  0  0  0
    6.2853   -1.0664    0.8358 H   0  0  0  0  0  0  0  0  0  0  0  0
    6.9643   -2.6837    0.7450 H   0  0  0  0  0  0  0  0  0  0  0  0
    4.6305    0.2524    1.6163 H   0  0  0  0  0  0  0  0  0  0  0  0
    4.2200    1.0571    3.7967 H   0  0  0  0  0  0  0  0  0  0  0  0
    1.5347   -1.5229    6.2346 H   0  0  0  0  0  0  0  0  0  0  0  0
    0.7175    0.1696    1.5527 H   0  0  0  0  0  0  0  0  0  0  0  0
   -1.0991    0.5311    3.8567 H   0  0  0  0  0  0  0  0  0  0  0  0
   -0.0045    1.2870    4.9991 H   0  0  0  0  0  0  0  0  0  0  0  0
   -0.5695    2.1343    2.1500 H   0  0  0  0  0  0  0  0  0  0  0  0
   -0.2169    4.1120    3.0117 H   0  0  0  0  0  0  0  0  0  0  0  0
    1.6232    1.9259    1.5165 H   0  0  0  0  0  0  0  0  0  0  0  0
    2.3471    3.9180    3.7632 H   0  0  0  0  0  0  0  0  0  0  0  0
    1.9392    4.3445    2.0982 H   0  0  0  0  0  0  0  0  0  0  0  0
    3.3932    3.4201    2.4505 H   0  0  0  0  0  0  0  0  0  0  0  0
    2.1250    1.6169    4.4389 H   0  0  0  0  0  0  0  0  0  0  0  0
  1  2  1  0
  1 34  1  0
  1 35  1  0
  1 36  1  0
  2  3  2  0
  2  4  1  0
  4  5  1  0
  5 24  1  0
  5  6  1  0
  5 37  1  6
  6 19  1  0
  6  7  1  0
  6 38  1  1
  7 15  1  0
  7  8  1  0
  7 39  1  1
  8  9  1  0
  8 40  1  0
  8 41  1  0
  9 14  1  0
  9 10  1  0
  9 42  1  6
 10 11  1  0
 10 43  1  0
 10 44  1  0
 11 17  1  0
 11 12  1  6
 11 13  1  0
 12 45  1  0
 12 46  1  0
 12 47  1  0
 13 14  1  0
 14 15  1  0
 14 48  1  1
 15 16  1  1
 15 17  1  0
 16 49  1  0
 16 50  1  0
 16 51  1  0
 17 18  1  6
 17 19  1  0
 18 52  1  0
 18 53  1  0
 18 54  1  0
 19 21  1  0
 19 20  1  6
 20 21  1  0
 21 22  1  0
 21 55  1  6
 22 33  1  0
 22 23  1  0
 22 56  1  1
 23 24  1  0
 24 25  1  1
 24 26  1  0
 25 57  1  0
 26 33  1  0
 26 27  1  6
 26 28  1  0
 27 58  1  0
 28 29  1  0
 28 59  1  0
 28 60  1  0
 29 30  1  0
 29 31  1  0
 29 61  1  6
 30 62  1  0
 31 32  1  0
 31 33  1  0
 31 63  1  6
 32 64  1  0
 32 65  1  0
 32 66  1  0
 33 67  1  1
M  END
>  <i_m_ct_stereo_status>  (368) 
1

>  <s_m_source_file>  (368) 
/var/tmp/pbs.5076255.sched01/tmpzqmxgpmu/1265eqpa8lp.sdf

>  <i_m_source_file_index>  (368) 
30

>  <i_lp_mmshare_version>  (368) 
48012

>  <i_f3d_flags>  (368) 
0

>  <s_epik_input>  (368) 
TzFbQ0BIXTJbQ0BIXShPMylbQ0BASF0oW0NASF0oW0NIM10pW0NAQEhdKFtDSDJdNClbT0hdKVtDQEBdNChbT0hdKVtDQEBdMyhbT0hdKVtDQEhdKE9DKD1PKVtDSDNdKVtDQEhdKFtDQEBdMTI1KVtDQEBIXTZbQ0BAXTcoW0NIM10pW0NASF04W0NAQEhdKFtDSDJdNilbQ0gyXVtDQEBdKE84KShbQ0gzXSlbQ0BAXTU3W0NIM10=

>  <s_epik_cmdline>  (368) 
J2VwaWtfcHl0aG9uJywgJy1waHQnLCAnMi4wJywgJy1waCcsICc3LjAnLCAnLXRuJywgJzgnLCAnLW1hJywgJzIwMCcsICctaW1hZScsICc8aW5maWxlLm1hZT4nLCAnLW9tYWUnLCAnPG91dGZpbGUubWFlPic=

>  <r_lp_tautomer_probability>  (368) 
1

>  <r_epik_Ionization_Penalty>  (368) 
3.60071e-05

>  <r_epik_Ionization_Penalty_Charging>  (368) 
0

>  <r_epik_Ionization_Penalty_Neutral>  (368) 
3.60071e-05

>  <r_epik_State_Penalty>  (368) 
-0

>  <r_epik_Charging_Adjusted_Penalty>  (368) 
0

>  <i_epik_Tot_Q>  (368) 
0

>  <i_epik_Tot_abs_Q>  (368) 
0

>  <s_epik_Chemistry_Notes>  (368) 
This compound has an ester and may undergo hydrolysis at high or low pH.

>  <s_lp_Force_Field>  (368) 
OPLS3e

>  <r_lp_Energy>  (368) 
86.4015

>  <b_lp_Chiralities_Consistent>  (368) 
1

>  <s_lp_Variant>  (368) 
109:0-1

>  <s_i_glide_gridfile>  (368) 
pfpi4k_grid

>  <i_i_glide_lignum>  (368) 
30

>  <i_i_glide_rotatable_bonds>  (368) 
5

>  <r_i_docking_score>  (368) 
-2.06605

>  <r_i_glide_ligand_efficiency>  (368) 
-0.0626076

>  <r_i_glide_ligand_efficiency_sa>  (368) 
-0.200816

>  <r_i_glide_ligand_efficiency_ln>  (368) 
-0.459479

>  <r_i_glide_gscore>  (368) 
-2.06605

>  <r_i_glide_lipo>  (368) 
-0.302125

>  <r_i_glide_hbond>  (368) 
-0.0483573

>  <r_i_glide_metal>  (368) 
-0

>  <r_i_glide_rewards>  (368) 
-0.255459

>  <r_i_glide_evdw>  (368) 
-26.1017

>  <r_i_glide_ecoul>  (368) 
-1.66039

>  <r_i_glide_erotb>  (368) 
0.0941621

>  <r_i_glide_esite>  (368) 
-0.000126189

>  <r_i_glide_emodel>  (368) 
-28.1441

>  <r_i_glide_energy>  (368) 
-27.7621

>  <r_i_glide_einternal>  (368) 
5.46203

>  <r_i_glide_intrahb_reward>  (368) 
-0

>  <i_i_glide_confnum>  (368) 
4

>  <i_i_glide_posenum>  (368) 
32

>  <r_i_glide_eff_state_penalty>  (368) 
0

>  <ligand_id>  (368) 
109

>  <original_smiles>  (368) 
CC(=O)OC1C2C3CC4CC5(C)OC4C3(C)C5(C)C23OC3C2OC1(O)C1(O)CC(O)C(C)C21

>  <smiles>  (368) 
[H]OC1([H])C([H])([H])C2(O[H])C3(O[H])OC([H])(C4([H])OC45C([H])(C3([H])OC(=O)C([H])([H])[H])C3([H])C([H])([H])C4([H])C([H])([H])C6(C([H])([H])[H])OC4([H])C3(C([H])([H])[H])C65C([H])([H])[H])C2([H])C1([H])C([H])([H])[H]

$$$$
110:0:0
     RDKit          3D

 37 40  0  0  1  0  0  0  0  0999 V2000
    3.5079   -0.6561   -3.5055 C   0  0  0  0  0  0  0  0  0  0  0  0
    4.3335   -1.3011   -2.3739 C   0  0  2  0  0  0  0  0  0  0  0  0
    4.9417   -2.7751   -2.9117 C   0  0  0  0  0  0  0  0  0  0  0  0
    5.1397   -3.8320   -1.7952 N   0  0  1  0  0  0  0  0  0  0  0  0
    6.4374   -3.8221   -1.1096 C   0  0  0  0  0  0  0  0  0  0  0  0
    6.0328   -2.4995   -0.5766 C   0  0  2  0  0  0  0  0  0  0  0  0
    6.4703   -1.8281    0.7077 C   0  0  1  0  0  0  0  0  0  0  0  0
    7.6170   -1.0590    0.4765 O   0  0  0  0  0  0  0  0  0  0  0  0
    5.2606   -0.9782    1.1048 C   0  0  0  0  0  0  0  0  0  0  0  0
    3.9357   -1.6772    0.6474 C   0  0  2  0  0  0  0  0  0  0  0  0
    2.8115   -1.2488    1.6103 C   0  0  0  0  0  0  0  0  0  0  0  0
    4.1711   -3.2827    0.7401 C   0  0  0  0  0  0  0  0  0  0  0  0
    4.5398   -3.1603   -0.6762 C   0  0  2  0  0  0  0  0  0  0  0  0
    3.1116   -2.7029   -1.1216 C   0  0  0  0  0  0  0  0  0  0  0  0
    3.5048   -1.3425   -0.9411 C   0  0  2  0  0  0  0  0  0  0  0  0
    2.6155   -1.2265   -3.7683 H   0  0  0  0  0  0  0  0  0  0  0  0
    4.1083   -0.5418   -4.4083 H   0  0  0  0  0  0  0  0  0  0  0  0
    3.1891    0.3431   -3.2192 H   0  0  0  0  0  0  0  0  0  0  0  0
    5.1379   -0.5783   -2.2470 H   0  0  0  0  0  0  0  0  0  0  0  0
    4.2384   -3.2091   -3.6276 H   0  0  0  0  0  0  0  0  0  0  0  0
    5.8586   -2.6581   -3.4914 H   0  0  0  0  0  0  0  0  0  0  0  0
    6.5369   -4.6124   -0.3492 H   0  0  0  0  0  0  0  0  0  0  0  0
    7.2797   -3.7851   -1.7998 H   0  0  0  0  0  0  0  0  0  0  0  0
    6.4157   -1.8383   -1.3510 H   0  0  0  0  0  0  0  0  0  0  0  0
    6.7185   -2.5630    1.4762 H   0  0  0  0  0  0  0  0  0  0  0  0
    7.7162   -0.4492    1.2105 H   0  0  0  0  0  0  0  0  0  0  0  0
    5.2821   -0.8401    2.1822 H   0  0  0  0  0  0  0  0  0  0  0  0
    5.3124    0.0115    0.6579 H   0  0  0  0  0  0  0  0  0  0  0  0
    1.8576   -1.7048    1.3470 H   0  0  0  0  0  0  0  0  0  0  0  0
    2.6684   -0.1700    1.5772 H   0  0  0  0  0  0  0  0  0  0  0  0
    3.0357   -1.5284    2.6393 H   0  0  0  0  0  0  0  0  0  0  0  0
    4.9438   -3.6326    1.4252 H   0  0  0  0  0  0  0  0  0  0  0  0
    3.2973   -3.9093    0.9463 H   0  0  0  0  0  0  0  0  0  0  0  0
    2.7322   -3.0111   -2.0989 H   0  0  0  0  0  0  0  0  0  0  0  0
    2.2556   -2.9755   -0.4968 H   0  0  0  0  0  0  0  0  0  0  0  0
    2.6681   -0.6652   -0.9819 H   0  0  0  0  0  0  0  0  0  0  0  0
    4.7485   -4.7434   -2.0110 H   0  0  0  0  0  0  0  0  0  0  0  0
  1  2  1  0
  1 16  1  0
  1 17  1  0
  1 18  1  0
  2 15  1  0
  2  3  1  0
  2 19  1  1
  3  4  1  0
  3 20  1  0
  3 21  1  0
  4 13  1  0
  4  5  1  0
  4 37  1  6
  5  6  1  0
  5 22  1  0
  5 23  1  0
  6 13  1  0
  6  7  1  0
  6 24  1  6
  7  8  1  0
  7  9  1  0
  7 25  1  1
  8 26  1  0
  9 10  1  0
  9 27  1  0
  9 28  1  0
 10 15  1  0
 10 11  1  1
 10 12  1  0
 11 29  1  0
 11 30  1  0
 11 31  1  0
 13 12  1  1
 12 32  1  0
 12 33  1  0
 13 14  1  0
 14 15  1  0
 14 34  1  0
 14 35  1  0
 15 36  1  1
M  CHG  1   4   1
M  END
>  <i_m_ct_stereo_status>  (369) 
1

>  <s_m_source_file>  (369) 
/var/tmp/pbs.5076255.sched01/tmpzqmxgpmu/1265eqpa8lp.sdf

>  <i_m_source_file_index>  (369) 
31

>  <i_lp_mmshare_version>  (369) 
48012

>  <i_f3d_flags>  (369) 
0

>  <s_epik_input>  (369) 
QzEyM040W0NIMl1bQ0BASF0oW0NIM10pW0NAQEhdKFtDSDJdMylbQ0BAXShbQ0gzXSkoW0NIMl0yKVtDSDJdW0NASF0oW09IXSlbQ0BIXTFbQ0gyXTQ=

>  <s_epik_cmdline>  (369) 
J2VwaWtfcHl0aG9uJywgJy1waHQnLCAnMi4wJywgJy1waCcsICc3LjAnLCAnLXRuJywgJzgnLCAnLW1hJywgJzIwMCcsICctaW1hZScsICc8aW5maWxlLm1hZT4nLCAnLW9tYWUnLCAnPG91dGZpbGUubWFlPic=

>  <r_lp_tautomer_probability>  (369) 
1

>  <r_epik_Ionization_Penalty>  (369) 
0.000145042

>  <r_epik_Ionization_Penalty_Charging>  (369) 
0.000144995

>  <r_epik_Ionization_Penalty_Neutral>  (369) 
4.65859e-08

>  <r_epik_State_Penalty>  (369) 
-0

>  <r_epik_Charging_Adjusted_Penalty>  (369) 
0.000144995

>  <i_epik_Tot_Q>  (369) 
1

>  <i_epik_Tot_abs_Q>  (369) 
1

>  <s_lp_Force_Field>  (369) 
OPLS3e

>  <r_lp_Energy>  (369) 
234.84

>  <b_lp_Chiralities_Consistent>  (369) 
1

>  <s_lp_Variant>  (369) 
110:0-1

>  <s_i_glide_gridfile>  (369) 
pfpi4k_grid

>  <i_i_glide_lignum>  (369) 
31

>  <i_i_glide_rotatable_bonds>  (369) 
1

>  <r_i_docking_score>  (369) 
-4.76877

>  <r_i_glide_ligand_efficiency>  (369) 
-0.317918

>  <r_i_glide_ligand_efficiency_sa>  (369) 
-0.784053

>  <r_i_glide_ligand_efficiency_ln>  (369) 
-1.28606

>  <r_i_glide_gscore>  (369) 
-4.76877

>  <r_i_glide_lipo>  (369) 
-0.659536

>  <r_i_glide_hbond>  (369) 
-0.333843

>  <r_i_glide_metal>  (369) 
-0

>  <r_i_glide_rewards>  (369) 
-1.98873

>  <r_i_glide_evdw>  (369) 
-13.7242

>  <r_i_glide_ecoul>  (369) 
-7.33226

>  <r_i_glide_erotb>  (369) 
0

>  <r_i_glide_esite>  (369) 
-0.000612877

>  <r_i_glide_emodel>  (369) 
-26.7406

>  <r_i_glide_energy>  (369) 
-21.0564

>  <r_i_glide_einternal>  (369) 
0.679566

>  <r_i_glide_intrahb_reward>  (369) 
-0

>  <i_i_glide_confnum>  (369) 
1

>  <i_i_glide_posenum>  (369) 
32

>  <r_i_glide_eff_state_penalty>  (369) 
0

>  <ligand_id>  (369) 
110

>  <original_smiles>  (369) 
CC1CN2CC3C(O)CC4(C)CC32CC14

>  <smiles>  (369) 
[H]OC1([H])C([H])([H])C2(C([H])([H])[H])C([H])([H])C34C([H])([H])C2([H])C([H])(C([H])([H])[H])C([H])([H])[N+]3([H])C([H])([H])C14[H]

$$$$
110:0:1
     RDKit          3D

 37 40  0  0  1  0  0  0  0  0999 V2000
    3.6575   -2.3015   -2.9099 C   0  0  0  0  0  0  0  0  0  0  0  0
    4.4617   -2.3236   -1.5926 C   0  0  2  0  0  0  0  0  0  0  0  0
    6.0654   -2.6958   -1.9397 C   0  0  0  0  0  0  0  0  0  0  0  0
    6.8203   -3.4378   -0.8050 N   0  0  1  0  0  0  0  0  0  0  0  0
    7.5285   -2.6013    0.1815 C   0  0  0  0  0  0  0  0  0  0  0  0
    6.1458   -2.1571    0.5949 C   0  0  2  0  0  0  0  0  0  0  0  0
    5.6521   -1.6682    1.9453 C   0  0  1  0  0  0  0  0  0  0  0  0
    5.7931   -0.2696    2.0871 O   0  0  0  0  0  0  0  0  0  0  0  0
    4.1721   -2.1157    1.9860 C   0  0  0  0  0  0  0  0  0  0  0  0
    3.9813   -3.4620    1.2013 C   0  0  2  0  0  0  0  0  0  0  0  0
    2.7936   -4.2216    1.8299 C   0  0  0  0  0  0  0  0  0  0  0  0
    5.3525   -4.3186    1.3756 C   0  0  0  0  0  0  0  0  0  0  0  0
    5.7442   -3.6733    0.1173 C   0  0  2  0  0  0  0  0  0  0  0  0
    4.5854   -4.3646   -0.6969 C   0  0  0  0  0  0  0  0  0  0  0  0
    3.7143   -3.2593   -0.4442 C   0  0  2  0  0  0  0  0  0  0  0  0
    3.6077   -3.2783   -3.3935 H   0  0  0  0  0  0  0  0  0  0  0  0
    4.1036   -1.6035   -3.6192 H   0  0  0  0  0  0  0  0  0  0  0  0
    2.6330   -1.9661   -2.7335 H   0  0  0  0  0  0  0  0  0  0  0  0
    4.3725   -1.2900   -1.2601 H   0  0  0  0  0  0  0  0  0  0  0  0
    6.1090   -3.3511   -2.8134 H   0  0  0  0  0  0  0  0  0  0  0  0
    6.6154   -1.8095   -2.2456 H   0  0  0  0  0  0  0  0  0  0  0  0
    8.0603   -3.1875    0.9278 H   0  0  0  0  0  0  0  0  0  0  0  0
    8.1521   -1.8205   -0.2606 H   0  0  0  0  0  0  0  0  0  0  0  0
    5.9776   -1.2968   -0.0464 H   0  0  0  0  0  0  0  0  0  0  0  0
    6.2141   -2.1139    2.7639 H   0  0  0  0  0  0  0  0  0  0  0  0
    6.7172   -0.0436    2.0796 H   0  0  0  0  0  0  0  0  0  0  0  0
    3.8824   -2.2242    3.0331 H   0  0  0  0  0  0  0  0  0  0  0  0
    3.5136   -1.3522    1.5637 H   0  0  0  0  0  0  0  0  0  0  0  0
    2.6118   -5.1742    1.3303 H   0  0  0  0  0  0  0  0  0  0  0  0
    1.8763   -3.6335    1.7584 H   0  0  0  0  0  0  0  0  0  0  0  0
    2.9671   -4.4356    2.8851 H   0  0  0  0  0  0  0  0  0  0  0  0
    5.9594   -4.1062    2.2525 H   0  0  0  0  0  0  0  0  0  0  0  0
    5.2633   -5.4065    1.3533 H   0  0  0  0  0  0  0  0  0  0  0  0
    4.7595   -4.6551   -1.7336 H   0  0  0  0  0  0  0  0  0  0  0  0
    4.1661   -5.3081   -0.3314 H   0  0  0  0  0  0  0  0  0  0  0  0
    2.6767   -3.4704   -0.7203 H   0  0  0  0  0  0  0  0  0  0  0  0
    7.3215   -4.2597   -1.0997 H   0  0  0  0  0  0  0  0  0  0  0  0
  1  2  1  0
  1 16  1  0
  1 17  1  0
  1 18  1  0
  2 15  1  0
  2  3  1  0
  2 19  1  1
  3  4  1  0
  3 20  1  0
  3 21  1  0
  4 13  1  0
  4  5  1  0
  4 37  1  6
  5  6  1  0
  5 22  1  0
  5 23  1  0
  6 13  1  0
  6  7  1  0
  6 24  1  6
  7  8  1  0
  7  9  1  0
  7 25  1  1
  8 26  1  0
  9 10  1  0
  9 27  1  0
  9 28  1  0
 10 15  1  0
 10 11  1  1
 10 12  1  0
 11 29  1  0
 11 30  1  0
 11 31  1  0
 13 12  1  1
 12 32  1  0
 12 33  1  0
 13 14  1  0
 14 15  1  0
 14 34  1  0
 14 35  1  0
 15 36  1  1
M  CHG  1   4   1
M  END
>  <i_m_ct_stereo_status>  (370) 
1

>  <s_m_source_file>  (370) 
/var/tmp/pbs.5076255.sched01/tmpzqmxgpmu/1265eqpa8lp.sdf

>  <i_m_source_file_index>  (370) 
31

>  <i_lp_mmshare_version>  (370) 
48012

>  <i_f3d_flags>  (370) 
0

>  <s_epik_input>  (370) 
QzEyM040W0NIMl1bQ0BASF0oW0NIM10pW0NAQEhdKFtDSDJdMylbQ0BAXShbQ0gzXSkoW0NIMl0yKVtDSDJdW0NASF0oW09IXSlbQ0BIXTFbQ0gyXTQ=

>  <s_epik_cmdline>  (370) 
J2VwaWtfcHl0aG9uJywgJy1waHQnLCAnMi4wJywgJy1waCcsICc3LjAnLCAnLXRuJywgJzgnLCAnLW1hJywgJzIwMCcsICctaW1hZScsICc8aW5maWxlLm1hZT4nLCAnLW9tYWUnLCAnPG91dGZpbGUubWFlPic=

>  <r_lp_tautomer_probability>  (370) 
1

>  <r_epik_Ionization_Penalty>  (370) 
0.000145042

>  <r_epik_Ionization_Penalty_Charging>  (370) 
0.000144995

>  <r_epik_Ionization_Penalty_Neutral>  (370) 
4.65859e-08

>  <r_epik_State_Penalty>  (370) 
-0

>  <r_epik_Charging_Adjusted_Penalty>  (370) 
0.000144995

>  <i_epik_Tot_Q>  (370) 
1

>  <i_epik_Tot_abs_Q>  (370) 
1

>  <s_lp_Force_Field>  (370) 
OPLS3e

>  <r_lp_Energy>  (370) 
234.84

>  <b_lp_Chiralities_Consistent>  (370) 
1

>  <s_lp_Variant>  (370) 
110:0-1

>  <s_i_glide_gridfile>  (370) 
pfpi4k_grid

>  <i_i_glide_lignum>  (370) 
31

>  <i_i_glide_rotatable_bonds>  (370) 
1

>  <r_i_docking_score>  (370) 
-4.48188

>  <r_i_glide_ligand_efficiency>  (370) 
-0.298792

>  <r_i_glide_ligand_efficiency_sa>  (370) 
-0.736885

>  <r_i_glide_ligand_efficiency_ln>  (370) 
-1.20869

>  <r_i_glide_gscore>  (370) 
-4.48188

>  <r_i_glide_lipo>  (370) 
-0.541234

>  <r_i_glide_hbond>  (370) 
-0.552375

>  <r_i_glide_metal>  (370) 
-0

>  <r_i_glide_rewards>  (370) 
-1.98873

>  <r_i_glide_evdw>  (370) 
-17.7274

>  <r_i_glide_ecoul>  (370) 
-3.42115

>  <r_i_glide_erotb>  (370) 
0

>  <r_i_glide_esite>  (370) 
0

>  <r_i_glide_emodel>  (370) 
-26.7143

>  <r_i_glide_energy>  (370) 
-21.1486

>  <r_i_glide_einternal>  (370) 
0.310649

>  <r_i_glide_intrahb_reward>  (370) 
-0

>  <i_i_glide_confnum>  (370) 
2

>  <i_i_glide_posenum>  (370) 
40

>  <r_i_glide_eff_state_penalty>  (370) 
0

>  <ligand_id>  (370) 
110

>  <original_smiles>  (370) 
CC1CN2CC3C(O)CC4(C)CC32CC14

>  <smiles>  (370) 
[H]OC1([H])C([H])([H])C2(C([H])([H])[H])C([H])([H])C34C([H])([H])C2([H])C([H])(C([H])([H])[H])C([H])([H])[N+]3([H])C([H])([H])C14[H]

$$$$
110:0:2
     RDKit          3D

 37 40  0  0  1  0  0  0  0  0999 V2000
    2.8782   -3.0529   -3.2253 C   0  0  0  0  0  0  0  0  0  0  0  0
    3.3762   -2.6115   -1.8337 C   0  0  2  0  0  0  0  0  0  0  0  0
    4.9507   -2.0493   -1.9761 C   0  0  0  0  0  0  0  0  0  0  0  0
    5.8200   -2.2412   -0.7034 N   0  0  1  0  0  0  0  0  0  0  0  0
    5.8169   -1.1326    0.2761 C   0  0  0  0  0  0  0  0  0  0  0  0
    4.3722   -1.5048    0.4891 C   0  0  2  0  0  0  0  0  0  0  0  0
    3.5065   -1.3336    1.7237 C   0  0  1  0  0  0  0  0  0  0  0  0
    2.8252   -0.0950    1.7375 O   0  0  0  0  0  0  0  0  0  0  0  0
    2.5293   -2.5241    1.6692 C   0  0  0  0  0  0  0  0  0  0  0  0
    3.2050   -3.7697    0.9964 C   0  0  2  0  0  0  0  0  0  0  0  0
    2.5437   -5.0446    1.5660 C   0  0  0  0  0  0  0  0  0  0  0  0
    4.7798   -3.7280    1.3910 C   0  0  0  0  0  0  0  0  0  0  0  0
    4.9254   -3.0057    0.1223 C   0  0  2  0  0  0  0  0  0  0  0  0
    4.4512   -4.2385   -0.7355 C   0  0  0  0  0  0  0  0  0  0  0  0
    3.0986   -3.7788   -0.6819 C   0  0  2  0  0  0  0  0  0  0  0  0
    3.4382   -3.9011   -3.6195 H   0  0  0  0  0  0  0  0  0  0  0  0
    2.9659   -2.2386   -3.9495 H   0  0  0  0  0  0  0  0  0  0  0  0
    1.8262   -3.3408   -3.1858 H   0  0  0  0  0  0  0  0  0  0  0  0
    2.6965   -1.7893   -1.6107 H   0  0  0  0  0  0  0  0  0  0  0  0
    5.4606   -2.5950   -2.7724 H   0  0  0  0  0  0  0  0  0  0  0  0
    4.9589   -1.0046   -2.3017 H   0  0  0  0  0  0  0  0  0  0  0  0
    6.4653   -1.3102    1.1331 H   0  0  0  0  0  0  0  0  0  0  0  0
    5.9620   -0.1502   -0.1719 H   0  0  0  0  0  0  0  0  0  0  0  0
    3.8690   -0.8828   -0.2477 H   0  0  0  0  0  0  0  0  0  0  0  0
    4.1081   -1.3609    2.6322 H   0  0  0  0  0  0  0  0  0  0  0  0
    2.1934   -0.0779    1.0308 H   0  0  0  0  0  0  0  0  0  0  0  0
    2.2024   -2.7435    2.6870 H   0  0  0  0  0  0  0  0  0  0  0  0
    1.6360   -2.2553    1.1061 H   0  0  0  0  0  0  0  0  0  0  0  0
    2.9773   -5.9511    1.1420 H   0  0  0  0  0  0  0  0  0  0  0  0
    1.4767   -5.0657    1.3448 H   0  0  0  0  0  0  0  0  0  0  0  0
    2.6553   -5.0992    2.6499 H   0  0  0  0  0  0  0  0  0  0  0  0
    5.0439   -3.1916    2.2969 H   0  0  0  0  0  0  0  0  0  0  0  0
    5.2962   -4.6861    1.4629 H   0  0  0  0  0  0  0  0  0  0  0  0
    4.8968   -4.4061   -1.7179 H   0  0  0  0  0  0  0  0  0  0  0  0
    4.5594   -5.2485   -0.3267 H   0  0  0  0  0  0  0  0  0  0  0  0
    2.3826   -4.5231   -1.0392 H   0  0  0  0  0  0  0  0  0  0  0  0
    6.7107   -2.6908   -0.8582 H   0  0  0  0  0  0  0  0  0  0  0  0
  1  2  1  0
  1 16  1  0
  1 17  1  0
  1 18  1  0
  2 15  1  0
  2  3  1  0
  2 19  1  1
  3  4  1  0
  3 20  1  0
  3 21  1  0
  4 13  1  0
  4  5  1  0
  4 37  1  6
  5  6  1  0
  5 22  1  0
  5 23  1  0
  6 13  1  0
  6  7  1  0
  6 24  1  6
  7  8  1  0
  7  9  1  0
  7 25  1  1
  8 26  1  0
  9 10  1  0
  9 27  1  0
  9 28  1  0
 10 15  1  0
 10 11  1  1
 10 12  1  0
 11 29  1  0
 11 30  1  0
 11 31  1  0
 13 12  1  1
 12 32  1  0
 12 33  1  0
 13 14  1  0
 14 15  1  0
 14 34  1  0
 14 35  1  0
 15 36  1  1
M  CHG  1   4   1
M  END
>  <i_m_ct_stereo_status>  (371) 
1

>  <s_m_source_file>  (371) 
/var/tmp/pbs.5076255.sched01/tmpzqmxgpmu/1265eqpa8lp.sdf

>  <i_m_source_file_index>  (371) 
31

>  <i_lp_mmshare_version>  (371) 
48012

>  <i_f3d_flags>  (371) 
0

>  <s_epik_input>  (371) 
QzEyM040W0NIMl1bQ0BASF0oW0NIM10pW0NAQEhdKFtDSDJdMylbQ0BAXShbQ0gzXSkoW0NIMl0yKVtDSDJdW0NASF0oW09IXSlbQ0BIXTFbQ0gyXTQ=

>  <s_epik_cmdline>  (371) 
J2VwaWtfcHl0aG9uJywgJy1waHQnLCAnMi4wJywgJy1waCcsICc3LjAnLCAnLXRuJywgJzgnLCAnLW1hJywgJzIwMCcsICctaW1hZScsICc8aW5maWxlLm1hZT4nLCAnLW9tYWUnLCAnPG91dGZpbGUubWFlPic=

>  <r_lp_tautomer_probability>  (371) 
1

>  <r_epik_Ionization_Penalty>  (371) 
0.000145042

>  <r_epik_Ionization_Penalty_Charging>  (371) 
0.000144995

>  <r_epik_Ionization_Penalty_Neutral>  (371) 
4.65859e-08

>  <r_epik_State_Penalty>  (371) 
-0

>  <r_epik_Charging_Adjusted_Penalty>  (371) 
0.000144995

>  <i_epik_Tot_Q>  (371) 
1

>  <i_epik_Tot_abs_Q>  (371) 
1

>  <s_lp_Force_Field>  (371) 
OPLS3e

>  <r_lp_Energy>  (371) 
234.84

>  <b_lp_Chiralities_Consistent>  (371) 
1

>  <s_lp_Variant>  (371) 
110:0-1

>  <s_i_glide_gridfile>  (371) 
pfpi4k_grid

>  <i_i_glide_lignum>  (371) 
31

>  <i_i_glide_rotatable_bonds>  (371) 
1

>  <r_i_docking_score>  (371) 
-3.60457

>  <r_i_glide_ligand_efficiency>  (371) 
-0.240304

>  <r_i_glide_ligand_efficiency_sa>  (371) 
-0.592642

>  <r_i_glide_ligand_efficiency_ln>  (371) 
-0.972092

>  <r_i_glide_gscore>  (371) 
-3.60457

>  <r_i_glide_lipo>  (371) 
-0.242002

>  <r_i_glide_hbond>  (371) 
0

>  <r_i_glide_metal>  (371) 
-0

>  <r_i_glide_rewards>  (371) 
-1.98873

>  <r_i_glide_evdw>  (371) 
-19.3325

>  <r_i_glide_ecoul>  (371) 
-2.53406

>  <r_i_glide_erotb>  (371) 
0

>  <r_i_glide_esite>  (371) 
-0.0271004

>  <r_i_glide_emodel>  (371) 
-26.4306

>  <r_i_glide_energy>  (371) 
-21.8666

>  <r_i_glide_einternal>  (371) 
0.0322716

>  <r_i_glide_intrahb_reward>  (371) 
-0

>  <i_i_glide_confnum>  (371) 
2

>  <i_i_glide_posenum>  (371) 
2

>  <r_i_glide_eff_state_penalty>  (371) 
0

>  <ligand_id>  (371) 
110

>  <original_smiles>  (371) 
CC1CN2CC3C(O)CC4(C)CC32CC14

>  <smiles>  (371) 
[H]OC1([H])C([H])([H])C2(C([H])([H])[H])C([H])([H])C34C([H])([H])C2([H])C([H])(C([H])([H])[H])C([H])([H])[N+]3([H])C([H])([H])C14[H]

$$$$
113:0:0
     RDKit          3D

 29 30  0  0  1  0  0  0  0  0999 V2000
   -8.4301   -4.1074   -5.8239 C   0  0  0  0  0  0  0  0  0  0  0  0
   -7.3450   -5.1664   -5.6623 C   0  0  0  0  0  0  0  0  0  0  0  0
   -6.2099   -4.9322   -4.8618 C   0  0  0  0  0  0  0  0  0  0  0  0
   -5.2532   -5.8787   -4.7046 N   0  0  0  0  0  0  0  0  0  0  0  0
   -5.4186   -7.0527   -5.3526 C   0  0  0  0  0  0  0  0  0  0  0  0
   -4.2410   -8.0197   -5.1606 C   0  0  0  0  0  0  0  0  0  0  0  0
   -6.5633   -7.2999   -6.1588 C   0  0  0  0  0  0  0  0  0  0  0  0
   -6.7927   -8.5134   -6.8644 N   0  0  0  0  0  0  0  0  0  0  0  0
   -7.4299   -8.5286   -8.1690 C   0  0  0  0  0  0  0  0  0  0  0  0
   -8.6481   -9.4745   -8.1580 C   0  0  0  0  0  0  0  0  0  0  0  0
   -8.2710  -10.7611   -7.6779 O   0  0  0  0  0  0  0  0  0  0  0  0
   -7.7694  -10.7023   -6.3405 C   0  0  0  0  0  0  0  0  0  0  0  0
   -6.5314   -9.8137   -6.2740 C   0  0  0  0  0  0  0  0  0  0  0  0
   -7.5207   -6.3368   -6.3046 N   0  0  0  0  0  0  0  0  0  0  0  0
   -8.1867   -3.2148   -5.2517 H   0  0  0  0  0  0  0  0  0  0  0  0
   -9.3895   -4.4806   -5.4684 H   0  0  0  0  0  0  0  0  0  0  0  0
   -8.5316   -3.8239   -6.8703 H   0  0  0  0  0  0  0  0  0  0  0  0
   -6.0682   -3.9965   -4.3420 H   0  0  0  0  0  0  0  0  0  0  0  0
   -4.2998   -8.9308   -5.7591 H   0  0  0  0  0  0  0  0  0  0  0  0
   -4.1815   -8.3029   -4.1058 H   0  0  0  0  0  0  0  0  0  0  0  0
   -3.3176   -7.4862   -5.4012 H   0  0  0  0  0  0  0  0  0  0  0  0
   -7.7262   -7.5322   -8.5129 H   0  0  0  0  0  0  0  0  0  0  0  0
   -6.7000   -8.8827   -8.9022 H   0  0  0  0  0  0  0  0  0  0  0  0
   -9.4357   -9.0695   -7.5256 H   0  0  0  0  0  0  0  0  0  0  0  0
   -9.0605   -9.5833   -9.1615 H   0  0  0  0  0  0  0  0  0  0  0  0
   -8.5447  -10.3395   -5.6619 H   0  0  0  0  0  0  0  0  0  0  0  0
   -7.5133  -11.7086   -6.0033 H   0  0  0  0  0  0  0  0  0  0  0  0
   -5.7236  -10.2897   -6.8374 H   0  0  0  0  0  0  0  0  0  0  0  0
   -6.2167   -9.7201   -5.2325 H   0  0  0  0  0  0  0  0  0  0  0  0
  1  2  1  0
  1 15  1  0
  1 16  1  0
  1 17  1  0
  2 14  2  0
  2  3  1  0
  3  4  2  0
  3 18  1  0
  4  5  1  0
  5  6  1  0
  5  7  2  0
  6 19  1  0
  6 20  1  0
  6 21  1  0
  7  8  1  0
  7 14  1  0
  8 13  1  0
  8  9  1  0
  9 10  1  0
  9 22  1  0
  9 23  1  0
 10 11  1  0
 10 24  1  0
 10 25  1  0
 11 12  1  0
 12 13  1  0
 12 26  1  0
 12 27  1  0
 13 28  1  0
 13 29  1  0
M  END
>  <i_m_ct_stereo_status>  (372) 
1

>  <s_m_source_file>  (372) 
/var/tmp/pbs.5076255.sched01/tmpzqmxgpmu/1265eqpa8lp.sdf

>  <i_m_source_file_index>  (372) 
34

>  <i_lp_mmshare_version>  (372) 
48012

>  <i_f3d_flags>  (372) 
0

>  <s_epik_input>  (372) 
W0NIM11jMVtjSF1uYyhbQ0gzXSljKG4xKU4yW0NIMl1bQ0gyXU9bQ0gyXVtDSDJdMg==

>  <s_epik_cmdline>  (372) 
J2VwaWtfcHl0aG9uJywgJy1waHQnLCAnMi4wJywgJy1waCcsICc3LjAnLCAnLXRuJywgJzgnLCAnLW1hJywgJzIwMCcsICctaW1hZScsICc8aW5maWxlLm1hZT4nLCAnLW9tYWUnLCAnPG91dGZpbGUubWFlPic=

>  <r_lp_tautomer_probability>  (372) 
1

>  <r_epik_Ionization_Penalty>  (372) 
5.30713e-05

>  <r_epik_Ionization_Penalty_Charging>  (372) 
0

>  <r_epik_Ionization_Penalty_Neutral>  (372) 
5.30713e-05

>  <r_epik_State_Penalty>  (372) 
-0

>  <r_epik_Charging_Adjusted_Penalty>  (372) 
0

>  <i_epik_Tot_Q>  (372) 
0

>  <i_epik_Tot_abs_Q>  (372) 
0

>  <s_lp_Force_Field>  (372) 
OPLS3e

>  <r_lp_Energy>  (372) 
28.3283

>  <b_lp_Chiralities_Consistent>  (372) 
1

>  <s_lp_Variant>  (372) 
113:0-1

>  <s_i_glide_gridfile>  (372) 
pfpi4k_grid

>  <i_i_glide_lignum>  (372) 
34

>  <i_i_glide_rotatable_bonds>  (372) 
1

>  <r_i_docking_score>  (372) 
-6.61305

>  <r_i_glide_ligand_efficiency>  (372) 
-0.472361

>  <r_i_glide_ligand_efficiency_sa>  (372) 
-1.13846

>  <r_i_glide_ligand_efficiency_ln>  (372) 
-1.81724

>  <r_i_glide_gscore>  (372) 
-6.61305

>  <r_i_glide_lipo>  (372) 
-2.09978

>  <r_i_glide_hbond>  (372) 
-0.254085

>  <r_i_glide_metal>  (372) 
-0

>  <r_i_glide_rewards>  (372) 
-3.15442

>  <r_i_glide_evdw>  (372) 
-23.9747

>  <r_i_glide_ecoul>  (372) 
-2.25577

>  <r_i_glide_erotb>  (372) 
0.43234

>  <r_i_glide_esite>  (372) 
0

>  <r_i_glide_emodel>  (372) 
-36.5405

>  <r_i_glide_energy>  (372) 
-26.2305

>  <r_i_glide_einternal>  (372) 
0.00277969

>  <r_i_glide_intrahb_reward>  (372) 
-0

>  <i_i_glide_confnum>  (372) 
3

>  <i_i_glide_posenum>  (372) 
10

>  <r_i_glide_eff_state_penalty>  (372) 
0

>  <ligand_id>  (372) 
113

>  <original_smiles>  (372) 
Cc1cnc(C)c(N2CCOCC2)n1

>  <smiles>  (372) 
[H]c1nc(C([H])([H])[H])c(N2C([H])([H])C([H])([H])OC([H])([H])C2([H])[H])nc1C([H])([H])[H]

$$$$
113:0:1
     RDKit          3D

 29 30  0  0  1  0  0  0  0  0999 V2000
   -6.4477   -4.4684   -4.1729 C   0  0  0  0  0  0  0  0  0  0  0  0
   -7.0926   -5.1422   -5.3679 C   0  0  0  0  0  0  0  0  0  0  0  0
   -8.1111   -4.5022   -6.0992 C   0  0  0  0  0  0  0  0  0  0  0  0
   -8.6869   -5.0956   -7.1738 N   0  0  0  0  0  0  0  0  0  0  0  0
   -8.2586   -6.3401   -7.5239 C   0  0  0  0  0  0  0  0  0  0  0  0
   -8.9370   -6.8826   -8.7777 C   0  0  0  0  0  0  0  0  0  0  0  0
   -7.2410   -6.9967   -6.7711 C   0  0  0  0  0  0  0  0  0  0  0  0
   -6.7680   -8.2813   -7.0733 N   0  0  0  0  0  0  0  0  0  0  0  0
   -7.6667   -9.3806   -7.4036 C   0  0  0  0  0  0  0  0  0  0  0  0
   -7.4021  -10.5857   -6.4910 C   0  0  0  0  0  0  0  0  0  0  0  0
   -6.0245  -10.9443   -6.5327 O   0  0  0  0  0  0  0  0  0  0  0  0
   -5.1780   -9.8889   -6.0772 C   0  0  0  0  0  0  0  0  0  0  0  0
   -5.3514   -8.6394   -6.9654 C   0  0  0  0  0  0  0  0  0  0  0  0
   -6.6637   -6.3782   -5.6993 N   0  0  0  0  0  0  0  0  0  0  0  0
   -6.8751   -3.4813   -4.0254 H   0  0  0  0  0  0  0  0  0  0  0  0
   -5.3770   -4.3439   -4.3248 H   0  0  0  0  0  0  0  0  0  0  0  0
   -6.6100   -5.0514   -3.2666 H   0  0  0  0  0  0  0  0  0  0  0  0
   -8.4604   -3.5168   -5.8428 H   0  0  0  0  0  0  0  0  0  0  0  0
   -8.5253   -7.8530   -9.0959 H   0  0  0  0  0  0  0  0  0  0  0  0
   -8.8414   -6.1407   -9.5822 H   0  0  0  0  0  0  0  0  0  0  0  0
  -10.0042   -6.9954   -8.5685 H   0  0  0  0  0  0  0  0  0  0  0  0
   -8.7071   -9.0784   -7.2863 H   0  0  0  0  0  0  0  0  0  0  0  0
   -7.4895   -9.6812   -8.4359 H   0  0  0  0  0  0  0  0  0  0  0  0
   -7.7104  -10.3632   -5.4749 H   0  0  0  0  0  0  0  0  0  0  0  0
   -8.0097  -11.4254   -6.8207 H   0  0  0  0  0  0  0  0  0  0  0  0
   -5.4185   -9.6553   -5.0411 H   0  0  0  0  0  0  0  0  0  0  0  0
   -4.1405  -10.2338   -6.0970 H   0  0  0  0  0  0  0  0  0  0  0  0
   -4.9882   -8.8553   -7.9672 H   0  0  0  0  0  0  0  0  0  0  0  0
   -4.7479   -7.8099   -6.5953 H   0  0  0  0  0  0  0  0  0  0  0  0
  1  2  1  0
  1 15  1  0
  1 16  1  0
  1 17  1  0
  2 14  2  0
  2  3  1  0
  3  4  2  0
  3 18  1  0
  4  5  1  0
  5  6  1  0
  5  7  2  0
  6 19  1  0
  6 20  1  0
  6 21  1  0
  7  8  1  0
  7 14  1  0
  8 13  1  0
  8  9  1  0
  9 10  1  0
  9 22  1  0
  9 23  1  0
 10 11  1  0
 10 24  1  0
 10 25  1  0
 11 12  1  0
 12 13  1  0
 12 26  1  0
 12 27  1  0
 13 28  1  0
 13 29  1  0
M  END
>  <i_m_ct_stereo_status>  (373) 
1

>  <s_m_source_file>  (373) 
/var/tmp/pbs.5076255.sched01/tmpzqmxgpmu/1265eqpa8lp.sdf

>  <i_m_source_file_index>  (373) 
34

>  <i_lp_mmshare_version>  (373) 
48012

>  <i_f3d_flags>  (373) 
0

>  <s_epik_input>  (373) 
W0NIM11jMVtjSF1uYyhbQ0gzXSljKG4xKU4yW0NIMl1bQ0gyXU9bQ0gyXVtDSDJdMg==

>  <s_epik_cmdline>  (373) 
J2VwaWtfcHl0aG9uJywgJy1waHQnLCAnMi4wJywgJy1waCcsICc3LjAnLCAnLXRuJywgJzgnLCAnLW1hJywgJzIwMCcsICctaW1hZScsICc8aW5maWxlLm1hZT4nLCAnLW9tYWUnLCAnPG91dGZpbGUubWFlPic=

>  <r_lp_tautomer_probability>  (373) 
1

>  <r_epik_Ionization_Penalty>  (373) 
5.30713e-05

>  <r_epik_Ionization_Penalty_Charging>  (373) 
0

>  <r_epik_Ionization_Penalty_Neutral>  (373) 
5.30713e-05

>  <r_epik_State_Penalty>  (373) 
-0

>  <r_epik_Charging_Adjusted_Penalty>  (373) 
0

>  <i_epik_Tot_Q>  (373) 
0

>  <i_epik_Tot_abs_Q>  (373) 
0

>  <s_lp_Force_Field>  (373) 
OPLS3e

>  <r_lp_Energy>  (373) 
28.3283

>  <b_lp_Chiralities_Consistent>  (373) 
1

>  <s_lp_Variant>  (373) 
113:0-1

>  <s_i_glide_gridfile>  (373) 
pfpi4k_grid

>  <i_i_glide_lignum>  (373) 
34

>  <i_i_glide_rotatable_bonds>  (373) 
1

>  <r_i_docking_score>  (373) 
-5.38793

>  <r_i_glide_ligand_efficiency>  (373) 
-0.384852

>  <r_i_glide_ligand_efficiency_sa>  (373) 
-0.927548

>  <r_i_glide_ligand_efficiency_ln>  (373) 
-1.48058

>  <r_i_glide_gscore>  (373) 
-5.38793

>  <r_i_glide_lipo>  (373) 
-2.10118

>  <r_i_glide_hbond>  (373) 
0

>  <r_i_glide_metal>  (373) 
-0

>  <r_i_glide_rewards>  (373) 
-2.43649

>  <r_i_glide_evdw>  (373) 
-22.3264

>  <r_i_glide_ecoul>  (373) 
-1.10851

>  <r_i_glide_erotb>  (373) 
0.43234

>  <r_i_glide_esite>  (373) 
0

>  <r_i_glide_emodel>  (373) 
-31.6949

>  <r_i_glide_energy>  (373) 
-23.4349

>  <r_i_glide_einternal>  (373) 
0.176035

>  <r_i_glide_intrahb_reward>  (373) 
-0

>  <i_i_glide_confnum>  (373) 
3

>  <i_i_glide_posenum>  (373) 
14

>  <r_i_glide_eff_state_penalty>  (373) 
0

>  <ligand_id>  (373) 
113

>  <original_smiles>  (373) 
Cc1cnc(C)c(N2CCOCC2)n1

>  <smiles>  (373) 
[H]c1nc(C([H])([H])[H])c(N2C([H])([H])C([H])([H])OC([H])([H])C2([H])[H])nc1C([H])([H])[H]

$$$$
113:0:2
     RDKit          3D

 29 30  0  0  1  0  0  0  0  0999 V2000
    4.3993   -0.1980    2.5869 C   0  0  0  0  0  0  0  0  0  0  0  0
    5.1578   -0.9169    1.4888 C   0  0  0  0  0  0  0  0  0  0  0  0
    6.5682   -1.0663    1.5769 C   0  0  0  0  0  0  0  0  0  0  0  0
    7.2798   -1.7008    0.6295 N   0  0  0  0  0  0  0  0  0  0  0  0
    6.6123   -2.2268   -0.4319 C   0  0  0  0  0  0  0  0  0  0  0  0
    7.5259   -2.9048   -1.4465 C   0  0  0  0  0  0  0  0  0  0  0  0
    5.1971   -2.0792   -0.5201 C   0  0  0  0  0  0  0  0  0  0  0  0
    4.4535   -2.5755   -1.5950 N   0  0  0  0  0  0  0  0  0  0  0  0
    3.3890   -1.8033   -2.2205 C   0  0  0  0  0  0  0  0  0  0  0  0
    3.6657   -1.7529   -3.7315 C   0  0  0  0  0  0  0  0  0  0  0  0
    3.7664   -3.0832   -4.2446 O   0  0  0  0  0  0  0  0  0  0  0  0
    4.8226   -3.8350   -3.6531 C   0  0  0  0  0  0  0  0  0  0  0  0
    4.6610   -3.9147   -2.1132 C   0  0  0  0  0  0  0  0  0  0  0  0
    4.4883   -1.4115    0.4389 N   0  0  0  0  0  0  0  0  0  0  0  0
    5.0791    0.1596    3.3599 H   0  0  0  0  0  0  0  0  0  0  0  0
    3.6833   -0.8728    3.0582 H   0  0  0  0  0  0  0  0  0  0  0  0
    3.8632    0.6614    2.1825 H   0  0  0  0  0  0  0  0  0  0  0  0
    7.1060   -0.6897    2.4333 H   0  0  0  0  0  0  0  0  0  0  0  0
    7.0159   -3.2680   -2.3202 H   0  0  0  0  0  0  0  0  0  0  0  0
    8.0497   -3.7223   -0.9484 H   0  0  0  0  0  0  0  0  0  0  0  0
    8.3300   -2.2202   -1.7298 H   0  0  0  0  0  0  0  0  0  0  0  0
    2.4051   -2.2424   -2.0436 H   0  0  0  0  0  0  0  0  0  0  0  0
    3.3405   -0.7961   -1.8142 H   0  0  0  0  0  0  0  0  0  0  0  0
    2.8735   -1.2273   -4.2647 H   0  0  0  0  0  0  0  0  0  0  0  0
    4.5891   -1.2064   -3.9265 H   0  0  0  0  0  0  0  0  0  0  0  0
    4.8640   -4.8307   -4.0943 H   0  0  0  0  0  0  0  0  0  0  0  0
    5.7575   -3.3396   -3.9172 H   0  0  0  0  0  0  0  0  0  0  0  0
    5.4922   -4.4376   -1.6253 H   0  0  0  0  0  0  0  0  0  0  0  0
    3.7888   -4.4551   -1.8123 H   0  0  0  0  0  0  0  0  0  0  0  0
  1  2  1  0
  1 15  1  0
  1 16  1  0
  1 17  1  0
  2 14  2  0
  2  3  1  0
  3  4  2  0
  3 18  1  0
  4  5  1  0
  5  6  1  0
  5  7  2  0
  6 19  1  0
  6 20  1  0
  6 21  1  0
  7  8  1  0
  7 14  1  0
  8 13  1  0
  8  9  1  0
  9 10  1  0
  9 22  1  0
  9 23  1  0
 10 11  1  0
 10 24  1  0
 10 25  1  0
 11 12  1  0
 12 13  1  0
 12 26  1  0
 12 27  1  0
 13 28  1  0
 13 29  1  0
M  END
>  <i_m_ct_stereo_status>  (374) 
1

>  <s_m_source_file>  (374) 
/var/tmp/pbs.5076255.sched01/tmpzqmxgpmu/1265eqpa8lp.sdf

>  <i_m_source_file_index>  (374) 
34

>  <i_lp_mmshare_version>  (374) 
48012

>  <i_f3d_flags>  (374) 
0

>  <s_epik_input>  (374) 
W0NIM11jMVtjSF1uYyhbQ0gzXSljKG4xKU4yW0NIMl1bQ0gyXU9bQ0gyXVtDSDJdMg==

>  <s_epik_cmdline>  (374) 
J2VwaWtfcHl0aG9uJywgJy1waHQnLCAnMi4wJywgJy1waCcsICc3LjAnLCAnLXRuJywgJzgnLCAnLW1hJywgJzIwMCcsICctaW1hZScsICc8aW5maWxlLm1hZT4nLCAnLW9tYWUnLCAnPG91dGZpbGUubWFlPic=

>  <r_lp_tautomer_probability>  (374) 
1

>  <r_epik_Ionization_Penalty>  (374) 
5.30713e-05

>  <r_epik_Ionization_Penalty_Charging>  (374) 
0

>  <r_epik_Ionization_Penalty_Neutral>  (374) 
5.30713e-05

>  <r_epik_State_Penalty>  (374) 
-0

>  <r_epik_Charging_Adjusted_Penalty>  (374) 
0

>  <i_epik_Tot_Q>  (374) 
0

>  <i_epik_Tot_abs_Q>  (374) 
0

>  <s_lp_Force_Field>  (374) 
OPLS3e

>  <r_lp_Energy>  (374) 
28.3283

>  <b_lp_Chiralities_Consistent>  (374) 
1

>  <s_lp_Variant>  (374) 
113:0-1

>  <s_i_glide_gridfile>  (374) 
pfpi4k_grid

>  <i_i_glide_lignum>  (374) 
34

>  <i_i_glide_rotatable_bonds>  (374) 
1

>  <r_i_docking_score>  (374) 
-3.60074

>  <r_i_glide_ligand_efficiency>  (374) 
-0.257196

>  <r_i_glide_ligand_efficiency_sa>  (374) 
-0.619878

>  <r_i_glide_ligand_efficiency_ln>  (374) 
-0.98947

>  <r_i_glide_gscore>  (374) 
-3.60074

>  <r_i_glide_lipo>  (374) 
-0.484198

>  <r_i_glide_hbond>  (374) 
-0.238172

>  <r_i_glide_metal>  (374) 
-0

>  <r_i_glide_rewards>  (374) 
-2.09151

>  <r_i_glide_evdw>  (374) 
-17.3883

>  <r_i_glide_ecoul>  (374) 
-2.20416

>  <r_i_glide_erotb>  (374) 
0.43234

>  <r_i_glide_esite>  (374) 
-0.019163

>  <r_i_glide_emodel>  (374) 
-24.2116

>  <r_i_glide_energy>  (374) 
-19.5924

>  <r_i_glide_einternal>  (374) 
0.875313

>  <r_i_glide_intrahb_reward>  (374) 
-0

>  <i_i_glide_confnum>  (374) 
1

>  <i_i_glide_posenum>  (374) 
2

>  <r_i_glide_eff_state_penalty>  (374) 
0

>  <ligand_id>  (374) 
113

>  <original_smiles>  (374) 
Cc1cnc(C)c(N2CCOCC2)n1

>  <smiles>  (374) 
[H]c1nc(C([H])([H])[H])c(N2C([H])([H])C([H])([H])OC([H])([H])C2([H])[H])nc1C([H])([H])[H]

$$$$
114:0:0
     RDKit          3D

 77 82  0  0  1  0  0  0  0  0999 V2000
    2.8045    4.6014    6.8630 C   0  0  0  0  0  0  0  0  0  0  0  0
    2.9079    4.0600    8.0907 C   0  0  0  0  0  0  0  0  0  0  0  0
    2.5312    4.9072    9.2965 C   0  0  0  0  0  0  0  0  0  0  0  0
    3.3965    2.6302    8.3875 C   0  0  2  0  0  0  0  0  0  0  0  0
    4.1462    1.9102    7.2195 C   0  0  0  0  0  0  0  0  0  0  0  0
    3.3476    0.6128    6.8677 C   0  0  2  0  0  0  0  0  0  0  0  0
    2.2486    0.9570    5.7573 C   0  0  1  0  0  0  0  0  0  0  0  0
    2.7656    1.5335    4.4122 C   0  0  0  0  0  0  0  0  0  0  0  0
    1.6266    2.2137    3.6582 C   0  0  0  0  0  0  0  0  0  0  0  0
    0.3077    2.0622    3.9554 C   0  0  0  0  0  0  0  0  0  0  0  0
   -0.6378    3.1986    3.5778 C   0  0  1  0  0  0  0  0  0  0  0  0
   -2.0711    3.1087    4.1569 C   0  0  0  0  0  0  0  0  0  0  0  0
   -2.1149    2.5440    5.5334 N   0  0  0  0  0  0  0  0  0  0  0  0
   -3.1733    3.1645    6.3233 C   0  0  0  0  0  0  0  0  0  0  0  0
   -0.8404    2.0690    6.1326 C   0  0  1  0  0  0  0  0  0  0  0  0
   -1.0407    1.5211    7.6093 C   0  0  0  0  0  0  0  0  0  0  0  0
   -0.8045    2.4074    8.8986 C   0  0  1  0  0  0  0  0  0  0  0  0
   -2.1316    2.9423    9.4776 C   0  0  0  0  0  0  0  0  0  0  0  0
   -0.0305    1.6355   10.0403 C   0  0  0  0  0  0  0  0  0  0  0  0
    1.5371    1.7420   10.1145 C   0  0  0  0  0  0  0  0  0  0  0  0
    2.2813    1.6179    8.7639 C   0  0  2  0  0  0  0  0  0  0  0  0
    2.8714    0.2407    8.3304 C   0  0  2  0  0  0  0  0  0  0  0  0
    4.0790   -0.1607    9.2425 C   0  0  0  0  0  0  0  0  0  0  0  0
    1.9139   -0.9738    8.4680 C   0  0  0  0  0  0  0  0  0  0  0  0
    1.6727   -1.7578    7.1922 C   0  0  0  0  0  0  0  0  0  0  0  0
    0.5939   -1.0402    6.4156 C   0  0  0  0  0  0  0  0  0  0  0  0
   -0.5745   -1.3944    6.5801 O   0  0  0  0  0  0  0  0  0  0  0  0
    1.0036    0.0389    5.3957 C   0  0  2  0  0  0  0  0  0  0  0  0
    1.4190   -0.8876    4.1902 C   0  0  0  0  0  0  0  0  0  0  0  0
   -0.2104    1.0558    5.0080 C   0  0  2  0  0  0  0  0  0  0  0  0
   -1.3526    0.1876    4.3365 C   0  0  0  0  0  0  0  0  0  0  0  0
    0.0266    3.2151    6.3239 O   0  0  0  0  0  0  0  0  0  0  0  0
   -0.4517    4.4178    5.5513 O   0  0  0  0  0  0  0  0  0  0  0  0
   -0.0940    4.3973    4.0948 O   0  0  0  0  0  0  0  0  0  0  0  0
    2.4581    5.6163    6.7384 H   0  0  0  0  0  0  0  0  0  0  0  0
    3.0403    4.0717    5.9547 H   0  0  0  0  0  0  0  0  0  0  0  0
    3.2457    4.7767   10.1097 H   0  0  0  0  0  0  0  0  0  0  0  0
    1.5365    4.6492    9.6547 H   0  0  0  0  0  0  0  0  0  0  0  0
    2.5118    5.9677    9.0420 H   0  0  0  0  0  0  0  0  0  0  0  0
    4.0979    2.7291    9.2171 H   0  0  0  0  0  0  0  0  0  0  0  0
    4.3972    2.5435    6.3816 H   0  0  0  0  0  0  0  0  0  0  0  0
    5.1388    1.6308    7.5664 H   0  0  0  0  0  0  0  0  0  0  0  0
    4.0238   -0.1472    6.4731 H   0  0  0  0  0  0  0  0  0  0  0  0
    1.8301    1.8578    6.1529 H   0  0  0  0  0  0  0  0  0  0  0  0
    3.4927    2.3231    4.5620 H   0  0  0  0  0  0  0  0  0  0  0  0
    3.2780    0.8085    3.7811 H   0  0  0  0  0  0  0  0  0  0  0  0
    1.9212    2.9908    2.9729 H   0  0  0  0  0  0  0  0  0  0  0  0
   -0.6817    3.2708    2.4976 H   0  0  0  0  0  0  0  0  0  0  0  0
   -2.5350    4.0992    4.1311 H   0  0  0  0  0  0  0  0  0  0  0  0
   -2.7102    2.5029    3.5190 H   0  0  0  0  0  0  0  0  0  0  0  0
   -3.4687    2.5312    7.1565 H   0  0  0  0  0  0  0  0  0  0  0  0
   -4.0641    3.2908    5.7070 H   0  0  0  0  0  0  0  0  0  0  0  0
   -2.8781    4.1463    6.6906 H   0  0  0  0  0  0  0  0  0  0  0  0
   -1.9556    0.9427    7.6873 H   0  0  0  0  0  0  0  0  0  0  0  0
   -0.2661    0.8089    7.7497 H   0  0  0  0  0  0  0  0  0  0  0  0
   -0.2071    3.2876    8.6702 H   0  0  0  0  0  0  0  0  0  0  0  0
   -2.8610    2.1470    9.6325 H   0  0  0  0  0  0  0  0  0  0  0  0
   -2.5762    3.6950    8.8324 H   0  0  0  0  0  0  0  0  0  0  0  0
   -1.9882    3.4355   10.4417 H   0  0  0  0  0  0  0  0  0  0  0  0
   -0.3770    1.9950   11.0113 H   0  0  0  0  0  0  0  0  0  0  0  0
   -0.3413    0.5918   10.0489 H   0  0  0  0  0  0  0  0  0  0  0  0
    1.7902    2.6895   10.5814 H   0  0  0  0  0  0  0  0  0  0  0  0
    1.9171    1.0022   10.8201 H   0  0  0  0  0  0  0  0  0  0  0  0
    1.5033    1.8759    8.0787 H   0  0  0  0  0  0  0  0  0  0  0  0
    3.7484   -0.4235   10.2459 H   0  0  0  0  0  0  0  0  0  0  0  0
    4.8325    0.6056    9.3945 H   0  0  0  0  0  0  0  0  0  0  0  0
    4.5969   -1.0326    8.8414 H   0  0  0  0  0  0  0  0  0  0  0  0
    2.2923   -1.6944    9.1929 H   0  0  0  0  0  0  0  0  0  0  0  0
    0.9676   -0.6743    8.9023 H   0  0  0  0  0  0  0  0  0  0  0  0
    2.5785   -1.8967    6.6028 H   0  0  0  0  0  0  0  0  0  0  0  0
    1.3015   -2.7533    7.4390 H   0  0  0  0  0  0  0  0  0  0  0  0
    1.3600   -0.4014    3.2162 H   0  0  0  0  0  0  0  0  0  0  0  0
    0.8130   -1.7913    4.0874 H   0  0  0  0  0  0  0  0  0  0  0  0
    2.4388   -1.2561    4.3074 H   0  0  0  0  0  0  0  0  0  0  0  0
   -1.0445   -0.7871    3.9842 H   0  0  0  0  0  0  0  0  0  0  0  0
   -1.7667    0.6464    3.4425 H   0  0  0  0  0  0  0  0  0  0  0  0
   -2.1800   -0.0046    5.0155 H   0  0  0  0  0  0  0  0  0  0  0  0
  1  2  2  0
  1 35  1  0
  1 36  1  0
  2  3  1  0
  2  4  1  0
  3 37  1  0
  3 38  1  0
  3 39  1  0
  4 21  1  0
  4  5  1  0
  4 40  1  1
  5  6  1  0
  5 41  1  0
  5 42  1  0
  6 22  1  0
  6  7  1  0
  6 43  1  6
  7 28  1  0
  7  8  1  0
  7 44  1  1
  8  9  1  0
  8 45  1  0
  8 46  1  0
  9 10  2  0
  9 47  1  0
 10 30  1  0
 10 11  1  0
 11 34  1  0
 11 12  1  0
 11 48  1  6
 12 13  1  0
 12 49  1  0
 12 50  1  0
 13 14  1  0
 13 15  1  0
 14 51  1  0
 14 52  1  0
 14 53  1  0
 15 30  1  0
 15 16  1  1
 15 32  1  0
 16 17  1  0
 16 54  1  0
 16 55  1  0
 17 18  1  0
 17 19  1  0
 17 56  1  6
 18 57  1  0
 18 58  1  0
 18 59  1  0
 19 20  1  0
 19 60  1  0
 19 61  1  0
 20 21  1  0
 20 62  1  0
 20 63  1  0
 21 22  1  0
 21 64  1  6
 22 23  1  1
 22 24  1  0
 23 65  1  0
 23 66  1  0
 23 67  1  0
 24 25  1  0
 24 68  1  0
 24 69  1  0
 25 26  1  0
 25 70  1  0
 25 71  1  0
 26 27  2  0
 26 28  1  0
 28 29  1  6
 28 30  1  0
 29 72  1  0
 29 73  1  0
 29 74  1  0
 30 31  1  6
 31 75  1  0
 31 76  1  0
 31 77  1  0
 32 33  1  0
 33 34  1  0
M  END
>  <i_m_ct_stereo_status>  (375) 
1

>  <s_m_source_file>  (375) 
/var/tmp/pbs.5076255.sched01/tmpzqmxgpmu/1265eqpa8lp.sdf

>  <i_m_source_file_index>  (375) 
35

>  <i_lp_mmshare_version>  (375) 
48012

>  <i_f3d_flags>  (375) 
0

>  <s_epik_input>  (375) 
W0NIMl0xW0NAQEhdKFtDSDNdKVtDSDJdW0NIMl1bQ0BASF0oW0NAQEhdKFtDSDJdMilDKD1bQ0gyXSlbQ0gzXSlDKFtDSDNdKShbQ0gyXVtDSDJdQyg9TylbQ0BdMzRbQ0gzXSlbQ0BIXTJbQ0BIXTNbQ0gyXVtDSF09QyhbQ0BAXTQoW0NAXTE1NilbQ0gzXSlbQ0BIXShPT082KVtDSDJdTjVbQ0gzXQ==

>  <s_epik_cmdline>  (375) 
J2VwaWtfcHl0aG9uJywgJy1waHQnLCAnMi4wJywgJy1waCcsICc3LjAnLCAnLXRuJywgJzgnLCAnLW1hJywgJzIwMCcsICctaW1hZScsICc8aW5maWxlLm1hZT4nLCAnLW9tYWUnLCAnPG91dGZpbGUubWFlPic=

>  <r_lp_tautomer_probability>  (375) 
0.99995

>  <r_epik_Ionization_Penalty>  (375) 
0.264047

>  <r_epik_Ionization_Penalty_Charging>  (375) 
0

>  <r_epik_Ionization_Penalty_Neutral>  (375) 
0.264047

>  <r_epik_State_Penalty>  (375) 
0.255901

>  <r_epik_Charging_Adjusted_Penalty>  (375) 
0.255901

>  <i_epik_Tot_Q>  (375) 
0

>  <i_epik_Tot_abs_Q>  (375) 
0

>  <s_lp_Force_Field>  (375) 
OPLS3e

>  <r_lp_Energy>  (375) 
145.22

>  <b_lp_Chiralities_Consistent>  (375) 
1

>  <s_lp_Variant>  (375) 
114:0-1

>  <s_i_glide_gridfile>  (375) 
pfpi4k_grid

>  <i_i_glide_lignum>  (375) 
35

>  <i_i_glide_rotatable_bonds>  (375) 
1

>  <r_i_docking_score>  (375) 
-1.44061

>  <r_i_glide_ligand_efficiency>  (375) 
-0.042371

>  <r_i_glide_ligand_efficiency_sa>  (375) 
-0.137266

>  <r_i_glide_ligand_efficiency_ln>  (375) 
-0.318272

>  <r_i_glide_gscore>  (375) 
-1.44061

>  <r_i_glide_lipo>  (375) 
-0.105646

>  <r_i_glide_hbond>  (375) 
0

>  <r_i_glide_metal>  (375) 
-0

>  <r_i_glide_rewards>  (375) 
-0.206891

>  <r_i_glide_evdw>  (375) 
-17.2593

>  <r_i_glide_ecoul>  (375) 
-2.22966

>  <r_i_glide_erotb>  (375) 
0.0915743

>  <r_i_glide_esite>  (375) 
-0.0222381

>  <r_i_glide_emodel>  (375) 
-21.2769

>  <r_i_glide_energy>  (375) 
-19.4889

>  <r_i_glide_einternal>  (375) 
0.000320935

>  <r_i_glide_intrahb_reward>  (375) 
-0

>  <i_i_glide_confnum>  (375) 
6

>  <i_i_glide_posenum>  (375) 
29

>  <r_i_glide_eff_state_penalty>  (375) 
0

>  <ligand_id>  (375) 
114

>  <original_smiles>  (375) 
C=C(C)C1CC2C3CC=C4C5CN(C)C6(CC(C)CCC1C2(C)CCC(=O)C3(C)C46C)OOO5

>  <smiles>  (375) 
[H]C([H])=C(C([H])([H])[H])C1([H])C([H])([H])C2([H])C3([H])C([H])([H])C([H])=C4C5([H])OOOC6(N(C([H])([H])[H])C5([H])[H])C([H])([H])C([H])(C([H])([H])[H])C([H])([H])C([H])([H])C1([H])C2(C([H])([H])[H])C([H])([H])C([H])([H])C(=O)C3(C([H])([H])[H])C46C([H])([H])[H]

$$$$
114:0:1
     RDKit          3D

 77 82  0  0  1  0  0  0  0  0999 V2000
   -2.0722    2.7995    6.3104 C   0  0  0  0  0  0  0  0  0  0  0  0
   -1.5128    1.6227    5.9649 C   0  0  0  0  0  0  0  0  0  0  0  0
   -1.7985    1.0705    4.5742 C   0  0  0  0  0  0  0  0  0  0  0  0
   -0.6140    0.7574    6.8758 C   0  0  2  0  0  0  0  0  0  0  0  0
   -0.3533    1.3029    8.3238 C   0  0  0  0  0  0  0  0  0  0  0  0
    1.1898    1.4945    8.4916 C   0  0  2  0  0  0  0  0  0  0  0  0
    1.6017    2.9595    7.9946 C   0  0  1  0  0  0  0  0  0  0  0  0
    0.9264    4.1550    8.7189 C   0  0  0  0  0  0  0  0  0  0  0  0
    1.0692    5.4240    7.8772 C   0  0  0  0  0  0  0  0  0  0  0  0
    1.9090    5.5673    6.8295 C   0  0  0  0  0  0  0  0  0  0  0  0
    1.5347    6.5750    5.7373 C   0  0  1  0  0  0  0  0  0  0  0  0
    2.3588    6.5050    4.4309 C   0  0  0  0  0  0  0  0  0  0  0  0
    2.7725    5.1324    4.0493 N   0  0  0  0  0  0  0  0  0  0  0  0
    2.7958    4.9654    2.6028 C   0  0  0  0  0  0  0  0  0  0  0  0
    2.4011    4.0153    4.9594 C   0  0  1  0  0  0  0  0  0  0  0  0
    2.8823    2.6026    4.4118 C   0  0  0  0  0  0  0  0  0  0  0  0
    1.9346    1.6514    3.5824 C   0  0  1  0  0  0  0  0  0  0  0  0
    2.1746    1.7442    2.0633 C   0  0  0  0  0  0  0  0  0  0  0  0
    2.0306    0.1314    4.0227 C   0  0  0  0  0  0  0  0  0  0  0  0
    1.0589   -0.4331    5.1217 C   0  0  0  0  0  0  0  0  0  0  0  0
    0.8240    0.4879    6.3478 C   0  0  2  0  0  0  0  0  0  0  0  0
    1.6575    0.2433    7.6463 C   0  0  2  0  0  0  0  0  0  0  0  0
    1.2448   -1.1010    8.3371 C   0  0  0  0  0  0  0  0  0  0  0  0
    3.1871    0.0692    7.4399 C   0  0  0  0  0  0  0  0  0  0  0  0
    4.0612    1.0454    8.2034 C   0  0  0  0  0  0  0  0  0  0  0  0
    4.1375    2.3207    7.3986 C   0  0  0  0  0  0  0  0  0  0  0  0
    5.0687    2.4606    6.6130 O   0  0  0  0  0  0  0  0  0  0  0  0
    3.0829    3.4200    7.6546 C   0  0  2  0  0  0  0  0  0  0  0  0
    3.6996    4.0645    8.9544 C   0  0  0  0  0  0  0  0  0  0  0  0
    2.9585    4.4950    6.4240 C   0  0  2  0  0  0  0  0  0  0  0  0
    4.3626    5.2081    6.2837 C   0  0  0  0  0  0  0  0  0  0  0  0
    0.9537    3.9344    4.9931 O   0  0  0  0  0  0  0  0  0  0  0  0
    0.2625    5.1172    4.4049 O   0  0  0  0  0  0  0  0  0  0  0  0
    0.2085    6.2683    5.3457 O   0  0  0  0  0  0  0  0  0  0  0  0
   -2.6842    3.3254    5.5944 H   0  0  0  0  0  0  0  0  0  0  0  0
   -1.9526    3.2782    7.2648 H   0  0  0  0  0  0  0  0  0  0  0  0
   -2.0361    0.0011    4.6013 H   0  0  0  0  0  0  0  0  0  0  0  0
   -0.9617    1.2211    3.9037 H   0  0  0  0  0  0  0  0  0  0  0  0
   -2.6416    1.5837    4.1043 H   0  0  0  0  0  0  0  0  0  0  0  0
   -1.1277   -0.1998    6.9552 H   0  0  0  0  0  0  0  0  0  0  0  0
   -0.9337    2.1613    8.6215 H   0  0  0  0  0  0  0  0  0  0  0  0
   -0.6981    0.5678    9.0513 H   0  0  0  0  0  0  0  0  0  0  0  0
    1.4688    1.3849    9.5417 H   0  0  0  0  0  0  0  0  0  0  0  0
    1.0596    3.0252    7.0748 H   0  0  0  0  0  0  0  0  0  0  0  0
   -0.1437    4.0225    8.8121 H   0  0  0  0  0  0  0  0  0  0  0  0
    1.2838    4.3229    9.7308 H   0  0  0  0  0  0  0  0  0  0  0  0
    0.3047    6.1659    8.0376 H   0  0  0  0  0  0  0  0  0  0  0  0
    1.5600    7.5838    6.1632 H   0  0  0  0  0  0  0  0  0  0  0  0
    1.7990    6.9886    3.6148 H   0  0  0  0  0  0  0  0  0  0  0  0
    3.2635    7.1054    4.5187 H   0  0  0  0  0  0  0  0  0  0  0  0
    3.4153    4.1209    2.3041 H   0  0  0  0  0  0  0  0  0  0  0  0
    3.2547    5.8437    2.1408 H   0  0  0  0  0  0  0  0  0  0  0  0
    1.7978    4.8588    2.1715 H   0  0  0  0  0  0  0  0  0  0  0  0
    3.8799    2.6590    3.9868 H   0  0  0  0  0  0  0  0  0  0  0  0
    3.0082    1.9920    5.2721 H   0  0  0  0  0  0  0  0  0  0  0  0
    0.9099    1.9794    3.7124 H   0  0  0  0  0  0  0  0  0  0  0  0
    3.2238    1.6033    1.8090 H   0  0  0  0  0  0  0  0  0  0  0  0
    1.8372    2.7020    1.6795 H   0  0  0  0  0  0  0  0  0  0  0  0
    1.5980    0.9986    1.5120 H   0  0  0  0  0  0  0  0  0  0  0  0
    1.8492   -0.5000    3.1514 H   0  0  0  0  0  0  0  0  0  0  0  0
    3.0624   -0.1007    4.2795 H   0  0  0  0  0  0  0  0  0  0  0  0
    0.1131   -0.6638    4.6421 H   0  0  0  0  0  0  0  0  0  0  0  0
    1.4101   -1.4115    5.4512 H   0  0  0  0  0  0  0  0  0  0  0  0
    1.1018    1.4371    5.9419 H   0  0  0  0  0  0  0  0  0  0  0  0
    1.5756   -1.9632    7.7592 H   0  0  0  0  0  0  0  0  0  0  0  0
    0.1802   -1.2558    8.4735 H   0  0  0  0  0  0  0  0  0  0  0  0
    1.7008   -1.1836    9.3240 H   0  0  0  0  0  0  0  0  0  0  0  0
    3.5184   -0.9262    7.7397 H   0  0  0  0  0  0  0  0  0  0  0  0
    3.4426    0.0956    6.3869 H   0  0  0  0  0  0  0  0  0  0  0  0
    3.7103    1.2218    9.2177 H   0  0  0  0  0  0  0  0  0  0  0  0
    5.0710    0.6446    8.2806 H   0  0  0  0  0  0  0  0  0  0  0  0
    3.4007    5.1000    9.1161 H   0  0  0  0  0  0  0  0  0  0  0  0
    4.7914    4.0824    8.9710 H   0  0  0  0  0  0  0  0  0  0  0  0
    3.4189    3.5020    9.8461 H   0  0  0  0  0  0  0  0  0  0  0  0
    5.0162    5.1217    7.1399 H   0  0  0  0  0  0  0  0  0  0  0  0
    4.2796    6.2835    6.1489 H   0  0  0  0  0  0  0  0  0  0  0  0
    4.9312    4.8140    5.4459 H   0  0  0  0  0  0  0  0  0  0  0  0
  1  2  2  0
  1 35  1  0
  1 36  1  0
  2  3  1  0
  2  4  1  0
  3 37  1  0
  3 38  1  0
  3 39  1  0
  4 21  1  0
  4  5  1  0
  4 40  1  1
  5  6  1  0
  5 41  1  0
  5 42  1  0
  6 22  1  0
  6  7  1  0
  6 43  1  1
  7 28  1  0
  7  8  1  0
  7 44  1  6
  8  9  1  0
  8 45  1  0
  8 46  1  0
  9 10  2  0
  9 47  1  0
 10 30  1  0
 10 11  1  0
 11 34  1  0
 11 12  1  0
 11 48  1  1
 12 13  1  0
 12 49  1  0
 12 50  1  0
 13 14  1  0
 13 15  1  0
 14 51  1  0
 14 52  1  0
 14 53  1  0
 15 30  1  0
 15 16  1  6
 15 32  1  0
 16 17  1  0
 16 54  1  0
 16 55  1  0
 17 18  1  0
 17 19  1  0
 17 56  1  6
 18 57  1  0
 18 58  1  0
 18 59  1  0
 19 20  1  0
 19 60  1  0
 19 61  1  0
 20 21  1  0
 20 62  1  0
 20 63  1  0
 21 22  1  0
 21 64  1  6
 22 23  1  1
 22 24  1  0
 23 65  1  0
 23 66  1  0
 23 67  1  0
 24 25  1  0
 24 68  1  0
 24 69  1  0
 25 26  1  0
 25 70  1  0
 25 71  1  0
 26 27  2  0
 26 28  1  0
 28 29  1  1
 28 30  1  0
 29 72  1  0
 29 73  1  0
 29 74  1  0
 30 31  1  6
 31 75  1  0
 31 76  1  0
 31 77  1  0
 32 33  1  0
 33 34  1  0
M  END
>  <i_m_ct_stereo_status>  (376) 
1

>  <s_m_source_file>  (376) 
/var/tmp/pbs.5076255.sched01/tmpzqmxgpmu/1265eqpa8lp.sdf

>  <i_m_source_file_index>  (376) 
35

>  <i_lp_mmshare_version>  (376) 
48012

>  <i_f3d_flags>  (376) 
0

>  <s_epik_input>  (376) 
W0NIMl0xW0NAQEhdKFtDSDNdKVtDSDJdW0NIMl1bQ0BASF0oW0NAQEhdKFtDSDJdMilDKD1bQ0gyXSlbQ0gzXSlDKFtDSDNdKShbQ0gyXVtDSDJdQyg9TylbQ0BdMzRbQ0gzXSlbQ0BIXTJbQ0BIXTNbQ0gyXVtDSF09QyhbQ0BAXTQoW0NAXTE1NilbQ0gzXSlbQ0BIXShPT082KVtDSDJdTjVbQ0gzXQ==

>  <s_epik_cmdline>  (376) 
J2VwaWtfcHl0aG9uJywgJy1waHQnLCAnMi4wJywgJy1waCcsICc3LjAnLCAnLXRuJywgJzgnLCAnLW1hJywgJzIwMCcsICctaW1hZScsICc8aW5maWxlLm1hZT4nLCAnLW9tYWUnLCAnPG91dGZpbGUubWFlPic=

>  <r_lp_tautomer_probability>  (376) 
0.99995

>  <r_epik_Ionization_Penalty>  (376) 
0.264047

>  <r_epik_Ionization_Penalty_Charging>  (376) 
0

>  <r_epik_Ionization_Penalty_Neutral>  (376) 
0.264047

>  <r_epik_State_Penalty>  (376) 
0.255901

>  <r_epik_Charging_Adjusted_Penalty>  (376) 
0.255901

>  <i_epik_Tot_Q>  (376) 
0

>  <i_epik_Tot_abs_Q>  (376) 
0

>  <s_lp_Force_Field>  (376) 
OPLS3e

>  <r_lp_Energy>  (376) 
145.22

>  <b_lp_Chiralities_Consistent>  (376) 
1

>  <s_lp_Variant>  (376) 
114:0-1

>  <s_i_glide_gridfile>  (376) 
pfpi4k_grid

>  <i_i_glide_lignum>  (376) 
35

>  <i_i_glide_rotatable_bonds>  (376) 
1

>  <r_i_docking_score>  (376) 
-1.32181

>  <r_i_glide_ligand_efficiency>  (376) 
-0.0388767

>  <r_i_glide_ligand_efficiency_sa>  (376) 
-0.125945

>  <r_i_glide_ligand_efficiency_ln>  (376) 
-0.292024

>  <r_i_glide_gscore>  (376) 
-1.32181

>  <r_i_glide_lipo>  (376) 
-0.115176

>  <r_i_glide_hbond>  (376) 
0

>  <r_i_glide_metal>  (376) 
-0

>  <r_i_glide_rewards>  (376) 
-0.206891

>  <r_i_glide_evdw>  (376) 
-18.0193

>  <r_i_glide_ecoul>  (376) 
-1.23453

>  <r_i_glide_erotb>  (376) 
0.0915743

>  <r_i_glide_esite>  (376) 
-0.00516819

>  <r_i_glide_emodel>  (376) 
-20.0442

>  <r_i_glide_energy>  (376) 
-19.2539

>  <r_i_glide_einternal>  (376) 
0.57522

>  <r_i_glide_intrahb_reward>  (376) 
-0

>  <i_i_glide_confnum>  (376) 
1

>  <i_i_glide_posenum>  (376) 
5

>  <r_i_glide_eff_state_penalty>  (376) 
0

>  <ligand_id>  (376) 
114

>  <original_smiles>  (376) 
C=C(C)C1CC2C3CC=C4C5CN(C)C6(CC(C)CCC1C2(C)CCC(=O)C3(C)C46C)OOO5

>  <smiles>  (376) 
[H]C([H])=C(C([H])([H])[H])C1([H])C([H])([H])C2([H])C3([H])C([H])([H])C([H])=C4C5([H])OOOC6(N(C([H])([H])[H])C5([H])[H])C([H])([H])C([H])(C([H])([H])[H])C([H])([H])C([H])([H])C1([H])C2(C([H])([H])[H])C([H])([H])C([H])([H])C(=O)C3(C([H])([H])[H])C46C([H])([H])[H]

$$$$
114:0:2
     RDKit          3D

 77 82  0  0  1  0  0  0  0  0999 V2000
    2.8760   -0.9536    8.7816 C   0  0  0  0  0  0  0  0  0  0  0  0
    1.8605   -1.7770    8.4412 C   0  0  0  0  0  0  0  0  0  0  0  0
    0.5947   -1.7491    9.2813 C   0  0  0  0  0  0  0  0  0  0  0  0
    1.8790   -2.7652    7.2605 C   0  0  2  0  0  0  0  0  0  0  0  0
    3.2695   -3.0026    6.5821 C   0  0  0  0  0  0  0  0  0  0  0  0
    3.1465   -2.5873    5.0821 C   0  0  2  0  0  0  0  0  0  0  0  0
    3.4935   -1.0329    4.9346 C   0  0  1  0  0  0  0  0  0  0  0  0
    4.9044   -0.5773    5.4004 C   0  0  0  0  0  0  0  0  0  0  0  0
    4.9323    0.9263    5.6170 C   0  0  0  0  0  0  0  0  0  0  0  0
    3.9687    1.7941    5.1649 C   0  0  0  0  0  0  0  0  0  0  0  0
    3.7870    3.0924    5.9365 C   0  0  1  0  0  0  0  0  0  0  0  0
    2.5250    3.9246    5.5644 C   0  0  0  0  0  0  0  0  0  0  0  0
    1.3418    3.0830    5.2443 N   0  0  0  0  0  0  0  0  0  0  0  0
    0.1040    3.7246    5.6750 C   0  0  0  0  0  0  0  0  0  0  0  0
    1.5181    1.6031    5.2244 C   0  0  1  0  0  0  0  0  0  0  0  0
    0.1653    0.8424    4.8884 C   0  0  0  0  0  0  0  0  0  0  0  0
   -0.7999    0.2703    6.0072 C   0  0  1  0  0  0  0  0  0  0  0  0
   -1.9965    1.2075    6.2646 C   0  0  0  0  0  0  0  0  0  0  0  0
   -1.3473   -1.1762    5.6705 C   0  0  0  0  0  0  0  0  0  0  0  0
   -0.5721   -2.4376    6.1996 C   0  0  0  0  0  0  0  0  0  0  0  0
    0.9690   -2.3810    6.0612 C   0  0  2  0  0  0  0  0  0  0  0  0
    1.6583   -3.0643    4.8429 C   0  0  2  0  0  0  0  0  0  0  0  0
    1.5345   -4.6231    4.9330 C   0  0  0  0  0  0  0  0  0  0  0  0
    1.0403   -2.7481    3.4573 C   0  0  0  0  0  0  0  0  0  0  0  0
    1.9897   -2.1482    2.4378 C   0  0  0  0  0  0  0  0  0  0  0  0
    2.0580   -0.6650    2.7094 C   0  0  0  0  0  0  0  0  0  0  0  0
    1.2782    0.0758    2.1149 O   0  0  0  0  0  0  0  0  0  0  0  0
    3.1395   -0.1365    3.6737 C   0  0  2  0  0  0  0  0  0  0  0  0
    4.3846   -0.1515    2.7045 C   0  0  0  0  0  0  0  0  0  0  0  0
    2.8136    1.3519    4.2478 C   0  0  2  0  0  0  0  0  0  0  0  0
    2.7625    2.3376    3.0107 C   0  0  0  0  0  0  0  0  0  0  0  0
    1.8099    1.1535    6.5726 O   0  0  0  0  0  0  0  0  0  0  0  0
    2.2213    2.3132    7.4626 O   0  0  0  0  0  0  0  0  0  0  0  0
    3.6541    2.7712    7.3040 O   0  0  0  0  0  0  0  0  0  0  0  0
    2.7796   -0.2943    9.6298 H   0  0  0  0  0  0  0  0  0  0  0  0
    3.8062   -0.8945    8.2470 H   0  0  0  0  0  0  0  0  0  0  0  0
    0.2191   -2.7572    9.4625 H   0  0  0  0  0  0  0  0  0  0  0  0
   -0.1760   -1.1603    8.7892 H   0  0  0  0  0  0  0  0  0  0  0  0
    0.7718   -1.2839   10.2527 H   0  0  0  0  0  0  0  0  0  0  0  0
    1.5512   -3.7177    7.6805 H   0  0  0  0  0  0  0  0  0  0  0  0
    4.1180   -2.5883    7.1067 H   0  0  0  0  0  0  0  0  0  0  0  0
    3.5057   -4.0633    6.6398 H   0  0  0  0  0  0  0  0  0  0  0  0
    3.8453   -3.1651    4.4760 H   0  0  0  0  0  0  0  0  0  0  0  0
    2.9338   -0.6149    5.7450 H   0  0  0  0  0  0  0  0  0  0  0  0
    5.1589   -0.9918    6.3693 H   0  0  0  0  0  0  0  0  0  0  0  0
    5.7149   -0.8986    4.7440 H   0  0  0  0  0  0  0  0  0  0  0  0
    5.6608    1.2802    6.3223 H   0  0  0  0  0  0  0  0  0  0  0  0
    4.6753    3.6979    5.8232 H   0  0  0  0  0  0  0  0  0  0  0  0
    2.2948    4.6162    6.3775 H   0  0  0  0  0  0  0  0  0  0  0  0
    2.7238    4.5687    4.7129 H   0  0  0  0  0  0  0  0  0  0  0  0
   -0.7513    3.3279    5.1302 H   0  0  0  0  0  0  0  0  0  0  0  0
    0.1343    4.7903    5.4487 H   0  0  0  0  0  0  0  0  0  0  0  0
   -0.0487    3.6140    6.7490 H   0  0  0  0  0  0  0  0  0  0  0  0
   -0.3818    1.3316    4.0845 H   0  0  0  0  0  0  0  0  0  0  0  0
    0.4671   -0.0762    4.4530 H   0  0  0  0  0  0  0  0  0  0  0  0
   -0.2834    0.1903    6.9615 H   0  0  0  0  0  0  0  0  0  0  0  0
   -2.4911    1.4800    5.3329 H   0  0  0  0  0  0  0  0  0  0  0  0
   -1.6877    2.1257    6.7552 H   0  0  0  0  0  0  0  0  0  0  0  0
   -2.7514    0.7671    6.9168 H   0  0  0  0  0  0  0  0  0  0  0  0
   -2.3577   -1.2813    6.0671 H   0  0  0  0  0  0  0  0  0  0  0  0
   -1.5062   -1.2534    4.5952 H   0  0  0  0  0  0  0  0  0  0  0  0
   -0.8315   -2.5951    7.2418 H   0  0  0  0  0  0  0  0  0  0  0  0
   -0.9550   -3.3325    5.7108 H   0  0  0  0  0  0  0  0  0  0  0  0
    1.1311   -1.3280    5.9862 H   0  0  0  0  0  0  0  0  0  0  0  0
    0.5110   -4.9529    4.7590 H   0  0  0  0  0  0  0  0  0  0  0  0
    1.8059   -5.0661    5.8863 H   0  0  0  0  0  0  0  0  0  0  0  0
    2.1556   -5.1078    4.1784 H   0  0  0  0  0  0  0  0  0  0  0  0
    0.6424   -3.6483    2.9934 H   0  0  0  0  0  0  0  0  0  0  0  0
    0.1641   -2.1170    3.5568 H   0  0  0  0  0  0  0  0  0  0  0  0
    2.9736   -2.6176    2.4487 H   0  0  0  0  0  0  0  0  0  0  0  0
    1.5890   -2.2745    1.4317 H   0  0  0  0  0  0  0  0  0  0  0  0
    5.1748    0.5369    2.9998 H   0  0  0  0  0  0  0  0  0  0  0  0
    4.1510    0.1097    1.6695 H   0  0  0  0  0  0  0  0  0  0  0  0
    4.8292   -1.1461    2.6436 H   0  0  0  0  0  0  0  0  0  0  0  0
    3.2200    1.9568    2.1077 H   0  0  0  0  0  0  0  0  0  0  0  0
    3.2943    3.2701    3.1801 H   0  0  0  0  0  0  0  0  0  0  0  0
    1.7456    2.5901    2.7150 H   0  0  0  0  0  0  0  0  0  0  0  0
  1  2  2  0
  1 35  1  0
  1 36  1  0
  2  3  1  0
  2  4  1  0
  3 37  1  0
  3 38  1  0
  3 39  1  0
  4 21  1  0
  4  5  1  0
  4 40  1  1
  5  6  1  0
  5 41  1  0
  5 42  1  0
  6 22  1  0
  6  7  1  0
  6 43  1  6
  7 28  1  0
  7  8  1  0
  7 44  1  1
  8  9  1  0
  8 45  1  0
  8 46  1  0
  9 10  2  0
  9 47  1  0
 10 30  1  0
 10 11  1  0
 11 34  1  0
 11 12  1  0
 11 48  1  1
 12 13  1  0
 12 49  1  0
 12 50  1  0
 13 14  1  0
 13 15  1  0
 14 51  1  0
 14 52  1  0
 14 53  1  0
 15 30  1  0
 15 16  1  6
 15 32  1  0
 16 17  1  0
 16 54  1  0
 16 55  1  0
 17 18  1  0
 17 19  1  0
 17 56  1  1
 18 57  1  0
 18 58  1  0
 18 59  1  0
 19 20  1  0
 19 60  1  0
 19 61  1  0
 20 21  1  0
 20 62  1  0
 20 63  1  0
 21 22  1  0
 21 64  1  6
 22 23  1  1
 22 24  1  0
 23 65  1  0
 23 66  1  0
 23 67  1  0
 24 25  1  0
 24 68  1  0
 24 69  1  0
 25 26  1  0
 25 70  1  0
 25 71  1  0
 26 27  2  0
 26 28  1  0
 28 29  1  6
 28 30  1  0
 29 72  1  0
 29 73  1  0
 29 74  1  0
 30 31  1  6
 31 75  1  0
 31 76  1  0
 31 77  1  0
 32 33  1  0
 33 34  1  0
M  END
>  <i_m_ct_stereo_status>  (377) 
1

>  <s_m_source_file>  (377) 
/var/tmp/pbs.5076255.sched01/tmpzqmxgpmu/1265eqpa8lp.sdf

>  <i_m_source_file_index>  (377) 
35

>  <i_lp_mmshare_version>  (377) 
48012

>  <i_f3d_flags>  (377) 
0

>  <s_epik_input>  (377) 
W0NIMl0xW0NAQEhdKFtDSDNdKVtDSDJdW0NIMl1bQ0BASF0oW0NAQEhdKFtDSDJdMilDKD1bQ0gyXSlbQ0gzXSlDKFtDSDNdKShbQ0gyXVtDSDJdQyg9TylbQ0BdMzRbQ0gzXSlbQ0BIXTJbQ0BIXTNbQ0gyXVtDSF09QyhbQ0BAXTQoW0NAXTE1NilbQ0gzXSlbQ0BIXShPT082KVtDSDJdTjVbQ0gzXQ==

>  <s_epik_cmdline>  (377) 
J2VwaWtfcHl0aG9uJywgJy1waHQnLCAnMi4wJywgJy1waCcsICc3LjAnLCAnLXRuJywgJzgnLCAnLW1hJywgJzIwMCcsICctaW1hZScsICc8aW5maWxlLm1hZT4nLCAnLW9tYWUnLCAnPG91dGZpbGUubWFlPic=

>  <r_lp_tautomer_probability>  (377) 
0.99995

>  <r_epik_Ionization_Penalty>  (377) 
0.264047

>  <r_epik_Ionization_Penalty_Charging>  (377) 
0

>  <r_epik_Ionization_Penalty_Neutral>  (377) 
0.264047

>  <r_epik_State_Penalty>  (377) 
0.255901

>  <r_epik_Charging_Adjusted_Penalty>  (377) 
0.255901

>  <i_epik_Tot_Q>  (377) 
0

>  <i_epik_Tot_abs_Q>  (377) 
0

>  <s_lp_Force_Field>  (377) 
OPLS3e

>  <r_lp_Energy>  (377) 
145.22

>  <b_lp_Chiralities_Consistent>  (377) 
1

>  <s_lp_Variant>  (377) 
114:0-1

>  <s_i_glide_gridfile>  (377) 
pfpi4k_grid

>  <i_i_glide_lignum>  (377) 
35

>  <i_i_glide_rotatable_bonds>  (377) 
1

>  <r_i_docking_score>  (377) 
-1.04385

>  <r_i_glide_ligand_efficiency>  (377) 
-0.0307016

>  <r_i_glide_ligand_efficiency_sa>  (377) 
-0.0994613

>  <r_i_glide_ligand_efficiency_ln>  (377) 
-0.230617

>  <r_i_glide_gscore>  (377) 
-1.04385

>  <r_i_glide_lipo>  (377) 
-0.166022

>  <r_i_glide_hbond>  (377) 
0

>  <r_i_glide_metal>  (377) 
-0

>  <r_i_glide_rewards>  (377) 
-0.206891

>  <r_i_glide_evdw>  (377) 
-17.9008

>  <r_i_glide_ecoul>  (377) 
1.00765

>  <r_i_glide_erotb>  (377) 
0.0915743

>  <r_i_glide_esite>  (377) 
-0.0186242

>  <r_i_glide_emodel>  (377) 
-17.9899

>  <r_i_glide_energy>  (377) 
-16.8931

>  <r_i_glide_einternal>  (377) 
0.0512565

>  <r_i_glide_intrahb_reward>  (377) 
-0

>  <i_i_glide_confnum>  (377) 
3

>  <i_i_glide_posenum>  (377) 
17

>  <r_i_glide_eff_state_penalty>  (377) 
0

>  <ligand_id>  (377) 
114

>  <original_smiles>  (377) 
C=C(C)C1CC2C3CC=C4C5CN(C)C6(CC(C)CCC1C2(C)CCC(=O)C3(C)C46C)OOO5

>  <smiles>  (377) 
[H]C([H])=C(C([H])([H])[H])C1([H])C([H])([H])C2([H])C3([H])C([H])([H])C([H])=C4C5([H])OOOC6(N(C([H])([H])[H])C5([H])[H])C([H])([H])C([H])(C([H])([H])[H])C([H])([H])C([H])([H])C1([H])C2(C([H])([H])[H])C([H])([H])C([H])([H])C(=O)C3(C([H])([H])[H])C46C([H])([H])[H]

$$$$
114:1:0
     RDKit          3D

 77 82  0  0  1  0  0  0  0  0999 V2000
    1.1219  -10.0634    3.2370 C   0  0  0  0  0  0  0  0  0  0  0  0
    1.1468   -9.0051    4.0767 C   0  0  0  0  0  0  0  0  0  0  0  0
    0.5807   -9.1695    5.4760 C   0  0  0  0  0  0  0  0  0  0  0  0
    1.6491   -7.5876    3.7183 C   0  0  2  0  0  0  0  0  0  0  0  0
    2.1205   -7.3201    2.2394 C   0  0  0  0  0  0  0  0  0  0  0  0
    3.4652   -6.6279    2.4736 C   0  0  2  0  0  0  0  0  0  0  0  0
    4.4410   -6.1172    1.4451 C   0  0  1  0  0  0  0  0  0  0  0  0
    4.1121   -5.9931   -0.0835 C   0  0  0  0  0  0  0  0  0  0  0  0
    4.4987   -4.6478   -0.7200 C   0  0  0  0  0  0  0  0  0  0  0  0
    4.5984   -3.5010   -0.0254 C   0  0  0  0  0  0  0  0  0  0  0  0
    4.9451   -2.1235   -0.5805 C   0  0  1  0  0  0  0  0  0  0  0  0
    3.9451   -1.0429   -0.1245 C   0  0  0  0  0  0  0  0  0  0  0  0
    3.4635   -1.1477    1.2693 N   0  0  0  0  0  0  0  0  0  0  0  0
    3.0327    0.1737    1.7128 C   0  0  0  0  0  0  0  0  0  0  0  0
    4.2235   -2.0503    2.1776 C   0  0  1  0  0  0  0  0  0  0  0  0
    3.7328   -1.9229    3.7488 C   0  0  0  0  0  0  0  0  0  0  0  0
    2.6239   -2.7159    4.6251 C   0  0  1  0  0  0  0  0  0  0  0  0
    1.1571   -2.4038    4.2497 C   0  0  0  0  0  0  0  0  0  0  0  0
    2.8319   -4.1017    5.4587 C   0  0  0  0  0  0  0  0  0  0  0  0
    2.1809   -5.4564    4.9265 C   0  0  0  0  0  0  0  0  0  0  0  0
    2.7970   -6.9592    4.6364 C   0  0  2  0  0  0  0  0  0  0  0  0
    4.0790   -7.2934    3.7045 C   0  0  1  0  0  0  0  0  0  0  0  0
    4.2853   -8.8305    3.4865 C   0  0  0  0  0  0  0  0  0  0  0  0
    5.5855   -6.9382    4.1044 C   0  0  0  0  0  0  0  0  0  0  0  0
    6.7305   -6.5728    2.9863 C   0  0  0  0  0  0  0  0  0  0  0  0
    6.5371   -5.3277    1.9948 C   0  0  0  0  0  0  0  0  0  0  0  0
    7.4282   -4.8811    1.2752 O   0  0  0  0  0  0  0  0  0  0  0  0
    5.1045   -4.7851    2.0434 C   0  0  2  0  0  0  0  0  0  0  0  0
    5.3674   -4.2688    3.4742 C   0  0  0  0  0  0  0  0  0  0  0  0
    4.2481   -3.5241    1.4432 C   0  0  2  0  0  0  0  0  0  0  0  0
    2.6906   -3.7883    1.4194 C   0  0  0  0  0  0  0  0  0  0  0  0
    5.4915   -1.3873    2.2051 O   0  0  0  0  0  0  0  0  0  0  0  0
    6.4144   -2.0755    1.2393 O   0  0  0  0  0  0  0  0  0  0  0  0
    6.2360   -1.6806   -0.1975 O   0  0  0  0  0  0  0  0  0  0  0  0
    0.7407  -11.0207    3.5635 H   0  0  0  0  0  0  0  0  0  0  0  0
    1.4698  -10.0288    2.2186 H   0  0  0  0  0  0  0  0  0  0  0  0
    1.2876   -8.8641    6.2437 H   0  0  0  0  0  0  0  0  0  0  0  0
    0.3195  -10.2121    5.6704 H   0  0  0  0  0  0  0  0  0  0  0  0
   -0.3316   -8.5812    5.5828 H   0  0  0  0  0  0  0  0  0  0  0  0
    0.7189   -7.0329    3.8507 H   0  0  0  0  0  0  0  0  0  0  0  0
    2.2569   -8.1949    1.6118 H   0  0  0  0  0  0  0  0  0  0  0  0
    1.4115   -6.6814    1.7150 H   0  0  0  0  0  0  0  0  0  0  0  0
    3.1318   -5.6770    2.8011 H   0  0  0  0  0  0  0  0  0  0  0  0
    5.0672   -7.0025    1.3428 H   0  0  0  0  0  0  0  0  0  0  0  0
    4.6499   -6.7523   -0.6435 H   0  0  0  0  0  0  0  0  0  0  0  0
    3.0695   -6.2138   -0.2870 H   0  0  0  0  0  0  0  0  0  0  0  0
    4.6585   -4.6489   -1.7898 H   0  0  0  0  0  0  0  0  0  0  0  0
    4.9433   -2.1810   -1.6631 H   0  0  0  0  0  0  0  0  0  0  0  0
    4.3919   -0.0621   -0.3034 H   0  0  0  0  0  0  0  0  0  0  0  0
    3.0635   -1.0986   -0.7622 H   0  0  0  0  0  0  0  0  0  0  0  0
    2.3354    0.1183    2.5514 H   0  0  0  0  0  0  0  0  0  0  0  0
    2.4836    0.6800    0.9127 H   0  0  0  0  0  0  0  0  0  0  0  0
    3.8813    0.8051    1.9917 H   0  0  0  0  0  0  0  0  0  0  0  0
    4.6199   -1.9604    4.3731 H   0  0  0  0  0  0  0  0  0  0  0  0
    3.5130   -0.8744    3.9188 H   0  0  0  0  0  0  0  0  0  0  0  0
    2.7054   -2.0540    5.4903 H   0  0  0  0  0  0  0  0  0  0  0  0
    0.7170   -3.0824    3.5221 H   0  0  0  0  0  0  0  0  0  0  0  0
    1.0660   -1.3969    3.8440 H   0  0  0  0  0  0  0  0  0  0  0  0
    0.5186   -2.4487    5.1343 H   0  0  0  0  0  0  0  0  0  0  0  0
    3.8473   -4.2371    5.8340 H   0  0  0  0  0  0  0  0  0  0  0  0
    2.3184   -3.9197    6.4073 H   0  0  0  0  0  0  0  0  0  0  0  0
    1.3914   -5.6531    5.6525 H   0  0  0  0  0  0  0  0  0  0  0  0
    1.5943   -5.1284    4.0717 H   0  0  0  0  0  0  0  0  0  0  0  0
    2.9068   -7.4750    5.5908 H   0  0  0  0  0  0  0  0  0  0  0  0
    4.4383   -9.3507    4.4337 H   0  0  0  0  0  0  0  0  0  0  0  0
    5.1530   -9.0326    2.8589 H   0  0  0  0  0  0  0  0  0  0  0  0
    3.5030   -9.3599    2.9742 H   0  0  0  0  0  0  0  0  0  0  0  0
    5.5499   -6.2965    4.9815 H   0  0  0  0  0  0  0  0  0  0  0  0
    6.0210   -7.7994    4.6171 H   0  0  0  0  0  0  0  0  0  0  0  0
    7.6669   -6.4072    3.5129 H   0  0  0  0  0  0  0  0  0  0  0  0
    6.9130   -7.4524    2.3710 H   0  0  0  0  0  0  0  0  0  0  0  0
    4.4356   -4.3217    3.9273 H   0  0  0  0  0  0  0  0  0  0  0  0
    5.8108   -3.2906    3.4423 H   0  0  0  0  0  0  0  0  0  0  0  0
    6.1175   -4.6079    4.1816 H   0  0  0  0  0  0  0  0  0  0  0  0
    2.1085   -3.0437    0.8850 H   0  0  0  0  0  0  0  0  0  0  0  0
    2.2938   -3.8279    2.4140 H   0  0  0  0  0  0  0  0  0  0  0  0
    2.3403   -4.6915    0.9492 H   0  0  0  0  0  0  0  0  0  0  0  0
  1  2  2  0
  1 35  1  0
  1 36  1  0
  2  3  1  0
  2  4  1  0
  3 37  1  0
  3 38  1  0
  3 39  1  0
  4 21  1  0
  4  5  1  0
  4 40  1  1
  5  6  1  0
  5 41  1  0
  5 42  1  0
  6 22  1  0
  6  7  1  0
  6 43  1  1
  7 28  1  0
  7  8  1  0
  7 44  1  6
  8  9  1  0
  8 45  1  0
  8 46  1  0
  9 10  2  0
  9 47  1  0
 10 30  1  0
 10 11  1  0
 11 34  1  0
 11 12  1  0
 11 48  1  6
 12 13  1  0
 12 49  1  0
 12 50  1  0
 13 14  1  0
 13 15  1  0
 14 51  1  0
 14 52  1  0
 14 53  1  0
 15 30  1  0
 15 16  1  1
 15 32  1  0
 16 17  1  0
 16 54  1  0
 16 55  1  0
 17 18  1  0
 17 19  1  0
 17 56  1  1
 18 57  1  0
 18 58  1  0
 18 59  1  0
 19 20  1  0
 19 60  1  0
 19 61  1  0
 20 21  1  0
 20 62  1  0
 20 63  1  0
 21 22  1  0
 21 64  1  1
 22 23  1  6
 22 24  1  0
 23 65  1  0
 23 66  1  0
 23 67  1  0
 24 25  1  0
 24 68  1  0
 24 69  1  0
 25 26  1  0
 25 70  1  0
 25 71  1  0
 26 27  2  0
 26 28  1  0
 28 29  1  1
 28 30  1  0
 29 72  1  0
 29 73  1  0
 29 74  1  0
 30 31  1  6
 31 75  1  0
 31 76  1  0
 31 77  1  0
 32 33  1  0
 33 34  1  0
M  END
>  <i_m_ct_stereo_status>  (378) 
1

>  <s_m_source_file>  (378) 
/var/tmp/pbs.5076255.sched01/tmpzqmxgpmu/1265eqpa8lp.sdf

>  <i_m_source_file_index>  (378) 
36

>  <i_lp_mmshare_version>  (378) 
48012

>  <i_f3d_flags>  (378) 
0

>  <s_epik_input>  (378) 
W0NIMl0xW0NAQEhdKFtDSDNdKVtDSDJdW0NIMl1bQ0BASF0oW0NAQEhdKFtDSDJdMilDKD1bQ0gyXSlbQ0gzXSlDKFtDSDNdKShbQ0gyXVtDSDJdQyg9TylbQ0BdMzRbQ0gzXSlbQ0BIXTJbQ0BIXTNbQ0gyXVtDSF09QyhbQ0BAXTQoW0NAXTE1NilbQ0gzXSlbQ0BIXShPT082KVtDSDJdTjVbQ0gzXQ==

>  <s_epik_cmdline>  (378) 
J2VwaWtfcHl0aG9uJywgJy1waHQnLCAnMi4wJywgJy1waCcsICc3LjAnLCAnLXRuJywgJzgnLCAnLW1hJywgJzIwMCcsICctaW1hZScsICc8aW5maWxlLm1hZT4nLCAnLW9tYWUnLCAnPG91dGZpbGUubWFlPic=

>  <r_lp_tautomer_probability>  (378) 
0.99995

>  <r_epik_Ionization_Penalty>  (378) 
0.264047

>  <r_epik_Ionization_Penalty_Charging>  (378) 
0

>  <r_epik_Ionization_Penalty_Neutral>  (378) 
0.264047

>  <r_epik_State_Penalty>  (378) 
0.255901

>  <r_epik_Charging_Adjusted_Penalty>  (378) 
0.255901

>  <i_epik_Tot_Q>  (378) 
0

>  <i_epik_Tot_abs_Q>  (378) 
0

>  <s_lp_Force_Field>  (378) 
OPLS3e

>  <r_lp_Energy>  (378) 
291.481

>  <b_lp_Chiralities_Consistent>  (378) 
1

>  <s_lp_Variant>  (378) 
114:0-2

>  <s_i_glide_gridfile>  (378) 
pfpi4k_grid

>  <i_i_glide_lignum>  (378) 
36

>  <i_i_glide_rotatable_bonds>  (378) 
1

>  <r_i_docking_score>  (378) 
-1.8316

>  <r_i_glide_ligand_efficiency>  (378) 
-0.0538706

>  <r_i_glide_ligand_efficiency_sa>  (378) 
-0.17452

>  <r_i_glide_ligand_efficiency_ln>  (378) 
-0.404652

>  <r_i_glide_gscore>  (378) 
-1.8316

>  <r_i_glide_lipo>  (378) 
-0.286087

>  <r_i_glide_hbond>  (378) 
-0.0163736

>  <r_i_glide_metal>  (378) 
-0

>  <r_i_glide_rewards>  (378) 
-0.291326

>  <r_i_glide_evdw>  (378) 
-23.2398

>  <r_i_glide_ecoul>  (378) 
-1.11599

>  <r_i_glide_erotb>  (378) 
0.0915743

>  <r_i_glide_esite>  (378) 
0

>  <r_i_glide_emodel>  (378) 
-26.3878

>  <r_i_glide_energy>  (378) 
-24.3558

>  <r_i_glide_einternal>  (378) 
1.04619

>  <r_i_glide_intrahb_reward>  (378) 
-0

>  <i_i_glide_confnum>  (378) 
2

>  <i_i_glide_posenum>  (378) 
35

>  <r_i_glide_eff_state_penalty>  (378) 
0

>  <ligand_id>  (378) 
114

>  <original_smiles>  (378) 
C=C(C)C1CC2C3CC=C4C5CN(C)C6(CC(C)CCC1C2(C)CCC(=O)C3(C)C46C)OOO5

>  <smiles>  (378) 
[H]C([H])=C(C([H])([H])[H])C1([H])C([H])([H])C2([H])C3([H])C([H])([H])C([H])=C4C5([H])OOOC6(N(C([H])([H])[H])C5([H])[H])C([H])([H])C([H])(C([H])([H])[H])C([H])([H])C([H])([H])C1([H])C2(C([H])([H])[H])C([H])([H])C([H])([H])C(=O)C3(C([H])([H])[H])C46C([H])([H])[H]

$$$$
114:1:1
     RDKit          3D

 77 82  0  0  1  0  0  0  0  0999 V2000
    1.6906   -9.7690    5.0656 C   0  0  0  0  0  0  0  0  0  0  0  0
    1.2117   -8.9890    4.0724 C   0  0  0  0  0  0  0  0  0  0  0  0
    0.0807   -9.4993    3.1953 C   0  0  0  0  0  0  0  0  0  0  0  0
    1.7095   -7.5700    3.7473 C   0  0  2  0  0  0  0  0  0  0  0  0
    2.1811   -7.3424    2.2639 C   0  0  0  0  0  0  0  0  0  0  0  0
    3.5185   -6.6206    2.4836 C   0  0  2  0  0  0  0  0  0  0  0  0
    4.4906   -6.0913    1.4561 C   0  0  1  0  0  0  0  0  0  0  0  0
    4.1745   -5.9740   -0.0778 C   0  0  0  0  0  0  0  0  0  0  0  0
    4.5469   -4.6327   -0.7218 C   0  0  0  0  0  0  0  0  0  0  0  0
    4.6285   -3.4743   -0.0206 C   0  0  0  0  0  0  0  0  0  0  0  0
    4.9555   -2.0980   -0.5878 C   0  0  1  0  0  0  0  0  0  0  0  0
    3.9325   -1.0337   -0.1439 C   0  0  0  0  0  0  0  0  0  0  0  0
    3.4466   -1.1354    1.2490 N   0  0  0  0  0  0  0  0  0  0  0  0
    2.9894    0.1801    1.6819 C   0  0  0  0  0  0  0  0  0  0  0  0
    4.2164   -2.0176    2.1690 C   0  0  1  0  0  0  0  0  0  0  0  0
    3.7112   -1.8911    3.7308 C   0  0  0  0  0  0  0  0  0  0  0  0
    2.6070   -2.6935    4.6071 C   0  0  1  0  0  0  0  0  0  0  0  0
    1.1375   -2.4061    4.2193 C   0  0  0  0  0  0  0  0  0  0  0  0
    2.8321   -4.0675    5.4530 C   0  0  0  0  0  0  0  0  0  0  0  0
    2.2070   -5.4285    4.9203 C   0  0  0  0  0  0  0  0  0  0  0  0
    2.8505   -6.9198    4.6554 C   0  0  2  0  0  0  0  0  0  0  0  0
    4.1340   -7.2609    3.7249 C   0  0  1  0  0  0  0  0  0  0  0  0
    4.3447   -8.8011    3.5074 C   0  0  0  0  0  0  0  0  0  0  0  0
    5.6340   -6.8799    4.1266 C   0  0  0  0  0  0  0  0  0  0  0  0
    6.7807   -6.4992    3.0166 C   0  0  0  0  0  0  0  0  0  0  0  0
    6.5717   -5.2653    2.0160 C   0  0  0  0  0  0  0  0  0  0  0  0
    7.4629   -4.8081    1.3032 O   0  0  0  0  0  0  0  0  0  0  0  0
    5.1328   -4.7453    2.0538 C   0  0  2  0  0  0  0  0  0  0  0  0
    5.3798   -4.2151    3.4808 C   0  0  0  0  0  0  0  0  0  0  0  0
    4.2645   -3.5035    1.4417 C   0  0  2  0  0  0  0  0  0  0  0  0
    2.7097   -3.7882    1.4073 C   0  0  0  0  0  0  0  0  0  0  0  0
    5.4632   -1.3256    2.1899 O   0  0  0  0  0  0  0  0  0  0  0  0
    6.4010   -2.0170    1.2398 O   0  0  0  0  0  0  0  0  0  0  0  0
    6.2323   -1.6264   -0.2020 O   0  0  0  0  0  0  0  0  0  0  0  0
    1.2846  -10.7554    5.2389 H   0  0  0  0  0  0  0  0  0  0  0  0
    2.4873   -9.4634    5.7187 H   0  0  0  0  0  0  0  0  0  0  0  0
   -0.7626   -8.8091    3.2097 H   0  0  0  0  0  0  0  0  0  0  0  0
   -0.2855  -10.4660    3.5449 H   0  0  0  0  0  0  0  0  0  0  0  0
    0.4054   -9.6271    2.1614 H   0  0  0  0  0  0  0  0  0  0  0  0
    0.7747   -7.0240    3.8695 H   0  0  0  0  0  0  0  0  0  0  0  0
    2.2931   -8.2644    1.6936 H   0  0  0  0  0  0  0  0  0  0  0  0
    1.4719   -6.7271    1.7123 H   0  0  0  0  0  0  0  0  0  0  0  0
    3.1637   -5.6724    2.7984 H   0  0  0  0  0  0  0  0  0  0  0  0
    5.1362   -6.9630    1.3644 H   0  0  0  0  0  0  0  0  0  0  0  0
    4.7322   -6.7265   -0.6284 H   0  0  0  0  0  0  0  0  0  0  0  0
    3.1392   -6.2185   -0.3000 H   0  0  0  0  0  0  0  0  0  0  0  0
    4.7078   -4.6322   -1.7858 H   0  0  0  0  0  0  0  0  0  0  0  0
    4.9589   -2.1630   -1.6631 H   0  0  0  0  0  0  0  0  0  0  0  0
    4.3657   -0.0458   -0.3245 H   0  0  0  0  0  0  0  0  0  0  0  0
    3.0569   -1.0976   -0.7907 H   0  0  0  0  0  0  0  0  0  0  0  0
    2.2890    0.1221    2.5173 H   0  0  0  0  0  0  0  0  0  0  0  0
    2.4323    0.6810    0.8830 H   0  0  0  0  0  0  0  0  0  0  0  0
    3.8243    0.8307    1.9578 H   0  0  0  0  0  0  0  0  0  0  0  0
    4.5925   -1.9106    4.3639 H   0  0  0  0  0  0  0  0  0  0  0  0
    3.4763   -0.8430    3.8935 H   0  0  0  0  0  0  0  0  0  0  0  0
    2.6710   -2.0241    5.4679 H   0  0  0  0  0  0  0  0  0  0  0  0
    0.7136   -3.0980    3.4952 H   0  0  0  0  0  0  0  0  0  0  0  0
    1.0330   -1.4029    3.8044 H   0  0  0  0  0  0  0  0  0  0  0  0
    0.4948   -2.4529    5.1006 H   0  0  0  0  0  0  0  0  0  0  0  0
    3.8461   -4.1870    5.8328 H   0  0  0  0  0  0  0  0  0  0  0  0
    2.3113   -3.8890    6.3969 H   0  0  0  0  0  0  0  0  0  0  0  0
    1.4164   -5.6368    5.6411 H   0  0  0  0  0  0  0  0  0  0  0  0
    1.6205   -5.1196    4.0586 H   0  0  0  0  0  0  0  0  0  0  0  0
    2.9611   -7.4008    5.6237 H   0  0  0  0  0  0  0  0  0  0  0  0
    4.5344   -9.3065    4.4545 H   0  0  0  0  0  0  0  0  0  0  0  0
    5.2044   -8.9992    2.8674 H   0  0  0  0  0  0  0  0  0  0  0  0
    3.5390   -9.3530    3.0373 H   0  0  0  0  0  0  0  0  0  0  0  0
    5.5820   -6.2320    4.9973 H   0  0  0  0  0  0  0  0  0  0  0  0
    6.0750   -7.7320    4.6494 H   0  0  0  0  0  0  0  0  0  0  0  0
    7.7106   -6.3169    3.5499 H   0  0  0  0  0  0  0  0  0  0  0  0
    6.9845   -7.3794    2.4101 H   0  0  0  0  0  0  0  0  0  0  0  0
    4.4461   -4.2821    3.9313 H   0  0  0  0  0  0  0  0  0  0  0  0
    5.8131   -3.2285    3.4514 H   0  0  0  0  0  0  0  0  0  0  0  0
    6.1312   -4.5403    4.1937 H   0  0  0  0  0  0  0  0  0  0  0  0
    2.1173   -3.0565    0.8637 H   0  0  0  0  0  0  0  0  0  0  0  0
    2.3039   -3.8283    2.3972 H   0  0  0  0  0  0  0  0  0  0  0  0
    2.3750   -4.7003    0.9432 H   0  0  0  0  0  0  0  0  0  0  0  0
  1  2  2  0
  1 35  1  0
  1 36  1  0
  2  3  1  0
  2  4  1  0
  3 37  1  0
  3 38  1  0
  3 39  1  0
  4 21  1  0
  4  5  1  0
  4 40  1  6
  5  6  1  0
  5 41  1  0
  5 42  1  0
  6 22  1  0
  6  7  1  0
  6 43  1  1
  7 28  1  0
  7  8  1  0
  7 44  1  6
  8  9  1  0
  8 45  1  0
  8 46  1  0
  9 10  2  0
  9 47  1  0
 10 30  1  0
 10 11  1  0
 11 34  1  0
 11 12  1  0
 11 48  1  6
 12 13  1  0
 12 49  1  0
 12 50  1  0
 13 14  1  0
 13 15  1  0
 14 51  1  0
 14 52  1  0
 14 53  1  0
 15 30  1  0
 15 16  1  1
 15 32  1  0
 16 17  1  0
 16 54  1  0
 16 55  1  0
 17 18  1  0
 17 19  1  0
 17 56  1  1
 18 57  1  0
 18 58  1  0
 18 59  1  0
 19 20  1  0
 19 60  1  0
 19 61  1  0
 20 21  1  0
 20 62  1  0
 20 63  1  0
 21 22  1  0
 21 64  1  1
 22 23  1  6
 22 24  1  0
 23 65  1  0
 23 66  1  0
 23 67  1  0
 24 25  1  0
 24 68  1  0
 24 69  1  0
 25 26  1  0
 25 70  1  0
 25 71  1  0
 26 27  2  0
 26 28  1  0
 28 29  1  1
 28 30  1  0
 29 72  1  0
 29 73  1  0
 29 74  1  0
 30 31  1  6
 31 75  1  0
 31 76  1  0
 31 77  1  0
 32 33  1  0
 33 34  1  0
M  END
>  <i_m_ct_stereo_status>  (379) 
1

>  <s_m_source_file>  (379) 
/var/tmp/pbs.5076255.sched01/tmpzqmxgpmu/1265eqpa8lp.sdf

>  <i_m_source_file_index>  (379) 
36

>  <i_lp_mmshare_version>  (379) 
48012

>  <i_f3d_flags>  (379) 
0

>  <s_epik_input>  (379) 
W0NIMl0xW0NAQEhdKFtDSDNdKVtDSDJdW0NIMl1bQ0BASF0oW0NAQEhdKFtDSDJdMilDKD1bQ0gyXSlbQ0gzXSlDKFtDSDNdKShbQ0gyXVtDSDJdQyg9TylbQ0BdMzRbQ0gzXSlbQ0BIXTJbQ0BIXTNbQ0gyXVtDSF09QyhbQ0BAXTQoW0NAXTE1NilbQ0gzXSlbQ0BIXShPT082KVtDSDJdTjVbQ0gzXQ==

>  <s_epik_cmdline>  (379) 
J2VwaWtfcHl0aG9uJywgJy1waHQnLCAnMi4wJywgJy1waCcsICc3LjAnLCAnLXRuJywgJzgnLCAnLW1hJywgJzIwMCcsICctaW1hZScsICc8aW5maWxlLm1hZT4nLCAnLW9tYWUnLCAnPG91dGZpbGUubWFlPic=

>  <r_lp_tautomer_probability>  (379) 
0.99995

>  <r_epik_Ionization_Penalty>  (379) 
0.264047

>  <r_epik_Ionization_Penalty_Charging>  (379) 
0

>  <r_epik_Ionization_Penalty_Neutral>  (379) 
0.264047

>  <r_epik_State_Penalty>  (379) 
0.255901

>  <r_epik_Charging_Adjusted_Penalty>  (379) 
0.255901

>  <i_epik_Tot_Q>  (379) 
0

>  <i_epik_Tot_abs_Q>  (379) 
0

>  <s_lp_Force_Field>  (379) 
OPLS3e

>  <r_lp_Energy>  (379) 
291.481

>  <b_lp_Chiralities_Consistent>  (379) 
1

>  <s_lp_Variant>  (379) 
114:0-2

>  <s_i_glide_gridfile>  (379) 
pfpi4k_grid

>  <i_i_glide_lignum>  (379) 
36

>  <i_i_glide_rotatable_bonds>  (379) 
1

>  <r_i_docking_score>  (379) 
-1.7467

>  <r_i_glide_ligand_efficiency>  (379) 
-0.0513736

>  <r_i_glide_ligand_efficiency_sa>  (379) 
-0.166431

>  <r_i_glide_ligand_efficiency_ln>  (379) 
-0.385896

>  <r_i_glide_gscore>  (379) 
-1.7467

>  <r_i_glide_lipo>  (379) 
-0.183308

>  <r_i_glide_hbond>  (379) 
-0.023025

>  <r_i_glide_metal>  (379) 
-0

>  <r_i_glide_rewards>  (379) 
-0.288396

>  <r_i_glide_evdw>  (379) 
-23.1702

>  <r_i_glide_ecoul>  (379) 
-1.23359

>  <r_i_glide_erotb>  (379) 
0.0915743

>  <r_i_glide_esite>  (379) 
0

>  <r_i_glide_emodel>  (379) 
-26.9786

>  <r_i_glide_energy>  (379) 
-24.4038

>  <r_i_glide_einternal>  (379) 
0.00414137

>  <r_i_glide_intrahb_reward>  (379) 
-0

>  <i_i_glide_confnum>  (379) 
4

>  <i_i_glide_posenum>  (379) 
18

>  <r_i_glide_eff_state_penalty>  (379) 
0

>  <ligand_id>  (379) 
114

>  <original_smiles>  (379) 
C=C(C)C1CC2C3CC=C4C5CN(C)C6(CC(C)CCC1C2(C)CCC(=O)C3(C)C46C)OOO5

>  <smiles>  (379) 
[H]C([H])=C(C([H])([H])[H])C1([H])C([H])([H])C2([H])C3([H])C([H])([H])C([H])=C4C5([H])OOOC6(N(C([H])([H])[H])C5([H])[H])C([H])([H])C([H])(C([H])([H])[H])C([H])([H])C([H])([H])C1([H])C2(C([H])([H])[H])C([H])([H])C([H])([H])C(=O)C3(C([H])([H])[H])C46C([H])([H])[H]

$$$$
114:1:2
     RDKit          3D

 77 82  0  0  1  0  0  0  0  0999 V2000
    0.5492   -9.3996    3.1374 C   0  0  0  0  0  0  0  0  0  0  0  0
    0.8692   -8.5863    4.1494 C   0  0  0  0  0  0  0  0  0  0  0  0
    0.6303   -9.0547    5.5789 C   0  0  0  0  0  0  0  0  0  0  0  0
    1.4099   -7.1365    4.0181 C   0  0  2  0  0  0  0  0  0  0  0  0
    1.4974   -6.5226    2.5712 C   0  0  0  0  0  0  0  0  0  0  0  0
    2.9259   -5.9622    2.5711 C   0  0  2  0  0  0  0  0  0  0  0  0
    3.6426   -5.2376    1.4557 C   0  0  1  0  0  0  0  0  0  0  0  0
    2.9307   -4.7120    0.1532 C   0  0  0  0  0  0  0  0  0  0  0  0
    3.2765   -3.2613   -0.2267 C   0  0  0  0  0  0  0  0  0  0  0  0
    3.6879   -2.3425    0.6661 C   0  0  0  0  0  0  0  0  0  0  0  0
    4.0240   -0.8933    0.3755 C   0  0  1  0  0  0  0  0  0  0  0  0
    3.3060    0.0779    1.3329 C   0  0  0  0  0  0  0  0  0  0  0  0
    3.1838   -0.3572    2.7386 N   0  0  0  0  0  0  0  0  0  0  0  0
    3.0539    0.8249    3.5865 C   0  0  0  0  0  0  0  0  0  0  0  0
    4.0647   -1.4895    3.1552 C   0  0  1  0  0  0  0  0  0  0  0  0
    4.0335   -1.7528    4.7894 C   0  0  0  0  0  0  0  0  0  0  0  0
    3.1149   -2.7010    5.7313 C   0  0  1  0  0  0  0  0  0  0  0  0
    1.6436   -2.2462    5.8715 C   0  0  0  0  0  0  0  0  0  0  0  0
    3.3810   -4.2610    6.1229 C   0  0  0  0  0  0  0  0  0  0  0  0
    2.4694   -5.4069    5.4913 C   0  0  0  0  0  0  0  0  0  0  0  0
    2.8196   -6.8090    4.6952 C   0  0  2  0  0  0  0  0  0  0  0  0
    3.7689   -6.9443    3.3880 C   0  0  1  0  0  0  0  0  0  0  0  0
    3.7453   -8.3807    2.7610 C   0  0  0  0  0  0  0  0  0  0  0  0
    5.3567   -6.7614    3.4195 C   0  0  0  0  0  0  0  0  0  0  0  0
    6.1970   -6.1682    2.1419 C   0  0  0  0  0  0  0  0  0  0  0  0
    5.8905   -4.7024    1.5681 C   0  0  0  0  0  0  0  0  0  0  0  0
    6.6102   -4.1213    0.7635 O   0  0  0  0  0  0  0  0  0  0  0  0
    4.5843   -4.1280    2.1433 C   0  0  2  0  0  0  0  0  0  0  0  0
    5.2677   -4.0153    3.5189 C   0  0  0  0  0  0  0  0  0  0  0  0
    3.7420   -2.7214    2.1207 C   0  0  2  0  0  0  0  0  0  0  0  0
    2.2165   -2.9187    2.4871 C   0  0  0  0  0  0  0  0  0  0  0  0
    5.3649   -0.9080    2.9713 O   0  0  0  0  0  0  0  0  0  0  0  0
    5.9369   -1.3753    1.6687 O   0  0  0  0  0  0  0  0  0  0  0  0
    5.4189   -0.6225    0.4832 O   0  0  0  0  0  0  0  0  0  0  0  0
    0.1682  -10.3974    3.3202 H   0  0  0  0  0  0  0  0  0  0  0  0
    0.6580   -9.1350    2.0909 H   0  0  0  0  0  0  0  0  0  0  0  0
    1.5245   -8.9653    6.1938 H   0  0  0  0  0  0  0  0  0  0  0  0
    0.3269  -10.1038    5.5925 H   0  0  0  0  0  0  0  0  0  0  0  0
   -0.1707   -8.4792    6.0368 H   0  0  0  0  0  0  0  0  0  0  0  0
    0.6140   -6.5992    4.5311 H   0  0  0  0  0  0  0  0  0  0  0  0
    1.3655   -7.2165    1.7476 H   0  0  0  0  0  0  0  0  0  0  0  0
    0.7533   -5.7362    2.4406 H   0  0  0  0  0  0  0  0  0  0  0  0
    2.7951   -5.1151    3.1929 H   0  0  0  0  0  0  0  0  0  0  0  0
    4.1197   -6.0930    0.9780 H   0  0  0  0  0  0  0  0  0  0  0  0
    3.2634   -5.3067   -0.6910 H   0  0  0  0  0  0  0  0  0  0  0  0
    1.8523   -4.8537    0.1800 H   0  0  0  0  0  0  0  0  0  0  0  0
    3.1505   -2.9902   -1.2654 H   0  0  0  0  0  0  0  0  0  0  0  0
    3.7420   -0.6601   -0.6568 H   0  0  0  0  0  0  0  0  0  0  0  0
    3.7970    1.0487    1.2729 H   0  0  0  0  0  0  0  0  0  0  0  0
    2.2907    0.2250    0.9667 H   0  0  0  0  0  0  0  0  0  0  0  0
    2.6024    0.5820    4.5490 H   0  0  0  0  0  0  0  0  0  0  0  0
    2.3775    1.5420    3.1163 H   0  0  0  0  0  0  0  0  0  0  0  0
    4.0132    1.3207    3.7463 H   0  0  0  0  0  0  0  0  0  0  0  0
    5.0460   -1.9869    5.1131 H   0  0  0  0  0  0  0  0  0  0  0  0
    3.9805   -0.7752    5.2571 H   0  0  0  0  0  0  0  0  0  0  0  0
    3.4908   -2.2872    6.6702 H   0  0  0  0  0  0  0  0  0  0  0  0
    0.9567   -2.7014    5.1601 H   0  0  0  0  0  0  0  0  0  0  0  0
    1.5576   -1.1657    5.7542 H   0  0  0  0  0  0  0  0  0  0  0  0
    1.2614   -2.4888    6.8636 H   0  0  0  0  0  0  0  0  0  0  0  0
    4.4395   -4.5289    6.1518 H   0  0  0  0  0  0  0  0  0  0  0  0
    3.1612   -4.3088    7.1917 H   0  0  0  0  0  0  0  0  0  0  0  0
    1.8819   -5.7526    6.3438 H   0  0  0  0  0  0  0  0  0  0  0  0
    1.7181   -4.8499    4.9401 H   0  0  0  0  0  0  0  0  0  0  0  0
    3.1180   -7.5572    5.4319 H   0  0  0  0  0  0  0  0  0  0  0  0
    4.0890   -9.1321    3.4784 H   0  0  0  0  0  0  0  0  0  0  0  0
    4.3936   -8.4459    1.8855 H   0  0  0  0  0  0  0  0  0  0  0  0
    2.8048   -8.7262    2.3790 H   0  0  0  0  0  0  0  0  0  0  0  0
    5.6218   -6.3627    4.3960 H   0  0  0  0  0  0  0  0  0  0  0  0
    5.8169   -7.7394    3.5724 H   0  0  0  0  0  0  0  0  0  0  0  0
    7.2543   -6.1801    2.4076 H   0  0  0  0  0  0  0  0  0  0  0  0
    6.1142   -6.8672    1.3092 H   0  0  0  0  0  0  0  0  0  0  0  0
    4.4911   -4.1462    4.1922 H   0  0  0  0  0  0  0  0  0  0  0  0
    5.7972   -3.0770    3.5959 H   0  0  0  0  0  0  0  0  0  0  0  0
    6.1372   -4.5497    3.8875 H   0  0  0  0  0  0  0  0  0  0  0  0
    1.5847   -2.0507    2.3185 H   0  0  0  0  0  0  0  0  0  0  0  0
    2.0949   -3.1936    3.5112 H   0  0  0  0  0  0  0  0  0  0  0  0
    1.6763   -3.6734    1.9446 H   0  0  0  0  0  0  0  0  0  0  0  0
  1  2  2  0
  1 35  1  0
  1 36  1  0
  2  3  1  0
  2  4  1  0
  3 37  1  0
  3 38  1  0
  3 39  1  0
  4 21  1  0
  4  5  1  0
  4 40  1  1
  5  6  1  0
  5 41  1  0
  5 42  1  0
  6 22  1  0
  6  7  1  0
  6 43  1  1
  7 28  1  0
  7  8  1  0
  7 44  1  6
  8  9  1  0
  8 45  1  0
  8 46  1  0
  9 10  2  0
  9 47  1  0
 10 30  1  0
 10 11  1  0
 11 34  1  0
 11 12  1  0
 11 48  1  6
 12 13  1  0
 12 49  1  0
 12 50  1  0
 13 14  1  0
 13 15  1  0
 14 51  1  0
 14 52  1  0
 14 53  1  0
 15 30  1  0
 15 16  1  1
 15 32  1  0
 16 17  1  0
 16 54  1  0
 16 55  1  0
 17 18  1  0
 17 19  1  0
 17 56  1  1
 18 57  1  0
 18 58  1  0
 18 59  1  0
 19 20  1  0
 19 60  1  0
 19 61  1  0
 20 21  1  0
 20 62  1  0
 20 63  1  0
 21 22  1  0
 21 64  1  1
 22 23  1  6
 22 24  1  0
 23 65  1  0
 23 66  1  0
 23 67  1  0
 24 25  1  0
 24 68  1  0
 24 69  1  0
 25 26  1  0
 25 70  1  0
 25 71  1  0
 26 27  2  0
 26 28  1  0
 28 29  1  1
 28 30  1  0
 29 72  1  0
 29 73  1  0
 29 74  1  0
 30 31  1  1
 31 75  1  0
 31 76  1  0
 31 77  1  0
 32 33  1  0
 33 34  1  0
M  END
>  <i_m_ct_stereo_status>  (380) 
1

>  <s_m_source_file>  (380) 
/var/tmp/pbs.5076255.sched01/tmpzqmxgpmu/1265eqpa8lp.sdf

>  <i_m_source_file_index>  (380) 
36

>  <i_lp_mmshare_version>  (380) 
48012

>  <i_f3d_flags>  (380) 
0

>  <s_epik_input>  (380) 
W0NIMl0xW0NAQEhdKFtDSDNdKVtDSDJdW0NIMl1bQ0BASF0oW0NAQEhdKFtDSDJdMilDKD1bQ0gyXSlbQ0gzXSlDKFtDSDNdKShbQ0gyXVtDSDJdQyg9TylbQ0BdMzRbQ0gzXSlbQ0BIXTJbQ0BIXTNbQ0gyXVtDSF09QyhbQ0BAXTQoW0NAXTE1NilbQ0gzXSlbQ0BIXShPT082KVtDSDJdTjVbQ0gzXQ==

>  <s_epik_cmdline>  (380) 
J2VwaWtfcHl0aG9uJywgJy1waHQnLCAnMi4wJywgJy1waCcsICc3LjAnLCAnLXRuJywgJzgnLCAnLW1hJywgJzIwMCcsICctaW1hZScsICc8aW5maWxlLm1hZT4nLCAnLW9tYWUnLCAnPG91dGZpbGUubWFlPic=

>  <r_lp_tautomer_probability>  (380) 
0.99995

>  <r_epik_Ionization_Penalty>  (380) 
0.264047

>  <r_epik_Ionization_Penalty_Charging>  (380) 
0

>  <r_epik_Ionization_Penalty_Neutral>  (380) 
0.264047

>  <r_epik_State_Penalty>  (380) 
0.255901

>  <r_epik_Charging_Adjusted_Penalty>  (380) 
0.255901

>  <i_epik_Tot_Q>  (380) 
0

>  <i_epik_Tot_abs_Q>  (380) 
0

>  <s_lp_Force_Field>  (380) 
OPLS3e

>  <r_lp_Energy>  (380) 
291.481

>  <b_lp_Chiralities_Consistent>  (380) 
1

>  <s_lp_Variant>  (380) 
114:0-2

>  <s_i_glide_gridfile>  (380) 
pfpi4k_grid

>  <i_i_glide_lignum>  (380) 
36

>  <i_i_glide_rotatable_bonds>  (380) 
1

>  <r_i_docking_score>  (380) 
-1.57681

>  <r_i_glide_ligand_efficiency>  (380) 
-0.0463767

>  <r_i_glide_ligand_efficiency_sa>  (380) 
-0.150243

>  <r_i_glide_ligand_efficiency_ln>  (380) 
-0.348361

>  <r_i_glide_gscore>  (380) 
-1.57681

>  <r_i_glide_lipo>  (380) 
-0.119573

>  <r_i_glide_hbond>  (380) 
0

>  <r_i_glide_metal>  (380) 
-0

>  <r_i_glide_rewards>  (380) 
-0.292039

>  <r_i_glide_evdw>  (380) 
-21.6659

>  <r_i_glide_ecoul>  (380) 
-1.1565

>  <r_i_glide_erotb>  (380) 
0.0915743

>  <r_i_glide_esite>  (380) 
0

>  <r_i_glide_emodel>  (380) 
-24.4161

>  <r_i_glide_energy>  (380) 
-22.8224

>  <r_i_glide_einternal>  (380) 
1.10124

>  <r_i_glide_intrahb_reward>  (380) 
-0

>  <i_i_glide_confnum>  (380) 
4

>  <i_i_glide_posenum>  (380) 
20

>  <r_i_glide_eff_state_penalty>  (380) 
0

>  <ligand_id>  (380) 
114

>  <original_smiles>  (380) 
C=C(C)C1CC2C3CC=C4C5CN(C)C6(CC(C)CCC1C2(C)CCC(=O)C3(C)C46C)OOO5

>  <smiles>  (380) 
[H]C([H])=C(C([H])([H])[H])C1([H])C([H])([H])C2([H])C3([H])C([H])([H])C([H])=C4C5([H])OOOC6(N(C([H])([H])[H])C5([H])[H])C([H])([H])C([H])(C([H])([H])[H])C([H])([H])C([H])([H])C1([H])C2(C([H])([H])[H])C([H])([H])C([H])([H])C(=O)C3(C([H])([H])[H])C46C([H])([H])[H]

$$$$
114:2:0
     RDKit          3D

 78 83  0  0  1  0  0  0  0  0999 V2000
    1.3790    2.5242    8.8013 C   0  0  0  0  0  0  0  0  0  0  0  0
    0.2799    1.7822    8.7767 C   0  0  0  0  0  0  0  0  0  0  0  0
   -0.9572    2.2025    9.5724 C   0  0  0  0  0  0  0  0  0  0  0  0
    0.1421    0.4446    8.0235 C   0  0  2  0  0  0  0  0  0  0  0  0
    1.4751   -0.3254    7.7551 C   0  0  0  0  0  0  0  0  0  0  0  0
    1.5596   -0.5964    6.2180 C   0  0  2  0  0  0  0  0  0  0  0  0
    2.3283    0.6266    5.5185 C   0  0  1  0  0  0  0  0  0  0  0  0
    3.7705    0.9578    6.0012 C   0  0  0  0  0  0  0  0  0  0  0  0
    4.0875    2.4136    5.6358 C   0  0  0  0  0  0  0  0  0  0  0  0
    3.3915    3.1571    4.7594 C   0  0  0  0  0  0  0  0  0  0  0  0
    3.4203    4.6804    4.9228 C   0  0  1  0  0  0  0  0  0  0  0  0
    2.4835    5.4849    3.9852 C   0  0  0  0  0  0  0  0  0  0  0  0
    1.1167    4.8830    3.8003 N   0  0  2  0  0  0  0  0  0  0  0  0
    0.0315    5.8652    4.0464 C   0  0  0  0  0  0  0  0  0  0  0  0
    0.9539    3.4668    4.3564 C   0  0  1  0  0  0  0  0  0  0  0  0
   -0.4653    2.8785    4.0081 C   0  0  0  0  0  0  0  0  0  0  0  0
   -1.7796    3.2126    4.8095 C   0  0  1  0  0  0  0  0  0  0  0  0
   -2.9846    2.8976    3.9147 C   0  0  0  0  0  0  0  0  0  0  0  0
   -2.0194    2.5730    6.2246 C   0  0  0  0  0  0  0  0  0  0  0  0
   -1.9624    1.0179    6.4417 C   0  0  0  0  0  0  0  0  0  0  0  0
   -0.5149    0.5081    6.6192 C   0  0  2  0  0  0  0  0  0  0  0  0
    0.0091   -0.7871    5.9278 C   0  0  2  0  0  0  0  0  0  0  0  0
   -0.5610   -2.0708    6.6191 C   0  0  0  0  0  0  0  0  0  0  0  0
   -0.4033   -0.9895    4.4452 C   0  0  0  0  0  0  0  0  0  0  0  0
    0.7527   -1.1088    3.4676 C   0  0  0  0  0  0  0  0  0  0  0  0
    1.1970    0.2840    3.1127 C   0  0  0  0  0  0  0  0  0  0  0  0
    0.7093    0.8174    2.1141 O   0  0  0  0  0  0  0  0  0  0  0  0
    2.2814    0.9742    3.9716 C   0  0  2  0  0  0  0  0  0  0  0  0
    3.5660    0.3494    3.2959 C   0  0  0  0  0  0  0  0  0  0  0  0
    2.2503    2.6013    3.8641 C   0  0  2  0  0  0  0  0  0  0  0  0
    2.5917    2.9696    2.3831 C   0  0  0  0  0  0  0  0  0  0  0  0
    0.9545    3.5444    5.7961 O   0  0  0  0  0  0  0  0  0  0  0  0
    1.5201    4.8502    6.2970 O   0  0  0  0  0  0  0  0  0  0  0  0
    3.0189    4.9524    6.2535 O   0  0  0  0  0  0  0  0  0  0  0  0
    1.4202    3.4460    9.3741 H   0  0  0  0  0  0  0  0  0  0  0  0
    2.2865    2.2662    8.2660 H   0  0  0  0  0  0  0  0  0  0  0  0
   -1.8380    2.3080    8.9477 H   0  0  0  0  0  0  0  0  0  0  0  0
   -0.7923    3.1629   10.0636 H   0  0  0  0  0  0  0  0  0  0  0  0
   -1.1868    1.4726   10.3468 H   0  0  0  0  0  0  0  0  0  0  0  0
   -0.4595   -0.1772    8.6825 H   0  0  0  0  0  0  0  0  0  0  0  0
    2.3501    0.1342    8.1951 H   0  0  0  0  0  0  0  0  0  0  0  0
    1.4470   -1.2777    8.2834 H   0  0  0  0  0  0  0  0  0  0  0  0
    2.1114   -1.5183    6.0283 H   0  0  0  0  0  0  0  0  0  0  0  0
    1.8698    1.4593    6.0100 H   0  0  0  0  0  0  0  0  0  0  0  0
    3.8613    0.9196    7.0771 H   0  0  0  0  0  0  0  0  0  0  0  0
    4.5375    0.2786    5.6371 H   0  0  0  0  0  0  0  0  0  0  0  0
    4.8148    2.8943    6.2839 H   0  0  0  0  0  0  0  0  0  0  0  0
    4.4446    5.0284    4.8182 H   0  0  0  0  0  0  0  0  0  0  0  0
    2.4220    6.5179    4.3272 H   0  0  0  0  0  0  0  0  0  0  0  0
    2.9311    5.5745    2.9998 H   0  0  0  0  0  0  0  0  0  0  0  0
   -0.1797    6.0212    5.0990 H   0  0  0  0  0  0  0  0  0  0  0  0
   -0.8704    5.5671    3.5220 H   0  0  0  0  0  0  0  0  0  0  0  0
    0.3124    6.8343    3.6484 H   0  0  0  0  0  0  0  0  0  0  0  0
   -0.6374    3.0597    2.9462 H   0  0  0  0  0  0  0  0  0  0  0  0
   -0.4446    1.8159    4.1082 H   0  0  0  0  0  0  0  0  0  0  0  0
   -1.8269    4.2832    4.9885 H   0  0  0  0  0  0  0  0  0  0  0  0
   -2.9800    1.8378    3.6733 H   0  0  0  0  0  0  0  0  0  0  0  0
   -2.9503    3.4426    2.9714 H   0  0  0  0  0  0  0  0  0  0  0  0
   -3.9329    3.1334    4.3986 H   0  0  0  0  0  0  0  0  0  0  0  0
   -1.3463    3.0660    6.9234 H   0  0  0  0  0  0  0  0  0  0  0  0
   -3.0129    2.8857    6.5551 H   0  0  0  0  0  0  0  0  0  0  0  0
   -2.5354    0.7746    7.3329 H   0  0  0  0  0  0  0  0  0  0  0  0
   -2.4744    0.5062    5.6293 H   0  0  0  0  0  0  0  0  0  0  0  0
   -0.0364    1.3154    6.1132 H   0  0  0  0  0  0  0  0  0  0  0  0
   -1.6374   -2.1507    6.4654 H   0  0  0  0  0  0  0  0  0  0  0  0
   -0.4074   -2.1479    7.6913 H   0  0  0  0  0  0  0  0  0  0  0  0
   -0.1163   -2.9721    6.1935 H   0  0  0  0  0  0  0  0  0  0  0  0
   -0.9842   -1.9033    4.3174 H   0  0  0  0  0  0  0  0  0  0  0  0
   -1.0996   -0.2228    4.1116 H   0  0  0  0  0  0  0  0  0  0  0  0
    1.5737   -1.7151    3.8481 H   0  0  0  0  0  0  0  0  0  0  0  0
    0.4157   -1.5879    2.5498 H   0  0  0  0  0  0  0  0  0  0  0  0
    4.4684    0.9458    3.4349 H   0  0  0  0  0  0  0  0  0  0  0  0
    3.4902    0.2082    2.2156 H   0  0  0  0  0  0  0  0  0  0  0  0
    3.7747   -0.6494    3.6844 H   0  0  0  0  0  0  0  0  0  0  0  0
    2.8326    2.1368    1.7394 H   0  0  0  0  0  0  0  0  0  0  0  0
    3.4187    3.6599    2.3009 H   0  0  0  0  0  0  0  0  0  0  0  0
    1.8038    3.4600    1.8380 H   0  0  0  0  0  0  0  0  0  0  0  0
    1.0546    4.7312    2.8000 H   0  0  0  0  0  0  0  0  0  0  0  0
  1  2  2  0
  1 35  1  0
  1 36  1  0
  2  3  1  0
  2  4  1  0
  3 37  1  0
  3 38  1  0
  3 39  1  0
  4 21  1  0
  4  5  1  0
  4 40  1  1
  5  6  1  0
  5 41  1  0
  5 42  1  0
  6 22  1  0
  6  7  1  0
  6 43  1  1
  7 28  1  0
  7  8  1  0
  7 44  1  1
  8  9  1  0
  8 45  1  0
  8 46  1  0
  9 10  2  0
  9 47  1  0
 10 30  1  0
 10 11  1  0
 11 34  1  0
 11 12  1  0
 11 48  1  1
 12 13  1  0
 12 49  1  0
 12 50  1  0
 13 14  1  0
 13 15  1  0
 13 78  1  6
 14 51  1  0
 14 52  1  0
 14 53  1  0
 15 30  1  0
 15 16  1  6
 15 32  1  0
 16 17  1  0
 16 54  1  0
 16 55  1  0
 17 18  1  0
 17 19  1  0
 17 56  1  1
 18 57  1  0
 18 58  1  0
 18 59  1  0
 19 20  1  0
 19 60  1  0
 19 61  1  0
 20 21  1  0
 20 62  1  0
 20 63  1  0
 21 22  1  0
 21 64  1  6
 22 23  1  1
 22 24  1  0
 23 65  1  0
 23 66  1  0
 23 67  1  0
 24 25  1  0
 24 68  1  0
 24 69  1  0
 25 26  1  0
 25 70  1  0
 25 71  1  0
 26 27  2  0
 26 28  1  0
 28 29  1  6
 28 30  1  0
 29 72  1  0
 29 73  1  0
 29 74  1  0
 30 31  1  6
 31 75  1  0
 31 76  1  0
 31 77  1  0
 32 33  1  0
 33 34  1  0
M  CHG  1  13   1
M  END
>  <i_m_ct_stereo_status>  (381) 
1

>  <s_m_source_file>  (381) 
/var/tmp/pbs.5076255.sched01/tmpzqmxgpmu/1265eqpa8lp.sdf

>  <i_m_source_file_index>  (381) 
37

>  <i_lp_mmshare_version>  (381) 
48012

>  <i_f3d_flags>  (381) 
0

>  <s_epik_input>  (381) 
W0NIMl0xW0NAQEhdKFtDSDNdKVtDSDJdW0NIMl1bQ0BASF0oW0NAQEhdKFtDSDJdMilDKD1bQ0gyXSlbQ0gzXSlDKFtDSDNdKShbQ0gyXVtDSDJdQyg9TylbQ0BdMzRbQ0gzXSlbQ0BIXTJbQ0BIXTNbQ0gyXVtDSF09QyhbQ0BAXTQoW0NAXTE1NilbQ0gzXSlbQ0BIXShPT082KVtDSDJdTjVbQ0gzXQ==

>  <s_epik_cmdline>  (381) 
J2VwaWtfcHl0aG9uJywgJy1waHQnLCAnMi4wJywgJy1waCcsICc3LjAnLCAnLXRuJywgJzgnLCAnLW1hJywgJzIwMCcsICctaW1hZScsICc8aW5maWxlLm1hZT4nLCAnLW9tYWUnLCAnPG91dGZpbGUubWFlPic=

>  <r_lp_tautomer_probability>  (381) 
0.99995

>  <r_epik_Ionization_Penalty>  (381) 
0.605974

>  <r_epik_Ionization_Penalty_Charging>  (381) 
0.605974

>  <r_epik_Ionization_Penalty_Neutral>  (381) 
1.48832e-12

>  <r_epik_State_Penalty>  (381) 
0.620765

>  <r_epik_Charging_Adjusted_Penalty>  (381) 
1.22674

>  <i_epik_Tot_Q>  (381) 
1

>  <i_epik_Tot_abs_Q>  (381) 
1

>  <s_lp_Force_Field>  (381) 
OPLS3e

>  <r_lp_Energy>  (381) 
145.097

>  <b_lp_Chiralities_Consistent>  (381) 
1

>  <s_lp_Variant>  (381) 
114:0-3

>  <s_i_glide_gridfile>  (381) 
pfpi4k_grid

>  <i_i_glide_lignum>  (381) 
37

>  <i_i_glide_rotatable_bonds>  (381) 
1

>  <r_i_docking_score>  (381) 
-1.71573

>  <r_i_glide_ligand_efficiency>  (381) 
-0.0504625

>  <r_i_glide_ligand_efficiency_sa>  (381) 
-0.163479

>  <r_i_glide_ligand_efficiency_ln>  (381) 
-0.379052

>  <r_i_glide_gscore>  (381) 
-1.71573

>  <r_i_glide_lipo>  (381) 
-0.0729293

>  <r_i_glide_hbond>  (381) 
-0.0751674

>  <r_i_glide_metal>  (381) 
-0

>  <r_i_glide_rewards>  (381) 
-0.200018

>  <r_i_glide_evdw>  (381) 
-20.6444

>  <r_i_glide_ecoul>  (381) 
-2.08492

>  <r_i_glide_erotb>  (381) 
0.0912168

>  <r_i_glide_esite>  (381) 
-0.113871

>  <r_i_glide_emodel>  (381) 
-24.6824

>  <r_i_glide_energy>  (381) 
-22.7293

>  <r_i_glide_einternal>  (381) 
0.669916

>  <r_i_glide_intrahb_reward>  (381) 
-0

>  <i_i_glide_confnum>  (381) 
6

>  <i_i_glide_posenum>  (381) 
16

>  <r_i_glide_eff_state_penalty>  (381) 
0

>  <ligand_id>  (381) 
114

>  <original_smiles>  (381) 
C=C(C)C1CC2C3CC=C4C5CN(C)C6(CC(C)CCC1C2(C)CCC(=O)C3(C)C46C)OOO5

>  <smiles>  (381) 
[H]C([H])=C(C([H])([H])[H])C1([H])C([H])([H])C2([H])C3([H])C([H])([H])C([H])=C4C5([H])OOOC6(C([H])([H])C([H])(C([H])([H])[H])C([H])([H])C([H])([H])C1([H])C2(C([H])([H])[H])C([H])([H])C([H])([H])C(=O)C3(C([H])([H])[H])C46C([H])([H])[H])[N+]([H])(C([H])([H])[H])C5([H])[H]

$$$$
114:2:1
     RDKit          3D

 78 83  0  0  1  0  0  0  0  0999 V2000
   -0.0182    3.1577    8.5123 C   0  0  0  0  0  0  0  0  0  0  0  0
    0.0669    1.9567    9.0353 C   0  0  0  0  0  0  0  0  0  0  0  0
    0.2047    1.8272   10.5437 C   0  0  0  0  0  0  0  0  0  0  0  0
    0.0462    0.6296    8.2316 C   0  0  2  0  0  0  0  0  0  0  0  0
    1.4390   -0.0667    8.0658 C   0  0  0  0  0  0  0  0  0  0  0  0
    1.6695   -0.3444    6.5350 C   0  0  2  0  0  0  0  0  0  0  0  0
    2.4174    0.9160    5.8722 C   0  0  1  0  0  0  0  0  0  0  0  0
    3.7902    1.3413    6.4683 C   0  0  0  0  0  0  0  0  0  0  0  0
    4.0559    2.8027    6.1071 C   0  0  0  0  0  0  0  0  0  0  0  0
    3.4032    3.5014    5.1412 C   0  0  0  0  0  0  0  0  0  0  0  0
    3.3332    5.0211    5.2753 C   0  0  1  0  0  0  0  0  0  0  0  0
    2.4174    5.7678    4.2499 C   0  0  0  0  0  0  0  0  0  0  0  0
    1.1070    5.0432    3.9648 N   0  0  2  0  0  0  0  0  0  0  0  0
   -0.0574    5.9742    4.1110 C   0  0  0  0  0  0  0  0  0  0  0  0
    0.9938    3.6600    4.5154 C   0  0  1  0  0  0  0  0  0  0  0  0
   -0.3914    2.9606    4.0916 C   0  0  0  0  0  0  0  0  0  0  0  0
   -1.7957    3.2177    4.7882 C   0  0  1  0  0  0  0  0  0  0  0  0
   -2.8908    2.8256    3.7841 C   0  0  0  0  0  0  0  0  0  0  0  0
   -2.1892    2.5833    6.1747 C   0  0  0  0  0  0  0  0  0  0  0  0
   -1.9731    1.0429    6.4420 C   0  0  0  0  0  0  0  0  0  0  0  0
   -0.4979    0.6430    6.7557 C   0  0  2  0  0  0  0  0  0  0  0  0
    0.1621   -0.6373    6.1264 C   0  0  2  0  0  0  0  0  0  0  0  0
   -0.3860   -1.9520    6.7842 C   0  0  0  0  0  0  0  0  0  0  0  0
   -0.1157   -0.8875    4.6107 C   0  0  0  0  0  0  0  0  0  0  0  0
    1.1210   -0.9460    3.7282 C   0  0  0  0  0  0  0  0  0  0  0  0
    1.5162    0.4691    3.3822 C   0  0  0  0  0  0  0  0  0  0  0  0
    1.0832    0.9553    2.3399 O   0  0  0  0  0  0  0  0  0  0  0  0
    2.4860    1.2390    4.3118 C   0  0  2  0  0  0  0  0  0  0  0  0
    3.8516    0.6773    3.7635 C   0  0  0  0  0  0  0  0  0  0  0  0
    2.3762    2.8519    4.1648 C   0  0  2  0  0  0  0  0  0  0  0  0
    2.8129    3.2409    2.6927 C   0  0  0  0  0  0  0  0  0  0  0  0
    0.9443    3.7649    5.9340 O   0  0  0  0  0  0  0  0  0  0  0  0
    1.2967    5.0994    6.4712 O   0  0  0  0  0  0  0  0  0  0  0  0
    2.7610    5.2792    6.5494 O   0  0  0  0  0  0  0  0  0  0  0  0
   -0.0063    4.0822    9.0761 H   0  0  0  0  0  0  0  0  0  0  0  0
   -0.0965    3.1602    7.4731 H   0  0  0  0  0  0  0  0  0  0  0  0
   -0.6369    1.2453   10.9530 H   0  0  0  0  0  0  0  0  0  0  0  0
    0.1622    2.8395   10.9664 H   0  0  0  0  0  0  0  0  0  0  0  0
    1.1829    1.3804   10.7876 H   0  0  0  0  0  0  0  0  0  0  0  0
   -0.5900   -0.0450    8.8049 H   0  0  0  0  0  0  0  0  0  0  0  0
    2.2197    0.4962    8.5590 H   0  0  0  0  0  0  0  0  0  0  0  0
    1.4361   -1.0160    8.6074 H   0  0  0  0  0  0  0  0  0  0  0  0
    2.2845   -1.2375    6.4112 H   0  0  0  0  0  0  0  0  0  0  0  0
    1.8681    1.7226    6.3145 H   0  0  0  0  0  0  0  0  0  0  0  0
    3.7904    1.3163    7.5539 H   0  0  0  0  0  0  0  0  0  0  0  0
    4.6214    0.6905    6.1952 H   0  0  0  0  0  0  0  0  0  0  0  0
    4.6873    3.3350    6.8051 H   0  0  0  0  0  0  0  0  0  0  0  0
    4.3540    5.4558    5.2922 H   0  0  0  0  0  0  0  0  0  0  0  0
    2.2580    6.8092    4.5799 H   0  0  0  0  0  0  0  0  0  0  0  0
    2.9493    5.8659    3.3094 H   0  0  0  0  0  0  0  0  0  0  0  0
   -0.3550    6.1427    5.1639 H   0  0  0  0  0  0  0  0  0  0  0  0
   -0.9213    5.6058    3.5433 H   0  0  0  0  0  0  0  0  0  0  0  0
    0.1764    6.9514    3.6784 H   0  0  0  0  0  0  0  0  0  0  0  0
   -0.4776    3.1142    2.9980 H   0  0  0  0  0  0  0  0  0  0  0  0
   -0.2803    1.9114    4.2207 H   0  0  0  0  0  0  0  0  0  0  0  0
   -1.9065    4.2834    4.9375 H   0  0  0  0  0  0  0  0  0  0  0  0
   -2.8339    1.7551    3.5878 H   0  0  0  0  0  0  0  0  0  0  0  0
   -2.8031    3.3599    2.8304 H   0  0  0  0  0  0  0  0  0  0  0  0
   -3.8845    3.0235    4.1841 H   0  0  0  0  0  0  0  0  0  0  0  0
   -1.8089    3.2106    6.9551 H   0  0  0  0  0  0  0  0  0  0  0  0
   -3.2557    2.7540    6.3190 H   0  0  0  0  0  0  0  0  0  0  0  0
   -2.5912    0.7556    7.2926 H   0  0  0  0  0  0  0  0  0  0  0  0
   -2.3680    0.4504    5.6042 H   0  0  0  0  0  0  0  0  0  0  0  0
   -0.0369    1.4547    6.2402 H   0  0  0  0  0  0  0  0  0  0  0  0
   -1.4376   -2.1018    6.5333 H   0  0  0  0  0  0  0  0  0  0  0  0
   -0.3189   -2.0088    7.8675 H   0  0  0  0  0  0  0  0  0  0  0  0
    0.1455   -2.8314    6.4153 H   0  0  0  0  0  0  0  0  0  0  0  0
   -0.6356   -1.8352    4.4462 H   0  0  0  0  0  0  0  0  0  0  0  0
   -0.8258   -0.1675    4.2110 H   0  0  0  0  0  0  0  0  0  0  0  0
    1.9398   -1.5009    4.1830 H   0  0  0  0  0  0  0  0  0  0  0  0
    0.8779   -1.4619    2.7986 H   0  0  0  0  0  0  0  0  0  0  0  0
    4.6980    1.3283    3.9700 H   0  0  0  0  0  0  0  0  0  0  0  0
    3.8801    0.5201    2.6841 H   0  0  0  0  0  0  0  0  0  0  0  0
    4.0857   -0.2979    4.1868 H   0  0  0  0  0  0  0  0  0  0  0  0
    3.1332    2.3976    2.0860 H   0  0  0  0  0  0  0  0  0  0  0  0
    3.6523    3.9422    2.6776 H   0  0  0  0  0  0  0  0  0  0  0  0
    2.0039    3.6723    2.0993 H   0  0  0  0  0  0  0  0  0  0  0  0
    1.1284    4.9333    2.9420 H   0  0  0  0  0  0  0  0  0  0  0  0
  1  2  2  0
  1 35  1  0
  1 36  1  0
  2  3  1  0
  2  4  1  0
  3 37  1  0
  3 38  1  0
  3 39  1  0
  4 21  1  0
  4  5  1  0
  4 40  1  1
  5  6  1  0
  5 41  1  0
  5 42  1  0
  6 22  1  0
  6  7  1  0
  6 43  1  1
  7 28  1  0
  7  8  1  0
  7 44  1  1
  8  9  1  0
  8 45  1  0
  8 46  1  0
  9 10  2  0
  9 47  1  0
 10 30  1  0
 10 11  1  0
 11 34  1  0
 11 12  1  0
 11 48  1  1
 12 13  1  0
 12 49  1  0
 12 50  1  0
 13 14  1  0
 13 15  1  0
 13 78  1  6
 14 51  1  0
 14 52  1  0
 14 53  1  0
 15 30  1  0
 15 16  1  6
 15 32  1  0
 16 17  1  0
 16 54  1  0
 16 55  1  0
 17 18  1  0
 17 19  1  0
 17 56  1  1
 18 57  1  0
 18 58  1  0
 18 59  1  0
 19 20  1  0
 19 60  1  0
 19 61  1  0
 20 21  1  0
 20 62  1  0
 20 63  1  0
 21 22  1  0
 21 64  1  6
 22 23  1  1
 22 24  1  0
 23 65  1  0
 23 66  1  0
 23 67  1  0
 24 25  1  0
 24 68  1  0
 24 69  1  0
 25 26  1  0
 25 70  1  0
 25 71  1  0
 26 27  2  0
 26 28  1  0
 28 29  1  6
 28 30  1  0
 29 72  1  0
 29 73  1  0
 29 74  1  0
 30 31  1  6
 31 75  1  0
 31 76  1  0
 31 77  1  0
 32 33  1  0
 33 34  1  0
M  CHG  1  13   1
M  END
>  <i_m_ct_stereo_status>  (382) 
1

>  <s_m_source_file>  (382) 
/var/tmp/pbs.5076255.sched01/tmpzqmxgpmu/1265eqpa8lp.sdf

>  <i_m_source_file_index>  (382) 
37

>  <i_lp_mmshare_version>  (382) 
48012

>  <i_f3d_flags>  (382) 
0

>  <s_epik_input>  (382) 
W0NIMl0xW0NAQEhdKFtDSDNdKVtDSDJdW0NIMl1bQ0BASF0oW0NAQEhdKFtDSDJdMilDKD1bQ0gyXSlbQ0gzXSlDKFtDSDNdKShbQ0gyXVtDSDJdQyg9TylbQ0BdMzRbQ0gzXSlbQ0BIXTJbQ0BIXTNbQ0gyXVtDSF09QyhbQ0BAXTQoW0NAXTE1NilbQ0gzXSlbQ0BIXShPT082KVtDSDJdTjVbQ0gzXQ==

>  <s_epik_cmdline>  (382) 
J2VwaWtfcHl0aG9uJywgJy1waHQnLCAnMi4wJywgJy1waCcsICc3LjAnLCAnLXRuJywgJzgnLCAnLW1hJywgJzIwMCcsICctaW1hZScsICc8aW5maWxlLm1hZT4nLCAnLW9tYWUnLCAnPG91dGZpbGUubWFlPic=

>  <r_lp_tautomer_probability>  (382) 
0.99995

>  <r_epik_Ionization_Penalty>  (382) 
0.605974

>  <r_epik_Ionization_Penalty_Charging>  (382) 
0.605974

>  <r_epik_Ionization_Penalty_Neutral>  (382) 
1.48832e-12

>  <r_epik_State_Penalty>  (382) 
0.620765

>  <r_epik_Charging_Adjusted_Penalty>  (382) 
1.22674

>  <i_epik_Tot_Q>  (382) 
1

>  <i_epik_Tot_abs_Q>  (382) 
1

>  <s_lp_Force_Field>  (382) 
OPLS3e

>  <r_lp_Energy>  (382) 
145.097

>  <b_lp_Chiralities_Consistent>  (382) 
1

>  <s_lp_Variant>  (382) 
114:0-3

>  <s_i_glide_gridfile>  (382) 
pfpi4k_grid

>  <i_i_glide_lignum>  (382) 
37

>  <i_i_glide_rotatable_bonds>  (382) 
1

>  <r_i_docking_score>  (382) 
-1.47035

>  <r_i_glide_ligand_efficiency>  (382) 
-0.0432457

>  <r_i_glide_ligand_efficiency_sa>  (382) 
-0.140099

>  <r_i_glide_ligand_efficiency_ln>  (382) 
-0.324842

>  <r_i_glide_gscore>  (382) 
-1.47035

>  <r_i_glide_lipo>  (382) 
-0.0893366

>  <r_i_glide_hbond>  (382) 
0

>  <r_i_glide_metal>  (382) 
-0

>  <r_i_glide_rewards>  (382) 
-0.200018

>  <r_i_glide_evdw>  (382) 
-19.2249

>  <r_i_glide_ecoul>  (382) 
-1.48471

>  <r_i_glide_erotb>  (382) 
0.0912168

>  <r_i_glide_esite>  (382) 
-0.0882621

>  <r_i_glide_emodel>  (382) 
-18.8695

>  <r_i_glide_energy>  (382) 
-20.7096

>  <r_i_glide_einternal>  (382) 
0.733242

>  <r_i_glide_intrahb_reward>  (382) 
-0

>  <i_i_glide_confnum>  (382) 
2

>  <i_i_glide_posenum>  (382) 
31

>  <r_i_glide_eff_state_penalty>  (382) 
0

>  <ligand_id>  (382) 
114

>  <original_smiles>  (382) 
C=C(C)C1CC2C3CC=C4C5CN(C)C6(CC(C)CCC1C2(C)CCC(=O)C3(C)C46C)OOO5

>  <smiles>  (382) 
[H]C([H])=C(C([H])([H])[H])C1([H])C([H])([H])C2([H])C3([H])C([H])([H])C([H])=C4C5([H])OOOC6(C([H])([H])C([H])(C([H])([H])[H])C([H])([H])C([H])([H])C1([H])C2(C([H])([H])[H])C([H])([H])C([H])([H])C(=O)C3(C([H])([H])[H])C46C([H])([H])[H])[N+]([H])(C([H])([H])[H])C5([H])[H]

$$$$
114:2:2
     RDKit          3D

 78 83  0  0  1  0  0  0  0  0999 V2000
    2.7366    4.0034    9.2650 C   0  0  0  0  0  0  0  0  0  0  0  0
    1.7609    3.2027    9.6920 C   0  0  0  0  0  0  0  0  0  0  0  0
    0.7125    3.7187   10.6734 C   0  0  0  0  0  0  0  0  0  0  0  0
    1.6133    1.7204    9.3018 C   0  0  2  0  0  0  0  0  0  0  0  0
    2.9380    0.9880    8.9118 C   0  0  0  0  0  0  0  0  0  0  0  0
    2.7265    0.3641    7.4908 C   0  0  2  0  0  0  0  0  0  0  0  0
    3.1964    1.4257    6.3822 C   0  0  1  0  0  0  0  0  0  0  0  0
    4.6624    1.9416    6.4413 C   0  0  0  0  0  0  0  0  0  0  0  0
    4.7381    3.2866    5.7050 C   0  0  0  0  0  0  0  0  0  0  0  0
    3.7984    3.7624    4.8639 C   0  0  0  0  0  0  0  0  0  0  0  0
    3.6960    5.2804    4.6858 C   0  0  1  0  0  0  0  0  0  0  0  0
    2.5075    5.7851    3.8326 C   0  0  0  0  0  0  0  0  0  0  0  0
    1.2099    5.0847    4.1075 N   0  0  2  0  0  0  0  0  0  0  0  0
    0.0965    6.0333    4.3681 C   0  0  0  0  0  0  0  0  0  0  0  0
    1.3157    3.8350    4.9684 C   0  0  1  0  0  0  0  0  0  0  0  0
   -0.0792    3.0907    5.1010 C   0  0  0  0  0  0  0  0  0  0  0  0
   -1.2278    3.5215    6.0905 C   0  0  1  0  0  0  0  0  0  0  0  0
   -2.5651    2.9425    5.5877 C   0  0  0  0  0  0  0  0  0  0  0  0
   -1.0938    3.2344    7.6312 C   0  0  0  0  0  0  0  0  0  0  0  0
   -0.8257    1.7813    8.1663 C   0  0  0  0  0  0  0  0  0  0  0  0
    0.6757    1.4126    8.1042 C   0  0  2  0  0  0  0  0  0  0  0  0
    1.1792    0.0218    7.6136 C   0  0  2  0  0  0  0  0  0  0  0  0
    0.9033   -1.0873    8.6828 C   0  0  0  0  0  0  0  0  0  0  0  0
    0.4884   -0.5494    6.3428 C   0  0  0  0  0  0  0  0  0  0  0  0
    1.4183   -0.8333    5.1759 C   0  0  0  0  0  0  0  0  0  0  0  0
    1.6293    0.4594    4.4294 C   0  0  0  0  0  0  0  0  0  0  0  0
    0.8899    0.7105    3.4779 O   0  0  0  0  0  0  0  0  0  0  0  0
    2.7897    1.3918    4.8448 C   0  0  2  0  0  0  0  0  0  0  0  0
    3.9611    0.6949    4.0526 C   0  0  0  0  0  0  0  0  0  0  0  0
    2.5684    2.9438    4.3870 C   0  0  2  0  0  0  0  0  0  0  0  0
    2.5455    2.9753    2.8129 C   0  0  0  0  0  0  0  0  0  0  0  0
    1.6058    4.2492    6.3267 O   0  0  0  0  0  0  0  0  0  0  0  0
    2.1243    5.6631    6.3984 O   0  0  0  0  0  0  0  0  0  0  0  0
    3.5510    5.8329    5.9847 O   0  0  0  0  0  0  0  0  0  0  0  0
    2.7976    5.0340    9.5956 H   0  0  0  0  0  0  0  0  0  0  0  0
    3.5077    3.6796    8.5779 H   0  0  0  0  0  0  0  0  0  0  0  0
   -0.2966    3.6105   10.2848 H   0  0  0  0  0  0  0  0  0  0  0  0
    0.8676    4.7756   10.8943 H   0  0  0  0  0  0  0  0  0  0  0  0
    0.7659    3.1723   11.6144 H   0  0  0  0  0  0  0  0  0  0  0  0
    1.2259    1.2338   10.1949 H   0  0  0  0  0  0  0  0  0  0  0  0
    3.8247    1.5939    9.0291 H   0  0  0  0  0  0  0  0  0  0  0  0
    3.1233    0.1859    9.6266 H   0  0  0  0  0  0  0  0  0  0  0  0
    3.3213   -0.5447    7.3899 H   0  0  0  0  0  0  0  0  0  0  0  0
    2.7620    2.3231    6.7697 H   0  0  0  0  0  0  0  0  0  0  0  0
    4.9801    2.1650    7.4519 H   0  0  0  0  0  0  0  0  0  0  0  0
    5.4066    1.2394    6.0728 H   0  0  0  0  0  0  0  0  0  0  0  0
    5.5243    3.9472    6.0507 H   0  0  0  0  0  0  0  0  0  0  0  0
    4.6330    5.6678    4.2822 H   0  0  0  0  0  0  0  0  0  0  0  0
    2.4067    6.8698    3.9381 H   0  0  0  0  0  0  0  0  0  0  0  0
    2.7286    5.6549    2.7703 H   0  0  0  0  0  0  0  0  0  0  0  0
    0.0972    6.4263    5.3831 H   0  0  0  0  0  0  0  0  0  0  0  0
   -0.8575    5.5589    4.1557 H   0  0  0  0  0  0  0  0  0  0  0  0
    0.1640    6.8900    3.6923 H   0  0  0  0  0  0  0  0  0  0  0  0
   -0.4842    3.0099    4.0915 H   0  0  0  0  0  0  0  0  0  0  0  0
    0.0810    2.0890    5.4189 H   0  0  0  0  0  0  0  0  0  0  0  0
   -1.3494    4.5990    6.0311 H   0  0  0  0  0  0  0  0  0  0  0  0
   -2.5512    1.8519    5.6003 H   0  0  0  0  0  0  0  0  0  0  0  0
   -2.7760    3.2532    4.5626 H   0  0  0  0  0  0  0  0  0  0  0  0
   -3.4056    3.2699    6.2008 H   0  0  0  0  0  0  0  0  0  0  0  0
   -0.3485    3.9171    8.0376 H   0  0  0  0  0  0  0  0  0  0  0  0
   -2.0232    3.5632    8.1002 H   0  0  0  0  0  0  0  0  0  0  0  0
   -1.1584    1.6998    9.2017 H   0  0  0  0  0  0  0  0  0  0  0  0
   -1.4415    1.0743    7.6163 H   0  0  0  0  0  0  0  0  0  0  0  0
    0.9460    2.1025    7.3377 H   0  0  0  0  0  0  0  0  0  0  0  0
   -0.1657   -1.2508    8.8077 H   0  0  0  0  0  0  0  0  0  0  0  0
    1.2797   -0.8967    9.6847 H   0  0  0  0  0  0  0  0  0  0  0  0
    1.3426   -2.0406    8.3783 H   0  0  0  0  0  0  0  0  0  0  0  0
   -0.0088   -1.4966    6.5538 H   0  0  0  0  0  0  0  0  0  0  0  0
   -0.3379    0.0784    6.0204 H   0  0  0  0  0  0  0  0  0  0  0  0
    2.3600   -1.2862    5.4819 H   0  0  0  0  0  0  0  0  0  0  0  0
    0.9417   -1.5363    4.4928 H   0  0  0  0  0  0  0  0  0  0  0  0
    4.8071    1.3498    3.8559 H   0  0  0  0  0  0  0  0  0  0  0  0
    3.6816    0.3012    3.0715 H   0  0  0  0  0  0  0  0  0  0  0  0
    4.3512   -0.1716    4.5938 H   0  0  0  0  0  0  0  0  0  0  0  0
    2.7364    2.0270    2.3219 H   0  0  0  0  0  0  0  0  0  0  0  0
    3.3145    3.6309    2.3997 H   0  0  0  0  0  0  0  0  0  0  0  0
    1.5860    3.2791    2.3981 H   0  0  0  0  0  0  0  0  0  0  0  0
    0.9679    4.7050    3.1932 H   0  0  0  0  0  0  0  0  0  0  0  0
  1  2  2  0
  1 35  1  0
  1 36  1  0
  2  3  1  0
  2  4  1  0
  3 37  1  0
  3 38  1  0
  3 39  1  0
  4 21  1  0
  4  5  1  0
  4 40  1  1
  5  6  1  0
  5 41  1  0
  5 42  1  0
  6 22  1  0
  6  7  1  0
  6 43  1  1
  7 28  1  0
  7  8  1  0
  7 44  1  1
  8  9  1  0
  8 45  1  0
  8 46  1  0
  9 10  2  0
  9 47  1  0
 10 30  1  0
 10 11  1  0
 11 34  1  0
 11 12  1  0
 11 48  1  6
 12 13  1  0
 12 49  1  0
 12 50  1  0
 13 14  1  0
 13 15  1  0
 13 78  1  6
 14 51  1  0
 14 52  1  0
 14 53  1  0
 15 30  1  0
 15 16  1  1
 15 32  1  0
 16 17  1  0
 16 54  1  0
 16 55  1  0
 17 18  1  0
 17 19  1  0
 17 56  1  1
 18 57  1  0
 18 58  1  0
 18 59  1  0
 19 20  1  0
 19 60  1  0
 19 61  1  0
 20 21  1  0
 20 62  1  0
 20 63  1  0
 21 22  1  0
 21 64  1  6
 22 23  1  1
 22 24  1  0
 23 65  1  0
 23 66  1  0
 23 67  1  0
 24 25  1  0
 24 68  1  0
 24 69  1  0
 25 26  1  0
 25 70  1  0
 25 71  1  0
 26 27  2  0
 26 28  1  0
 28 29  1  6
 28 30  1  0
 29 72  1  0
 29 73  1  0
 29 74  1  0
 30 31  1  6
 31 75  1  0
 31 76  1  0
 31 77  1  0
 32 33  1  0
 33 34  1  0
M  CHG  1  13   1
M  END
>  <i_m_ct_stereo_status>  (383) 
1

>  <s_m_source_file>  (383) 
/var/tmp/pbs.5076255.sched01/tmpzqmxgpmu/1265eqpa8lp.sdf

>  <i_m_source_file_index>  (383) 
37

>  <i_lp_mmshare_version>  (383) 
48012

>  <i_f3d_flags>  (383) 
0

>  <s_epik_input>  (383) 
W0NIMl0xW0NAQEhdKFtDSDNdKVtDSDJdW0NIMl1bQ0BASF0oW0NAQEhdKFtDSDJdMilDKD1bQ0gyXSlbQ0gzXSlDKFtDSDNdKShbQ0gyXVtDSDJdQyg9TylbQ0BdMzRbQ0gzXSlbQ0BIXTJbQ0BIXTNbQ0gyXVtDSF09QyhbQ0BAXTQoW0NAXTE1NilbQ0gzXSlbQ0BIXShPT082KVtDSDJdTjVbQ0gzXQ==

>  <s_epik_cmdline>  (383) 
J2VwaWtfcHl0aG9uJywgJy1waHQnLCAnMi4wJywgJy1waCcsICc3LjAnLCAnLXRuJywgJzgnLCAnLW1hJywgJzIwMCcsICctaW1hZScsICc8aW5maWxlLm1hZT4nLCAnLW9tYWUnLCAnPG91dGZpbGUubWFlPic=

>  <r_lp_tautomer_probability>  (383) 
0.99995

>  <r_epik_Ionization_Penalty>  (383) 
0.605974

>  <r_epik_Ionization_Penalty_Charging>  (383) 
0.605974

>  <r_epik_Ionization_Penalty_Neutral>  (383) 
1.48832e-12

>  <r_epik_State_Penalty>  (383) 
0.620765

>  <r_epik_Charging_Adjusted_Penalty>  (383) 
1.22674

>  <i_epik_Tot_Q>  (383) 
1

>  <i_epik_Tot_abs_Q>  (383) 
1

>  <s_lp_Force_Field>  (383) 
OPLS3e

>  <r_lp_Energy>  (383) 
145.097

>  <b_lp_Chiralities_Consistent>  (383) 
1

>  <s_lp_Variant>  (383) 
114:0-3

>  <s_i_glide_gridfile>  (383) 
pfpi4k_grid

>  <i_i_glide_lignum>  (383) 
37

>  <i_i_glide_rotatable_bonds>  (383) 
1

>  <r_i_docking_score>  (383) 
-1.13625

>  <r_i_glide_ligand_efficiency>  (383) 
-0.0334193

>  <r_i_glide_ligand_efficiency_sa>  (383) 
-0.108265

>  <r_i_glide_ligand_efficiency_ln>  (383) 
-0.251031

>  <r_i_glide_gscore>  (383) 
-1.13625

>  <r_i_glide_lipo>  (383) 
-0.0329101

>  <r_i_glide_hbond>  (383) 
0

>  <r_i_glide_metal>  (383) 
-0

>  <r_i_glide_rewards>  (383) 
-0.200018

>  <r_i_glide_evdw>  (383) 
-16.0744

>  <r_i_glide_ecoul>  (383) 
-0.898377

>  <r_i_glide_erotb>  (383) 
0.0912168

>  <r_i_glide_esite>  (383) 
-0.0560655

>  <r_i_glide_emodel>  (383) 
-18.1427

>  <r_i_glide_energy>  (383) 
-16.9728

>  <r_i_glide_einternal>  (383) 
0.717804

>  <r_i_glide_intrahb_reward>  (383) 
-0

>  <i_i_glide_confnum>  (383) 
6

>  <i_i_glide_posenum>  (383) 
35

>  <r_i_glide_eff_state_penalty>  (383) 
0

>  <ligand_id>  (383) 
114

>  <original_smiles>  (383) 
C=C(C)C1CC2C3CC=C4C5CN(C)C6(CC(C)CCC1C2(C)CCC(=O)C3(C)C46C)OOO5

>  <smiles>  (383) 
[H]C([H])=C(C([H])([H])[H])C1([H])C([H])([H])C2([H])C3([H])C([H])([H])C([H])=C4C5([H])OOOC6(C([H])([H])C([H])(C([H])([H])[H])C([H])([H])C([H])([H])C1([H])C2(C([H])([H])[H])C([H])([H])C([H])([H])C(=O)C3(C([H])([H])[H])C46C([H])([H])[H])[N+]([H])(C([H])([H])[H])C5([H])[H]

$$$$
114:3:0
     RDKit          3D

 78 83  0  0  1  0  0  0  0  0999 V2000
   -0.2807   -9.2249    3.6086 C   0  0  0  0  0  0  0  0  0  0  0  0
    1.0532   -9.1063    3.4355 C   0  0  0  0  0  0  0  0  0  0  0  0
    1.8570  -10.3861    3.3426 C   0  0  0  0  0  0  0  0  0  0  0  0
    1.7562   -7.7346    3.2891 C   0  0  2  0  0  0  0  0  0  0  0  0
    2.2973   -7.4560    1.8514 C   0  0  0  0  0  0  0  0  0  0  0  0
    3.6057   -6.7172    2.1887 C   0  0  2  0  0  0  0  0  0  0  0  0
    4.5697   -6.0145    1.2669 C   0  0  1  0  0  0  0  0  0  0  0  0
    4.3938   -5.8355   -0.2815 C   0  0  0  0  0  0  0  0  0  0  0  0
    4.7982   -4.4468   -0.7905 C   0  0  0  0  0  0  0  0  0  0  0  0
    4.7179   -3.3616    0.0012 C   0  0  0  0  0  0  0  0  0  0  0  0
    5.1353   -1.9714   -0.3777 C   0  0  1  0  0  0  0  0  0  0  0  0
    3.9523   -1.0095   -0.1800 C   0  0  0  0  0  0  0  0  0  0  0  0
    3.2837   -1.0890    1.1704 N   0  0  2  0  0  0  0  0  0  0  0  0
    2.9688    0.2840    1.6904 C   0  0  0  0  0  0  0  0  0  0  0  0
    3.8284   -2.1240    2.1602 C   0  0  1  0  0  0  0  0  0  0  0  0
    2.7691   -2.1918    3.4260 C   0  0  0  0  0  0  0  0  0  0  0  0
    2.5774   -3.2385    4.6539 C   0  0  1  0  0  0  0  0  0  0  0  0
    1.7173   -2.5241    5.7176 C   0  0  0  0  0  0  0  0  0  0  0  0
    1.9437   -4.7066    4.4490 C   0  0  0  0  0  0  0  0  0  0  0  0
    2.6070   -6.0284    5.1064 C   0  0  0  0  0  0  0  0  0  0  0  0
    2.9549   -7.3800    4.2796 C   0  0  2  0  0  0  0  0  0  0  0  0
    4.2668   -7.4824    3.3505 C   0  0  1  0  0  0  0  0  0  0  0  0
    4.5934   -8.9550    2.9348 C   0  0  0  0  0  0  0  0  0  0  0  0
    5.7327   -6.9952    3.8604 C   0  0  0  0  0  0  0  0  0  0  0  0
    6.8412   -6.3582    2.8518 C   0  0  0  0  0  0  0  0  0  0  0  0
    6.5069   -5.0470    1.9991 C   0  0  0  0  0  0  0  0  0  0  0  0
    7.3552   -4.4101    1.3783 O   0  0  0  0  0  0  0  0  0  0  0  0
    5.0106   -4.6712    2.0364 C   0  0  2  0  0  0  0  0  0  0  0  0
    5.0829   -4.3472    3.5652 C   0  0  0  0  0  0  0  0  0  0  0  0
    4.0992   -3.4999    1.3725 C   0  0  2  0  0  0  0  0  0  0  0  0
    2.5957   -3.8623    1.0117 C   0  0  0  0  0  0  0  0  0  0  0  0
    5.0767   -1.5596    2.6046 O   0  0  0  0  0  0  0  0  0  0  0  0
    5.7660   -0.7668    1.5517 O   0  0  0  0  0  0  0  0  0  0  0  0
    6.2405   -1.6090    0.4337 O   0  0  0  0  0  0  0  0  0  0  0  0
   -0.6955  -10.2212    3.6717 H   0  0  0  0  0  0  0  0  0  0  0  0
   -0.9547   -8.3912    3.6805 H   0  0  0  0  0  0  0  0  0  0  0  0
    2.2728  -10.4666    2.3443 H   0  0  0  0  0  0  0  0  0  0  0  0
    1.2696  -11.2926    3.5429 H   0  0  0  0  0  0  0  0  0  0  0  0
    2.6616  -10.3611    4.0745 H   0  0  0  0  0  0  0  0  0  0  0  0
    0.9584   -7.0112    3.4622 H   0  0  0  0  0  0  0  0  0  0  0  0
    2.4620   -8.3572    1.2681 H   0  0  0  0  0  0  0  0  0  0  0  0
    1.5992   -6.8531    1.2723 H   0  0  0  0  0  0  0  0  0  0  0  0
    3.1468   -5.8343    2.5769 H   0  0  0  0  0  0  0  0  0  0  0  0
    5.2864   -6.8280    1.1575 H   0  0  0  0  0  0  0  0  0  0  0  0
    5.0192   -6.5481   -0.8152 H   0  0  0  0  0  0  0  0  0  0  0  0
    3.3926   -6.0893   -0.5941 H   0  0  0  0  0  0  0  0  0  0  0  0
    5.1704   -4.3740   -1.8014 H   0  0  0  0  0  0  0  0  0  0  0  0
    5.4512   -1.9504   -1.4214 H   0  0  0  0  0  0  0  0  0  0  0  0
    4.2534    0.0173   -0.4051 H   0  0  0  0  0  0  0  0  0  0  0  0
    3.1885   -1.2406   -0.9060 H   0  0  0  0  0  0  0  0  0  0  0  0
    3.8795    0.8110    1.9836 H   0  0  0  0  0  0  0  0  0  0  0  0
    2.2766    0.2760    2.5280 H   0  0  0  0  0  0  0  0  0  0  0  0
    2.4863    0.8719    0.9074 H   0  0  0  0  0  0  0  0  0  0  0  0
    2.9728   -1.2503    3.9367 H   0  0  0  0  0  0  0  0  0  0  0  0
    1.7646   -2.0280    3.0200 H   0  0  0  0  0  0  0  0  0  0  0  0
    3.5050   -3.3220    5.2177 H   0  0  0  0  0  0  0  0  0  0  0  0
    0.7199   -2.2976    5.3438 H   0  0  0  0  0  0  0  0  0  0  0  0
    2.1681   -1.5866    6.0431 H   0  0  0  0  0  0  0  0  0  0  0  0
    1.6065   -3.1382    6.6076 H   0  0  0  0  0  0  0  0  0  0  0  0
    0.9502   -4.6663    4.8910 H   0  0  0  0  0  0  0  0  0  0  0  0
    1.6442   -4.8668    3.4276 H   0  0  0  0  0  0  0  0  0  0  0  0
    3.4639   -5.7562    5.7265 H   0  0  0  0  0  0  0  0  0  0  0  0
    1.8911   -6.3434    5.8665 H   0  0  0  0  0  0  0  0  0  0  0  0
    3.0326   -8.1639    5.0304 H   0  0  0  0  0  0  0  0  0  0  0  0
    4.8763   -9.5235    3.8352 H   0  0  0  0  0  0  0  0  0  0  0  0
    5.4724   -8.9745    2.2699 H   0  0  0  0  0  0  0  0  0  0  0  0
    3.8287   -9.4190    2.3962 H   0  0  0  0  0  0  0  0  0  0  0  0
    5.6383   -6.4552    4.8012 H   0  0  0  0  0  0  0  0  0  0  0  0
    6.2515   -7.8659    4.2567 H   0  0  0  0  0  0  0  0  0  0  0  0
    7.7315   -6.1393    3.4432 H   0  0  0  0  0  0  0  0  0  0  0  0
    7.1687   -7.1254    2.1472 H   0  0  0  0  0  0  0  0  0  0  0  0
    4.3387   -4.8731    4.0748 H   0  0  0  0  0  0  0  0  0  0  0  0
    5.0457   -3.3266    3.8551 H   0  0  0  0  0  0  0  0  0  0  0  0
    5.9812   -4.5232    4.1580 H   0  0  0  0  0  0  0  0  0  0  0  0
    1.8675   -3.7155    1.7868 H   0  0  0  0  0  0  0  0  0  0  0  0
    2.3846   -4.8636    0.6905 H   0  0  0  0  0  0  0  0  0  0  0  0
    2.2299   -3.2560    0.1843 H   0  0  0  0  0  0  0  0  0  0  0  0
    2.3644   -1.4514    0.9296 H   0  0  0  0  0  0  0  0  0  0  0  0
  1  2  2  0
  1 35  1  0
  1 36  1  0
  2  3  1  0
  2  4  1  0
  3 37  1  0
  3 38  1  0
  3 39  1  0
  4 21  1  0
  4  5  1  0
  4 40  1  1
  5  6  1  0
  5 41  1  0
  5 42  1  0
  6 22  1  0
  6  7  1  0
  6 43  1  1
  7 28  1  0
  7  8  1  0
  7 44  1  6
  8  9  1  0
  8 45  1  0
  8 46  1  0
  9 10  2  0
  9 47  1  0
 10 30  1  0
 10 11  1  0
 11 34  1  0
 11 12  1  0
 11 48  1  6
 12 13  1  0
 12 49  1  0
 12 50  1  0
 13 14  1  0
 13 15  1  0
 13 78  1  6
 14 51  1  0
 14 52  1  0
 14 53  1  0
 15 30  1  0
 15 16  1  1
 15 32  1  0
 16 17  1  0
 16 54  1  0
 16 55  1  0
 17 18  1  0
 17 19  1  0
 17 56  1  1
 18 57  1  0
 18 58  1  0
 18 59  1  0
 19 20  1  0
 19 60  1  0
 19 61  1  0
 20 21  1  0
 20 62  1  0
 20 63  1  0
 21 22  1  0
 21 64  1  1
 22 23  1  6
 22 24  1  0
 23 65  1  0
 23 66  1  0
 23 67  1  0
 24 25  1  0
 24 68  1  0
 24 69  1  0
 25 26  1  0
 25 70  1  0
 25 71  1  0
 26 27  2  0
 26 28  1  0
 28 29  1  1
 28 30  1  0
 29 72  1  0
 29 73  1  0
 29 74  1  0
 30 31  1  6
 31 75  1  0
 31 76  1  0
 31 77  1  0
 32 33  1  0
 33 34  1  0
M  CHG  1  13   1
M  END
>  <i_m_ct_stereo_status>  (384) 
1

>  <s_m_source_file>  (384) 
/var/tmp/pbs.5076255.sched01/tmpzqmxgpmu/1265eqpa8lp.sdf

>  <i_m_source_file_index>  (384) 
38

>  <i_lp_mmshare_version>  (384) 
48012

>  <i_f3d_flags>  (384) 
0

>  <s_epik_input>  (384) 
W0NIMl0xW0NAQEhdKFtDSDNdKVtDSDJdW0NIMl1bQ0BASF0oW0NAQEhdKFtDSDJdMilDKD1bQ0gyXSlbQ0gzXSlDKFtDSDNdKShbQ0gyXVtDSDJdQyg9TylbQ0BdMzRbQ0gzXSlbQ0BIXTJbQ0BIXTNbQ0gyXVtDSF09QyhbQ0BAXTQoW0NAXTE1NilbQ0gzXSlbQ0BIXShPT082KVtDSDJdTjVbQ0gzXQ==

>  <s_epik_cmdline>  (384) 
J2VwaWtfcHl0aG9uJywgJy1waHQnLCAnMi4wJywgJy1waCcsICc3LjAnLCAnLXRuJywgJzgnLCAnLW1hJywgJzIwMCcsICctaW1hZScsICc8aW5maWxlLm1hZT4nLCAnLW9tYWUnLCAnPG91dGZpbGUubWFlPic=

>  <r_lp_tautomer_probability>  (384) 
0.99995

>  <r_epik_Ionization_Penalty>  (384) 
0.605974

>  <r_epik_Ionization_Penalty_Charging>  (384) 
0.605974

>  <r_epik_Ionization_Penalty_Neutral>  (384) 
1.48832e-12

>  <r_epik_State_Penalty>  (384) 
0.620765

>  <r_epik_Charging_Adjusted_Penalty>  (384) 
1.22674

>  <i_epik_Tot_Q>  (384) 
1

>  <i_epik_Tot_abs_Q>  (384) 
1

>  <s_lp_Force_Field>  (384) 
OPLS3e

>  <r_lp_Energy>  (384) 
250.388

>  <b_lp_Chiralities_Consistent>  (384) 
1

>  <s_lp_Variant>  (384) 
114:0-4

>  <s_i_glide_gridfile>  (384) 
pfpi4k_grid

>  <i_i_glide_lignum>  (384) 
38

>  <i_i_glide_rotatable_bonds>  (384) 
1

>  <r_i_docking_score>  (384) 
-2.23533

>  <r_i_glide_ligand_efficiency>  (384) 
-0.0657451

>  <r_i_glide_ligand_efficiency_sa>  (384) 
-0.212989

>  <r_i_glide_ligand_efficiency_ln>  (384) 
-0.493848

>  <r_i_glide_gscore>  (384) 
-2.23533

>  <r_i_glide_lipo>  (384) 
-0.286616

>  <r_i_glide_hbond>  (384) 
-0.00370401

>  <r_i_glide_metal>  (384) 
-0

>  <r_i_glide_rewards>  (384) 
-0.269952

>  <r_i_glide_evdw>  (384) 
-20.6169

>  <r_i_glide_ecoul>  (384) 
-4.62374

>  <r_i_glide_erotb>  (384) 
0.0912168

>  <r_i_glide_esite>  (384) 
-0.0418756

>  <r_i_glide_emodel>  (384) 
-27.876

>  <r_i_glide_energy>  (384) 
-25.2406

>  <r_i_glide_einternal>  (384) 
1.4737

>  <r_i_glide_intrahb_reward>  (384) 
-0

>  <i_i_glide_confnum>  (384) 
3

>  <i_i_glide_posenum>  (384) 
5

>  <r_i_glide_eff_state_penalty>  (384) 
0

>  <ligand_id>  (384) 
114

>  <original_smiles>  (384) 
C=C(C)C1CC2C3CC=C4C5CN(C)C6(CC(C)CCC1C2(C)CCC(=O)C3(C)C46C)OOO5

>  <smiles>  (384) 
[H]C([H])=C(C([H])([H])[H])C1([H])C([H])([H])C2([H])C3([H])C([H])([H])C([H])=C4C5([H])OOOC6(C([H])([H])C([H])(C([H])([H])[H])C([H])([H])C([H])([H])C1([H])C2(C([H])([H])[H])C([H])([H])C([H])([H])C(=O)C3(C([H])([H])[H])C46C([H])([H])[H])[N+]([H])(C([H])([H])[H])C5([H])[H]

$$$$
114:3:1
     RDKit          3D

 78 83  0  0  1  0  0  0  0  0999 V2000
    0.6336   -9.7551    3.2146 C   0  0  0  0  0  0  0  0  0  0  0  0
    1.0429   -8.8714    4.1394 C   0  0  0  0  0  0  0  0  0  0  0  0
    0.7293   -9.1264    5.6064 C   0  0  0  0  0  0  0  0  0  0  0  0
    1.7764   -7.5535    3.8234 C   0  0  2  0  0  0  0  0  0  0  0  0
    2.1951   -7.3633    2.3262 C   0  0  0  0  0  0  0  0  0  0  0  0
    3.5436   -6.6856    2.5163 C   0  0  2  0  0  0  0  0  0  0  0  0
    4.4564   -6.0954    1.4748 C   0  0  1  0  0  0  0  0  0  0  0  0
    4.1433   -5.9979   -0.0634 C   0  0  0  0  0  0  0  0  0  0  0  0
    4.5668   -4.6561   -0.6751 C   0  0  0  0  0  0  0  0  0  0  0  0
    4.6061   -3.5239    0.0518 C   0  0  0  0  0  0  0  0  0  0  0  0
    5.0469   -2.1757   -0.4360 C   0  0  1  0  0  0  0  0  0  0  0  0
    3.9334   -1.1456   -0.1839 C   0  0  0  0  0  0  0  0  0  0  0  0
    3.3811   -1.1242    1.2110 N   0  0  2  0  0  0  0  0  0  0  0  0
    3.1933    0.2785    1.6851 C   0  0  0  0  0  0  0  0  0  0  0  0
    3.9814   -2.1170    2.2013 C   0  0  1  0  0  0  0  0  0  0  0  0
    3.0401   -2.0784    3.5634 C   0  0  0  0  0  0  0  0  0  0  0  0
    2.9207   -3.0493    4.8659 C   0  0  1  0  0  0  0  0  0  0  0  0
    2.1934   -2.2370    5.9550 C   0  0  0  0  0  0  0  0  0  0  0  0
    2.2034   -4.4885    4.8023 C   0  0  0  0  0  0  0  0  0  0  0  0
    2.8699   -5.8081    5.4674 C   0  0  0  0  0  0  0  0  0  0  0  0
    3.0682   -7.2112    4.6880 C   0  0  2  0  0  0  0  0  0  0  0  0
    4.2680   -7.4301    3.6545 C   0  0  1  0  0  0  0  0  0  0  0  0
    4.4204   -8.9559    3.3487 C   0  0  0  0  0  0  0  0  0  0  0  0
    5.7950   -7.0221    3.9847 C   0  0  0  0  0  0  0  0  0  0  0  0
    6.8439   -6.4711    2.8641 C   0  0  0  0  0  0  0  0  0  0  0  0
    6.5015   -5.1808    1.9769 C   0  0  0  0  0  0  0  0  0  0  0  0
    7.3211   -4.6080    1.2703 O   0  0  0  0  0  0  0  0  0  0  0  0
    5.0301   -4.7409    2.1283 C   0  0  2  0  0  0  0  0  0  0  0  0
    5.2603   -4.3398    3.6242 C   0  0  0  0  0  0  0  0  0  0  0  0
    4.1167   -3.5578    1.4734 C   0  0  2  0  0  0  0  0  0  0  0  0
    2.5718   -3.8655    1.2802 C   0  0  0  0  0  0  0  0  0  0  0  0
    5.2864   -1.5971    2.5227 O   0  0  0  0  0  0  0  0  0  0  0  0
    5.9175   -0.9098    1.3523 O   0  0  0  0  0  0  0  0  0  0  0  0
    6.2455   -1.8139    0.2312 O   0  0  0  0  0  0  0  0  0  0  0  0
    0.1080  -10.6551    3.5075 H   0  0  0  0  0  0  0  0  0  0  0  0
    0.7893   -9.6295    2.1516 H   0  0  0  0  0  0  0  0  0  0  0  0
    1.6295   -9.1867    6.2158 H   0  0  0  0  0  0  0  0  0  0  0  0
    0.2039  -10.0751    5.7331 H   0  0  0  0  0  0  0  0  0  0  0  0
    0.0888   -8.3371    5.9995 H   0  0  0  0  0  0  0  0  0  0  0  0
    1.0185   -6.8071    4.0460 H   0  0  0  0  0  0  0  0  0  0  0  0
    2.3386   -8.2758    1.7523 H   0  0  0  0  0  0  0  0  0  0  0  0
    1.4673   -6.7594    1.7850 H   0  0  0  0  0  0  0  0  0  0  0  0
    3.1834   -5.7651    2.9097 H   0  0  0  0  0  0  0  0  0  0  0  0
    5.1268   -6.9476    1.3506 H   0  0  0  0  0  0  0  0  0  0  0  0
    4.6905   -6.7621   -0.6111 H   0  0  0  0  0  0  0  0  0  0  0  0
    3.1024   -6.2083   -0.3042 H   0  0  0  0  0  0  0  0  0  0  0  0
    4.8479   -4.6554   -1.7207 H   0  0  0  0  0  0  0  0  0  0  0  0
    5.2639   -2.2331   -1.5109 H   0  0  0  0  0  0  0  0  0  0  0  0
    4.2678   -0.1530   -0.5041 H   0  0  0  0  0  0  0  0  0  0  0  0
    3.0864   -1.3824   -0.8394 H   0  0  0  0  0  0  0  0  0  0  0  0
    4.1429    0.7767    1.8680 H   0  0  0  0  0  0  0  0  0  0  0  0
    2.5747    0.3558    2.5854 H   0  0  0  0  0  0  0  0  0  0  0  0
    2.6608    0.8550    0.9159 H   0  0  0  0  0  0  0  0  0  0  0  0
    3.3345   -1.1258    4.0052 H   0  0  0  0  0  0  0  0  0  0  0  0
    2.0140   -1.8871    3.2504 H   0  0  0  0  0  0  0  0  0  0  0  0
    3.8851   -3.1477    5.3467 H   0  0  0  0  0  0  0  0  0  0  0  0
    1.1741   -1.9804    5.6627 H   0  0  0  0  0  0  0  0  0  0  0  0
    2.7139   -1.3054    6.1891 H   0  0  0  0  0  0  0  0  0  0  0  0
    2.1358   -2.7993    6.8936 H   0  0  0  0  0  0  0  0  0  0  0  0
    1.2574   -4.3781    5.3355 H   0  0  0  0  0  0  0  0  0  0  0  0
    1.7962   -4.6890    3.8261 H   0  0  0  0  0  0  0  0  0  0  0  0
    3.7863   -5.5467    5.9960 H   0  0  0  0  0  0  0  0  0  0  0  0
    2.2103   -6.0497    6.3025 H   0  0  0  0  0  0  0  0  0  0  0  0
    3.2236   -7.9513    5.4684 H   0  0  0  0  0  0  0  0  0  0  0  0
    4.8083   -9.4926    4.2182 H   0  0  0  0  0  0  0  0  0  0  0  0
    5.1221   -9.1279    2.5310 H   0  0  0  0  0  0  0  0  0  0  0  0
    3.5075   -9.4808    3.0918 H   0  0  0  0  0  0  0  0  0  0  0  0
    5.8132   -6.4275    4.8959 H   0  0  0  0  0  0  0  0  0  0  0  0
    6.2955   -7.9036    4.3832 H   0  0  0  0  0  0  0  0  0  0  0  0
    7.7904   -6.2603    3.3670 H   0  0  0  0  0  0  0  0  0  0  0  0
    7.0795   -7.2829    2.1757 H   0  0  0  0  0  0  0  0  0  0  0  0
    4.5487   -4.7990    4.2302 H   0  0  0  0  0  0  0  0  0  0  0  0
    5.2922   -3.3010    3.8571 H   0  0  0  0  0  0  0  0  0  0  0  0
    6.2047   -4.5268    4.1450 H   0  0  0  0  0  0  0  0  0  0  0  0
    1.9209   -3.6391    2.1064 H   0  0  0  0  0  0  0  0  0  0  0  0
    2.2865   -4.8684    1.0343 H   0  0  0  0  0  0  0  0  0  0  0  0
    2.1648   -3.2776    0.4551 H   0  0  0  0  0  0  0  0  0  0  0  0
    2.4405   -1.4563    1.0762 H   0  0  0  0  0  0  0  0  0  0  0  0
  1  2  2  0
  1 35  1  0
  1 36  1  0
  2  3  1  0
  2  4  1  0
  3 37  1  0
  3 38  1  0
  3 39  1  0
  4 21  1  0
  4  5  1  0
  4 40  1  1
  5  6  1  0
  5 41  1  0
  5 42  1  0
  6 22  1  0
  6  7  1  0
  6 43  1  1
  7 28  1  0
  7  8  1  0
  7 44  1  6
  8  9  1  0
  8 45  1  0
  8 46  1  0
  9 10  2  0
  9 47  1  0
 10 30  1  0
 10 11  1  0
 11 34  1  0
 11 12  1  0
 11 48  1  6
 12 13  1  0
 12 49  1  0
 12 50  1  0
 13 14  1  0
 13 15  1  0
 13 78  1  6
 14 51  1  0
 14 52  1  0
 14 53  1  0
 15 30  1  0
 15 16  1  1
 15 32  1  0
 16 17  1  0
 16 54  1  0
 16 55  1  0
 17 18  1  0
 17 19  1  0
 17 56  1  1
 18 57  1  0
 18 58  1  0
 18 59  1  0
 19 20  1  0
 19 60  1  0
 19 61  1  0
 20 21  1  0
 20 62  1  0
 20 63  1  0
 21 22  1  0
 21 64  1  1
 22 23  1  6
 22 24  1  0
 23 65  1  0
 23 66  1  0
 23 67  1  0
 24 25  1  0
 24 68  1  0
 24 69  1  0
 25 26  1  0
 25 70  1  0
 25 71  1  0
 26 27  2  0
 26 28  1  0
 28 29  1  1
 28 30  1  0
 29 72  1  0
 29 73  1  0
 29 74  1  0
 30 31  1  6
 31 75  1  0
 31 76  1  0
 31 77  1  0
 32 33  1  0
 33 34  1  0
M  CHG  1  13   1
M  END
>  <i_m_ct_stereo_status>  (385) 
1

>  <s_m_source_file>  (385) 
/var/tmp/pbs.5076255.sched01/tmpzqmxgpmu/1265eqpa8lp.sdf

>  <i_m_source_file_index>  (385) 
38

>  <i_lp_mmshare_version>  (385) 
48012

>  <i_f3d_flags>  (385) 
0

>  <s_epik_input>  (385) 
W0NIMl0xW0NAQEhdKFtDSDNdKVtDSDJdW0NIMl1bQ0BASF0oW0NAQEhdKFtDSDJdMilDKD1bQ0gyXSlbQ0gzXSlDKFtDSDNdKShbQ0gyXVtDSDJdQyg9TylbQ0BdMzRbQ0gzXSlbQ0BIXTJbQ0BIXTNbQ0gyXVtDSF09QyhbQ0BAXTQoW0NAXTE1NilbQ0gzXSlbQ0BIXShPT082KVtDSDJdTjVbQ0gzXQ==

>  <s_epik_cmdline>  (385) 
J2VwaWtfcHl0aG9uJywgJy1waHQnLCAnMi4wJywgJy1waCcsICc3LjAnLCAnLXRuJywgJzgnLCAnLW1hJywgJzIwMCcsICctaW1hZScsICc8aW5maWxlLm1hZT4nLCAnLW9tYWUnLCAnPG91dGZpbGUubWFlPic=

>  <r_lp_tautomer_probability>  (385) 
0.99995

>  <r_epik_Ionization_Penalty>  (385) 
0.605974

>  <r_epik_Ionization_Penalty_Charging>  (385) 
0.605974

>  <r_epik_Ionization_Penalty_Neutral>  (385) 
1.48832e-12

>  <r_epik_State_Penalty>  (385) 
0.620765

>  <r_epik_Charging_Adjusted_Penalty>  (385) 
1.22674

>  <i_epik_Tot_Q>  (385) 
1

>  <i_epik_Tot_abs_Q>  (385) 
1

>  <s_lp_Force_Field>  (385) 
OPLS3e

>  <r_lp_Energy>  (385) 
250.388

>  <b_lp_Chiralities_Consistent>  (385) 
1

>  <s_lp_Variant>  (385) 
114:0-4

>  <s_i_glide_gridfile>  (385) 
pfpi4k_grid

>  <i_i_glide_lignum>  (385) 
38

>  <i_i_glide_rotatable_bonds>  (385) 
1

>  <r_i_docking_score>  (385) 
-2.23406

>  <r_i_glide_ligand_efficiency>  (385) 
-0.0657076

>  <r_i_glide_ligand_efficiency_sa>  (385) 
-0.212867

>  <r_i_glide_ligand_efficiency_ln>  (385) 
-0.493566

>  <r_i_glide_gscore>  (385) 
-2.23406

>  <r_i_glide_lipo>  (385) 
-0.211244

>  <r_i_glide_hbond>  (385) 
0

>  <r_i_glide_metal>  (385) 
-0

>  <r_i_glide_rewards>  (385) 
-0.273591

>  <r_i_glide_evdw>  (385) 
-21.6707

>  <r_i_glide_ecoul>  (385) 
-4.81539

>  <r_i_glide_erotb>  (385) 
0.0912168

>  <r_i_glide_esite>  (385) 
-0.0345974

>  <r_i_glide_emodel>  (385) 
-29.7805

>  <r_i_glide_energy>  (385) 
-26.4861

>  <r_i_glide_einternal>  (385) 
1.17174

>  <r_i_glide_intrahb_reward>  (385) 
-0

>  <i_i_glide_confnum>  (385) 
6

>  <i_i_glide_posenum>  (385) 
15

>  <r_i_glide_eff_state_penalty>  (385) 
0

>  <ligand_id>  (385) 
114

>  <original_smiles>  (385) 
C=C(C)C1CC2C3CC=C4C5CN(C)C6(CC(C)CCC1C2(C)CCC(=O)C3(C)C46C)OOO5

>  <smiles>  (385) 
[H]C([H])=C(C([H])([H])[H])C1([H])C([H])([H])C2([H])C3([H])C([H])([H])C([H])=C4C5([H])OOOC6(C([H])([H])C([H])(C([H])([H])[H])C([H])([H])C([H])([H])C1([H])C2(C([H])([H])[H])C([H])([H])C([H])([H])C(=O)C3(C([H])([H])[H])C46C([H])([H])[H])[N+]([H])(C([H])([H])[H])C5([H])[H]

$$$$
114:3:2
     RDKit          3D

 78 83  0  0  1  0  0  0  0  0999 V2000
    1.0511   -9.7669    4.9094 C   0  0  0  0  0  0  0  0  0  0  0  0
    0.7280   -8.7983    4.0232 C   0  0  0  0  0  0  0  0  0  0  0  0
   -0.5266   -8.9357    3.1781 C   0  0  0  0  0  0  0  0  0  0  0  0
    1.5230   -7.5082    3.7833 C   0  0  2  0  0  0  0  0  0  0  0  0
    1.9932   -7.3476    2.3012 C   0  0  0  0  0  0  0  0  0  0  0  0
    3.3582   -6.7062    2.5297 C   0  0  2  0  0  0  0  0  0  0  0  0
    4.3226   -6.1279    1.5258 C   0  0  1  0  0  0  0  0  0  0  0  0
    4.0779   -6.0190   -0.0243 C   0  0  0  0  0  0  0  0  0  0  0  0
    4.5588   -4.6881   -0.6195 C   0  0  0  0  0  0  0  0  0  0  0  0
    4.5955   -3.5517    0.1169 C   0  0  0  0  0  0  0  0  0  0  0  0
    5.0938   -2.2155   -0.3547 C   0  0  1  0  0  0  0  0  0  0  0  0
    3.9945   -1.1567   -0.1410 C   0  0  0  0  0  0  0  0  0  0  0  0
    3.3900   -1.1203    1.2198 N   0  0  2  0  0  0  0  0  0  0  0  0
    3.2248    0.2833    1.6980 C   0  0  0  0  0  0  0  0  0  0  0  0
    3.9317   -2.1306    2.2430 C   0  0  1  0  0  0  0  0  0  0  0  0
    2.9394   -2.0684    3.5615 C   0  0  0  0  0  0  0  0  0  0  0  0
    2.7427   -3.0374    4.8590 C   0  0  1  0  0  0  0  0  0  0  0  0
    1.9944   -2.2069    5.9239 C   0  0  0  0  0  0  0  0  0  0  0  0
    1.9915   -4.4563    4.7663 C   0  0  0  0  0  0  0  0  0  0  0  0
    2.5964   -5.7884    5.4590 C   0  0  0  0  0  0  0  0  0  0  0  0
    2.7900   -7.1989    4.6924 C   0  0  2  0  0  0  0  0  0  0  0  0
    4.0205   -7.4570    3.6999 C   0  0  1  0  0  0  0  0  0  0  0  0
    4.1466   -8.9843    3.3956 C   0  0  0  0  0  0  0  0  0  0  0  0
    5.5436   -7.0856    4.0852 C   0  0  0  0  0  0  0  0  0  0  0  0
    6.6503   -6.5606    3.0059 C   0  0  0  0  0  0  0  0  0  0  0  0
    6.3731   -5.2629    2.1078 C   0  0  0  0  0  0  0  0  0  0  0  0
    7.2369   -4.7093    1.4335 O   0  0  0  0  0  0  0  0  0  0  0  0
    4.9106   -4.7864    2.2035 C   0  0  2  0  0  0  0  0  0  0  0  0
    5.0960   -4.3888    3.7086 C   0  0  0  0  0  0  0  0  0  0  0  0
    4.0541   -3.5758    1.5113 C   0  0  2  0  0  0  0  0  0  0  0  0
    2.5090   -3.8430    1.2646 C   0  0  0  0  0  0  0  0  0  0  0  0
    5.2345   -1.6431    2.6196 O   0  0  0  0  0  0  0  0  0  0  0  0
    5.9446   -0.9819    1.4753 O   0  0  0  0  0  0  0  0  0  0  0  0
    6.2833   -1.8915    0.3541 O   0  0  0  0  0  0  0  0  0  0  0  0
    0.4189  -10.6363    5.0187 H   0  0  0  0  0  0  0  0  0  0  0  0
    1.9246   -9.7362    5.5361 H   0  0  0  0  0  0  0  0  0  0  0  0
   -1.2038   -8.0997    3.3566 H   0  0  0  0  0  0  0  0  0  0  0  0
   -1.0654   -9.8579    3.4076 H   0  0  0  0  0  0  0  0  0  0  0  0
   -0.2818   -8.9622    2.1152 H   0  0  0  0  0  0  0  0  0  0  0  0
    0.7836   -6.7325    3.9761 H   0  0  0  0  0  0  0  0  0  0  0  0
    2.0728   -8.2926    1.7627 H   0  0  0  0  0  0  0  0  0  0  0  0
    1.3104   -6.7188    1.7324 H   0  0  0  0  0  0  0  0  0  0  0  0
    3.0056   -5.7730    2.9042 H   0  0  0  0  0  0  0  0  0  0  0  0
    4.9773   -6.9956    1.4274 H   0  0  0  0  0  0  0  0  0  0  0  0
    4.6390   -6.7945   -0.5508 H   0  0  0  0  0  0  0  0  0  0  0  0
    3.0423   -6.2036   -0.3067 H   0  0  0  0  0  0  0  0  0  0  0  0
    4.8820   -4.6861   -1.6484 H   0  0  0  0  0  0  0  0  0  0  0  0
    5.3583   -2.2802   -1.4174 H   0  0  0  0  0  0  0  0  0  0  0  0
    4.3706   -0.1730   -0.4518 H   0  0  0  0  0  0  0  0  0  0  0  0
    3.1677   -1.3757   -0.8368 H   0  0  0  0  0  0  0  0  0  0  0  0
    4.1832    0.7527    1.9175 H   0  0  0  0  0  0  0  0  0  0  0  0
    2.5763    0.3761    2.5718 H   0  0  0  0  0  0  0  0  0  0  0  0
    2.7417    0.8754    0.9085 H   0  0  0  0  0  0  0  0  0  0  0  0
    3.2366   -1.1236    4.0197 H   0  0  0  0  0  0  0  0  0  0  0  0
    1.9307   -1.8531    3.2130 H   0  0  0  0  0  0  0  0  0  0  0  0
    3.6838   -3.1615    5.3775 H   0  0  0  0  0  0  0  0  0  0  0  0
    0.9934   -1.9249    5.5923 H   0  0  0  0  0  0  0  0  0  0  0  0
    2.5293   -1.2891    6.1773 H   0  0  0  0  0  0  0  0  0  0  0  0
    1.8874   -2.7688    6.8580 H   0  0  0  0  0  0  0  0  0  0  0  0
    1.0261   -4.3249    5.2613 H   0  0  0  0  0  0  0  0  0  0  0  0
    1.6182   -4.6491    3.7753 H   0  0  0  0  0  0  0  0  0  0  0  0
    3.5002   -5.5520    6.0221 H   0  0  0  0  0  0  0  0  0  0  0  0
    1.8994   -6.0148    6.2667 H   0  0  0  0  0  0  0  0  0  0  0  0
    2.8974   -7.9160    5.5006 H   0  0  0  0  0  0  0  0  0  0  0  0
    4.4819   -9.5328    4.2773 H   0  0  0  0  0  0  0  0  0  0  0  0
    4.8749   -9.1722    2.6047 H   0  0  0  0  0  0  0  0  0  0  0  0
    3.2315   -9.4860    3.0949 H   0  0  0  0  0  0  0  0  0  0  0  0
    5.5427   -6.4912    4.9963 H   0  0  0  0  0  0  0  0  0  0  0  0
    6.0082   -7.9787    4.5022 H   0  0  0  0  0  0  0  0  0  0  0  0
    7.5814   -6.3755    3.5462 H   0  0  0  0  0  0  0  0  0  0  0  0
    6.8893   -7.3797    2.3257 H   0  0  0  0  0  0  0  0  0  0  0  0
    4.3450   -4.8321    4.2839 H   0  0  0  0  0  0  0  0  0  0  0  0
    5.1442   -3.3511    3.9457 H   0  0  0  0  0  0  0  0  0  0  0  0
    6.0128   -4.5989    4.2677 H   0  0  0  0  0  0  0  0  0  0  0  0
    1.8280   -3.6027    2.0629 H   0  0  0  0  0  0  0  0  0  0  0  0
    2.2107   -4.8422    1.0058 H   0  0  0  0  0  0  0  0  0  0  0  0
    2.1481   -3.2473    0.4220 H   0  0  0  0  0  0  0  0  0  0  0  0
    2.4457   -1.4315    1.0592 H   0  0  0  0  0  0  0  0  0  0  0  0
  1  2  2  0
  1 35  1  0
  1 36  1  0
  2  3  1  0
  2  4  1  0
  3 37  1  0
  3 38  1  0
  3 39  1  0
  4 21  1  0
  4  5  1  0
  4 40  1  1
  5  6  1  0
  5 41  1  0
  5 42  1  0
  6 22  1  0
  6  7  1  0
  6 43  1  1
  7 28  1  0
  7  8  1  0
  7 44  1  6
  8  9  1  0
  8 45  1  0
  8 46  1  0
  9 10  2  0
  9 47  1  0
 10 30  1  0
 10 11  1  0
 11 34  1  0
 11 12  1  0
 11 48  1  6
 12 13  1  0
 12 49  1  0
 12 50  1  0
 13 14  1  0
 13 15  1  0
 13 78  1  6
 14 51  1  0
 14 52  1  0
 14 53  1  0
 15 30  1  0
 15 16  1  1
 15 32  1  0
 16 17  1  0
 16 54  1  0
 16 55  1  0
 17 18  1  0
 17 19  1  0
 17 56  1  1
 18 57  1  0
 18 58  1  0
 18 59  1  0
 19 20  1  0
 19 60  1  0
 19 61  1  0
 20 21  1  0
 20 62  1  0
 20 63  1  0
 21 22  1  0
 21 64  1  1
 22 23  1  6
 22 24  1  0
 23 65  1  0
 23 66  1  0
 23 67  1  0
 24 25  1  0
 24 68  1  0
 24 69  1  0
 25 26  1  0
 25 70  1  0
 25 71  1  0
 26 27  2  0
 26 28  1  0
 28 29  1  1
 28 30  1  0
 29 72  1  0
 29 73  1  0
 29 74  1  0
 30 31  1  6
 31 75  1  0
 31 76  1  0
 31 77  1  0
 32 33  1  0
 33 34  1  0
M  CHG  1  13   1
M  END
>  <i_m_ct_stereo_status>  (386) 
1

>  <s_m_source_file>  (386) 
/var/tmp/pbs.5076255.sched01/tmpzqmxgpmu/1265eqpa8lp.sdf

>  <i_m_source_file_index>  (386) 
38

>  <i_lp_mmshare_version>  (386) 
48012

>  <i_f3d_flags>  (386) 
0

>  <s_epik_input>  (386) 
W0NIMl0xW0NAQEhdKFtDSDNdKVtDSDJdW0NIMl1bQ0BASF0oW0NAQEhdKFtDSDJdMilDKD1bQ0gyXSlbQ0gzXSlDKFtDSDNdKShbQ0gyXVtDSDJdQyg9TylbQ0BdMzRbQ0gzXSlbQ0BIXTJbQ0BIXTNbQ0gyXVtDSF09QyhbQ0BAXTQoW0NAXTE1NilbQ0gzXSlbQ0BIXShPT082KVtDSDJdTjVbQ0gzXQ==

>  <s_epik_cmdline>  (386) 
J2VwaWtfcHl0aG9uJywgJy1waHQnLCAnMi4wJywgJy1waCcsICc3LjAnLCAnLXRuJywgJzgnLCAnLW1hJywgJzIwMCcsICctaW1hZScsICc8aW5maWxlLm1hZT4nLCAnLW9tYWUnLCAnPG91dGZpbGUubWFlPic=

>  <r_lp_tautomer_probability>  (386) 
0.99995

>  <r_epik_Ionization_Penalty>  (386) 
0.605974

>  <r_epik_Ionization_Penalty_Charging>  (386) 
0.605974

>  <r_epik_Ionization_Penalty_Neutral>  (386) 
1.48832e-12

>  <r_epik_State_Penalty>  (386) 
0.620765

>  <r_epik_Charging_Adjusted_Penalty>  (386) 
1.22674

>  <i_epik_Tot_Q>  (386) 
1

>  <i_epik_Tot_abs_Q>  (386) 
1

>  <s_lp_Force_Field>  (386) 
OPLS3e

>  <r_lp_Energy>  (386) 
250.388

>  <b_lp_Chiralities_Consistent>  (386) 
1

>  <s_lp_Variant>  (386) 
114:0-4

>  <s_i_glide_gridfile>  (386) 
pfpi4k_grid

>  <i_i_glide_lignum>  (386) 
38

>  <i_i_glide_rotatable_bonds>  (386) 
1

>  <r_i_docking_score>  (386) 
-2.20673

>  <r_i_glide_ligand_efficiency>  (386) 
-0.0649039

>  <r_i_glide_ligand_efficiency_sa>  (386) 
-0.210264

>  <r_i_glide_ligand_efficiency_ln>  (386) 
-0.487529

>  <r_i_glide_gscore>  (386) 
-2.20673

>  <r_i_glide_lipo>  (386) 
-0.195898

>  <r_i_glide_hbond>  (386) 
0

>  <r_i_glide_metal>  (386) 
-0

>  <r_i_glide_rewards>  (386) 
-0.263668

>  <r_i_glide_evdw>  (386) 
-21.8056

>  <r_i_glide_ecoul>  (386) 
-4.76259

>  <r_i_glide_erotb>  (386) 
0.0912168

>  <r_i_glide_esite>  (386) 
-0.0337161

>  <r_i_glide_emodel>  (386) 
-30.4772

>  <r_i_glide_energy>  (386) 
-26.5682

>  <r_i_glide_einternal>  (386) 
0.0546916

>  <r_i_glide_intrahb_reward>  (386) 
-0

>  <i_i_glide_confnum>  (386) 
2

>  <i_i_glide_posenum>  (386) 
3

>  <r_i_glide_eff_state_penalty>  (386) 
0

>  <ligand_id>  (386) 
114

>  <original_smiles>  (386) 
C=C(C)C1CC2C3CC=C4C5CN(C)C6(CC(C)CCC1C2(C)CCC(=O)C3(C)C46C)OOO5

>  <smiles>  (386) 
[H]C([H])=C(C([H])([H])[H])C1([H])C([H])([H])C2([H])C3([H])C([H])([H])C([H])=C4C5([H])OOOC6(C([H])([H])C([H])(C([H])([H])[H])C([H])([H])C([H])([H])C1([H])C2(C([H])([H])[H])C([H])([H])C([H])([H])C(=O)C3(C([H])([H])[H])C46C([H])([H])[H])[N+]([H])(C([H])([H])[H])C5([H])[H]

$$$$
115:0:0
     RDKit          3D

 59 66  0  0  1  0  0  0  0  0999 V2000
    2.4007   -3.8623    6.3602 C   0  0  0  0  0  0  0  0  0  0  0  0
    2.4821   -3.2371    4.9380 C   0  0  2  0  0  0  0  0  0  0  0  0
    1.7762   -4.1707    3.9304 C   0  0  0  0  0  0  0  0  0  0  0  0
    1.1244   -5.1349    4.3252 O   0  0  0  0  0  0  0  0  0  0  0  0
    1.8586   -3.9070    2.6089 O   0  0  0  0  0  0  0  0  0  0  0  0
    2.5188   -2.8216    1.9422 C   0  0  1  0  0  0  0  0  0  0  0  0
    2.8108   -1.5151    2.7162 C   0  0  1  0  0  0  0  0  0  0  0  0
    3.9168   -1.7090    3.5959 O   0  0  0  0  0  0  0  0  0  0  0  0
    3.9227   -2.8141    4.5104 C   0  0  1  0  0  0  0  0  0  0  0  0
    4.6684   -2.1531    5.6942 C   0  0  0  0  0  0  0  0  0  0  0  0
    4.8071   -4.0118    4.0159 C   0  0  0  0  0  0  0  0  0  0  0  0
    4.5963   -4.5394    2.6888 O   0  0  0  0  0  0  0  0  0  0  0  0
    4.9815   -3.7370    1.5969 C   0  0  1  0  0  0  0  0  0  0  0  0
    5.8382   -2.7067    2.0688 O   0  0  0  0  0  0  0  0  0  0  0  0
    6.4102   -1.7479    1.1854 C   0  0  2  0  0  0  0  0  0  0  0  0
    5.4210   -0.6122    1.1475 C   0  0  0  0  0  0  0  0  0  0  0  0
    4.1654   -0.7998    0.7116 C   0  0  0  0  0  0  0  0  0  0  0  0
    3.1624   -0.3957    1.7047 C   0  0  0  0  0  0  0  0  0  0  0  0
    2.6374    0.7133    1.7535 O   0  0  0  0  0  0  0  0  0  0  0  0
    3.7208   -2.0088   -0.1090 C   0  0  1  0  0  0  0  0  0  0  0  0
    4.1176   -2.0395   -1.6770 C   0  0  2  0  0  0  0  0  0  0  0  0
    3.6237   -0.7863   -2.4186 C   0  0  0  0  0  0  0  0  0  0  0  0
    3.6305   -3.2931   -2.3862 C   0  0  0  0  0  0  0  0  0  0  0  0
    4.6054   -4.2570   -1.9784 O   0  0  0  0  0  0  0  0  0  0  0  0
    5.8687   -3.6493   -1.8528 C   0  0  2  0  0  0  0  0  0  0  0  0
    6.3795   -3.6113   -0.4516 C   0  0  0  0  0  0  0  0  0  0  0  0
    6.6620   -2.3405   -0.1590 C   0  0  0  0  0  0  0  0  0  0  0  0
    6.4017   -1.4850   -1.1687 O   0  0  0  0  0  0  0  0  0  0  0  0
    5.5891   -2.1940   -2.0596 C   0  0  2  0  0  0  0  0  0  0  0  0
    5.8730   -4.5680    0.6180 C   0  0  1  0  0  0  0  0  0  0  0  0
    7.0571   -5.2342    1.3491 C   0  0  0  0  0  0  0  0  0  0  0  0
    3.6146   -3.2397    0.8929 C   0  0  2  0  0  0  0  0  0  0  0  0
    2.9874   -4.2970    0.1946 O   0  0  0  0  0  0  0  0  0  0  0  0
    1.3703   -4.1217    6.6228 H   0  0  0  0  0  0  0  0  0  0  0  0
    2.7300   -3.1717    7.1398 H   0  0  0  0  0  0  0  0  0  0  0  0
    2.9951   -4.7778    6.4414 H   0  0  0  0  0  0  0  0  0  0  0  0
    1.8672   -2.3424    5.0019 H   0  0  0  0  0  0  0  0  0  0  0  0
    1.6746   -2.4998    1.3293 H   0  0  0  0  0  0  0  0  0  0  0  0
    1.9352   -1.1889    3.2724 H   0  0  0  0  0  0  0  0  0  0  0  0
    4.9120   -2.8746    6.4774 H   0  0  0  0  0  0  0  0  0  0  0  0
    4.0777   -1.3529    6.1476 H   0  0  0  0  0  0  0  0  0  0  0  0
    5.6149   -1.7147    5.3707 H   0  0  0  0  0  0  0  0  0  0  0  0
    5.8598   -3.7756    4.1506 H   0  0  0  0  0  0  0  0  0  0  0  0
    4.6483   -4.8458    4.6975 H   0  0  0  0  0  0  0  0  0  0  0  0
    7.3495   -1.3552    1.5699 H   0  0  0  0  0  0  0  0  0  0  0  0
    5.6168    0.1374    1.8978 H   0  0  0  0  0  0  0  0  0  0  0  0
    2.6714   -1.8033   -0.2991 H   0  0  0  0  0  0  0  0  0  0  0  0
    3.8372   -0.8084   -3.4919 H   0  0  0  0  0  0  0  0  0  0  0  0
    4.1377    0.0946   -2.0231 H   0  0  0  0  0  0  0  0  0  0  0  0
    2.5424   -0.6688   -2.3217 H   0  0  0  0  0  0  0  0  0  0  0  0
    2.6050   -3.5643   -2.1399 H   0  0  0  0  0  0  0  0  0  0  0  0
    3.6624   -3.1700   -3.4733 H   0  0  0  0  0  0  0  0  0  0  0  0
    6.5936   -3.9803   -2.5920 H   0  0  0  0  0  0  0  0  0  0  0  0
    5.7639   -1.9585   -3.1016 H   0  0  0  0  0  0  0  0  0  0  0  0
    5.2758   -5.3639    0.1764 H   0  0  0  0  0  0  0  0  0  0  0  0
    7.6538   -5.8122    0.6398 H   0  0  0  0  0  0  0  0  0  0  0  0
    6.7230   -5.9175    2.1335 H   0  0  0  0  0  0  0  0  0  0  0  0
    7.7207   -4.4933    1.8027 H   0  0  0  0  0  0  0  0  0  0  0  0
    3.5508   -4.5544   -0.5282 H   0  0  0  0  0  0  0  0  0  0  0  0
  1  2  1  0
  1 34  1  0
  1 35  1  0
  1 36  1  0
  2  9  1  0
  2  3  1  0
  2 37  1  1
  3  4  2  0
  3  5  1  0
  5  6  1  0
  6 32  1  0
  6  7  1  0
  6 38  1  6
  7 18  1  0
  7  8  1  0
  7 39  1  1
  8  9  1  0
  9 10  1  1
  9 11  1  0
 10 40  1  0
 10 41  1  0
 10 42  1  0
 11 12  1  0
 11 43  1  0
 11 44  1  0
 13 12  1  1
 13 30  1  0
 13 32  1  0
 13 14  1  0
 14 15  1  0
 15 27  1  0
 15 16  1  0
 15 45  1  1
 16 17  2  0
 16 46  1  0
 17 18  1  0
 17 20  1  0
 18 19  2  0
 20 21  1  0
 20 32  1  0
 20 47  1  6
 21 29  1  0
 21 22  1  6
 21 23  1  0
 22 48  1  0
 22 49  1  0
 22 50  1  0
 23 24  1  0
 23 51  1  0
 23 52  1  0
 24 25  1  0
 25 29  1  0
 25 26  1  0
 25 53  1  6
 26 27  2  0
 26 30  1  0
 27 28  1  0
 28 29  1  0
 29 54  1  6
 30 31  1  0
 30 55  1  6
 31 56  1  0
 31 57  1  0
 31 58  1  0
 32 33  1  6
 33 59  1  0
M  END
>  <i_m_ct_stereo_status>  (387) 
1

>  <s_m_source_file>  (387) 
/var/tmp/pbs.5076255.sched01/tmpzqmxgpmu/1265eqpa8lp.sdf

>  <i_m_source_file_index>  (387) 
39

>  <i_lp_mmshare_version>  (387) 
48012

>  <i_f3d_flags>  (387) 
1

>  <s_epik_input>  (387) 
Tz1DKE8xKVtDQEBIXShbQ0gzXSlbQ0BAXShbQ0gzXSkoW0NIMl1PMilPW0NASF0oW0NASF0xW0NAQF0zKFtDQF0yNDUpW09IXSlDKD1PKUM2W0NASF0zW0NAQF03KFtDSDNdKVtDQEBIXThbQ0BIXShPW0NIMl03KUMoW0NASF01W0NIM10pPUMoTzgpW0NASF0oTzQpW0NIXT02

>  <s_epik_cmdline>  (387) 
J2VwaWtfcHl0aG9uJywgJy1waHQnLCAnMi4wJywgJy1waCcsICc3LjAnLCAnLXRuJywgJzgnLCAnLW1hJywgJzIwMCcsICctaW1hZScsICc8aW5maWxlLm1hZT4nLCAnLW9tYWUnLCAnPG91dGZpbGUubWFlPic=

>  <r_epik_Ionization_Penalty>  (387) 
0.00407671

>  <r_epik_Ionization_Penalty_Charging>  (387) 
0

>  <r_epik_Ionization_Penalty_Neutral>  (387) 
0.00407671

>  <r_epik_State_Penalty>  (387) 
0.00292268

>  <r_epik_Charging_Adjusted_Penalty>  (387) 
0.00292268

>  <i_epik_Tot_Q>  (387) 
0

>  <i_epik_Tot_abs_Q>  (387) 
0

>  <s_epik_Chemistry_Notes>  (387) 
This compound has an ester and may undergo hydrolysis at high or low pH.

>  <s_lp_Force_Field>  (387) 
OPLS3e

>  <r_lp_Energy>  (387) 
123.787

>  <b_lp_Chiralities_Consistent>  (387) 
1

>  <s_lp_Variant>  (387) 
115:0-1

>  <s_i_glide_gridfile>  (387) 
pfpi4k_grid

>  <i_i_glide_lignum>  (387) 
39

>  <i_i_glide_rotatable_bonds>  (387) 
1

>  <r_i_docking_score>  (387) 
-2.69164

>  <r_i_glide_ligand_efficiency>  (387) 
-0.081565

>  <r_i_glide_ligand_efficiency_sa>  (387) 
-0.261622

>  <r_i_glide_ligand_efficiency_ln>  (387) 
-0.598608

>  <r_i_glide_gscore>  (387) 
-2.69164

>  <r_i_glide_lipo>  (387) 
-0.713833

>  <r_i_glide_hbond>  (387) 
-0.129584

>  <r_i_glide_metal>  (387) 
-0

>  <r_i_glide_rewards>  (387) 
-0.327753

>  <r_i_glide_evdw>  (387) 
-23.5413

>  <r_i_glide_ecoul>  (387) 
-2.11664

>  <r_i_glide_erotb>  (387) 
0

>  <r_i_glide_esite>  (387) 
-0.0259117

>  <r_i_glide_emodel>  (387) 
-31.0432

>  <r_i_glide_energy>  (387) 
-25.658

>  <r_i_glide_einternal>  (387) 
0.0496327

>  <r_i_glide_intrahb_reward>  (387) 
-0

>  <i_i_glide_confnum>  (387) 
1

>  <i_i_glide_posenum>  (387) 
23

>  <r_i_glide_eff_state_penalty>  (387) 
0

>  <ligand_id>  (387) 
115

>  <original_smiles>  (387) 
CC1C(=O)OC2C3OC1(C)COC14OC5C=C(C3=O)C(C3(C)COC6C(=C5OC63)C1C)C24O

>  <smiles>  (387) 
[H]OC12C3([H])OC(=O)C([H])(C([H])([H])[H])C4(C([H])([H])[H])OC3([H])C(=O)C3=C([H])C5([H])OC1(OC4([H])[H])C([H])(C([H])([H])[H])C1=C5OC4([H])C1([H])OC([H])([H])C4(C([H])([H])[H])C32[H]

$$$$
115:0:1
     RDKit          3D

 59 66  0  0  1  0  0  0  0  0999 V2000
    5.0311   -0.8650   -0.9264 C   0  0  0  0  0  0  0  0  0  0  0  0
    4.9276   -2.3259   -0.4228 C   0  0  2  0  0  0  0  0  0  0  0  0
    3.7094   -2.9995   -1.0862 C   0  0  0  0  0  0  0  0  0  0  0  0
    3.1235   -2.4453   -2.0158 O   0  0  0  0  0  0  0  0  0  0  0  0
    3.3162   -4.2127   -0.6536 O   0  0  0  0  0  0  0  0  0  0  0  0
    3.9218   -5.0685    0.3199 C   0  0  1  0  0  0  0  0  0  0  0  0
    5.4031   -4.8585    0.7162 C   0  0  1  0  0  0  0  0  0  0  0  0
    5.5282   -3.7083    1.5495 O   0  0  0  0  0  0  0  0  0  0  0  0
    4.9699   -2.4550    1.1334 C   0  0  1  0  0  0  0  0  0  0  0  0
    6.0227   -1.4931    1.7306 C   0  0  0  0  0  0  0  0  0  0  0  0
    3.6040   -2.1344    1.8408 C   0  0  0  0  0  0  0  0  0  0  0  0
    2.5579   -3.1228    1.8069 O   0  0  0  0  0  0  0  0  0  0  0  0
    2.7301   -4.2962    2.5628 C   0  0  1  0  0  0  0  0  0  0  0  0
    3.7707   -4.0865    3.5072 O   0  0  0  0  0  0  0  0  0  0  0  0
    4.1455   -5.0933    4.4398 C   0  0  2  0  0  0  0  0  0  0  0  0
    5.2308   -5.8769    3.7444 C   0  0  0  0  0  0  0  0  0  0  0  0
    4.9816   -6.5100    2.5864 C   0  0  0  0  0  0  0  0  0  0  0  0
    5.8933   -6.0951    1.5065 C   0  0  0  0  0  0  0  0  0  0  0  0
    6.9515   -6.6549    1.2346 O   0  0  0  0  0  0  0  0  0  0  0  0
    3.5768   -6.8377    2.0767 C   0  0  1  0  0  0  0  0  0  0  0  0
    2.7873   -8.0685    2.7785 C   0  0  2  0  0  0  0  0  0  0  0  0
    3.6414   -9.3576    2.6628 C   0  0  0  0  0  0  0  0  0  0  0  0
    1.3899   -8.2885    2.1843 C   0  0  0  0  0  0  0  0  0  0  0  0
    0.5681   -7.3070    2.8306 O   0  0  0  0  0  0  0  0  0  0  0  0
    1.0698   -7.0656    4.1458 C   0  0  2  0  0  0  0  0  0  0  0  0
    1.7390   -5.7374    4.3314 C   0  0  0  0  0  0  0  0  0  0  0  0
    2.9659   -5.9392    4.8198 C   0  0  0  0  0  0  0  0  0  0  0  0
    3.2653   -7.2462    4.9966 O   0  0  0  0  0  0  0  0  0  0  0  0
    2.3094   -7.9487    4.2462 C   0  0  2  0  0  0  0  0  0  0  0  0
    1.4575   -4.5440    3.4346 C   0  0  1  0  0  0  0  0  0  0  0  0
    1.0902   -3.3032    4.2754 C   0  0  0  0  0  0  0  0  0  0  0  0
    2.9625   -5.4878    1.4981 C   0  0  2  0  0  0  0  0  0  0  0  0
    1.7545   -5.8059    0.8203 O   0  0  0  0  0  0  0  0  0  0  0  0
    5.0220   -0.8040   -2.0193 H   0  0  0  0  0  0  0  0  0  0  0  0
    5.9556   -0.3797   -0.6134 H   0  0  0  0  0  0  0  0  0  0  0  0
    4.2034   -0.2542   -0.5603 H   0  0  0  0  0  0  0  0  0  0  0  0
    5.8106   -2.8106   -0.8338 H   0  0  0  0  0  0  0  0  0  0  0  0
    3.9997   -5.9631   -0.3026 H   0  0  0  0  0  0  0  0  0  0  0  0
    6.0313   -4.7597   -0.1663 H   0  0  0  0  0  0  0  0  0  0  0  0
    5.7222   -0.4456    1.6512 H   0  0  0  0  0  0  0  0  0  0  0  0
    6.9962   -1.6024    1.2462 H   0  0  0  0  0  0  0  0  0  0  0  0
    6.1700   -1.6903    2.7947 H   0  0  0  0  0  0  0  0  0  0  0  0
    3.7687   -1.8216    2.8742 H   0  0  0  0  0  0  0  0  0  0  0  0
    3.1896   -1.2432    1.3693 H   0  0  0  0  0  0  0  0  0  0  0  0
    4.5685   -4.6335    5.3355 H   0  0  0  0  0  0  0  0  0  0  0  0
    6.2222   -5.4873    3.9286 H   0  0  0  0  0  0  0  0  0  0  0  0
    3.7890   -7.3859    1.1604 H   0  0  0  0  0  0  0  0  0  0  0  0
    3.1411  -10.2234    3.1029 H   0  0  0  0  0  0  0  0  0  0  0  0
    4.5926   -9.2487    3.1873 H   0  0  0  0  0  0  0  0  0  0  0  0
    3.8622   -9.6170    1.6258 H   0  0  0  0  0  0  0  0  0  0  0  0
    1.3656   -8.2387    1.0961 H   0  0  0  0  0  0  0  0  0  0  0  0
    1.0161   -9.2807    2.4469 H   0  0  0  0  0  0  0  0  0  0  0  0
    0.3314   -7.2561    4.9263 H   0  0  0  0  0  0  0  0  0  0  0  0
    2.0749   -8.9107    4.7042 H   0  0  0  0  0  0  0  0  0  0  0  0
    0.6104   -4.7654    2.7919 H   0  0  0  0  0  0  0  0  0  0  0  0
    0.1980   -3.5064    4.8701 H   0  0  0  0  0  0  0  0  0  0  0  0
    0.8737   -2.4366    3.6470 H   0  0  0  0  0  0  0  0  0  0  0  0
    1.8896   -3.0261    4.9682 H   0  0  0  0  0  0  0  0  0  0  0  0
    1.9548   -6.4140    0.1252 H   0  0  0  0  0  0  0  0  0  0  0  0
  1  2  1  0
  1 34  1  0
  1 35  1  0
  1 36  1  0
  2  9  1  0
  2  3  1  0
  2 37  1  6
  3  4  2  0
  3  5  1  0
  5  6  1  0
  6 32  1  0
  6  7  1  0
  6 38  1  6
  7 18  1  0
  7  8  1  0
  7 39  1  6
  8  9  1  0
  9 10  1  1
  9 11  1  0
 10 40  1  0
 10 41  1  0
 10 42  1  0
 11 12  1  0
 11 43  1  0
 11 44  1  0
 13 12  1  6
 13 30  1  0
 13 32  1  0
 13 14  1  0
 14 15  1  0
 15 27  1  0
 15 16  1  0
 15 45  1  1
 16 17  2  0
 16 46  1  0
 17 18  1  0
 17 20  1  0
 18 19  2  0
 20 21  1  0
 20 32  1  0
 20 47  1  6
 21 29  1  0
 21 22  1  1
 21 23  1  0
 22 48  1  0
 22 49  1  0
 22 50  1  0
 23 24  1  0
 23 51  1  0
 23 52  1  0
 24 25  1  0
 25 29  1  0
 25 26  1  0
 25 53  1  1
 26 27  2  0
 26 30  1  0
 27 28  1  0
 28 29  1  0
 29 54  1  1
 30 31  1  0
 30 55  1  6
 31 56  1  0
 31 57  1  0
 31 58  1  0
 32 33  1  6
 33 59  1  0
M  END
>  <i_m_ct_stereo_status>  (388) 
1

>  <s_m_source_file>  (388) 
/var/tmp/pbs.5076255.sched01/tmpzqmxgpmu/1265eqpa8lp.sdf

>  <i_m_source_file_index>  (388) 
39

>  <i_lp_mmshare_version>  (388) 
48012

>  <i_f3d_flags>  (388) 
1

>  <s_epik_input>  (388) 
Tz1DKE8xKVtDQEBIXShbQ0gzXSlbQ0BAXShbQ0gzXSkoW0NIMl1PMilPW0NASF0oW0NASF0xW0NAQF0zKFtDQF0yNDUpW09IXSlDKD1PKUM2W0NASF0zW0NAQF03KFtDSDNdKVtDQEBIXThbQ0BIXShPW0NIMl03KUMoW0NASF01W0NIM10pPUMoTzgpW0NASF0oTzQpW0NIXT02

>  <s_epik_cmdline>  (388) 
J2VwaWtfcHl0aG9uJywgJy1waHQnLCAnMi4wJywgJy1waCcsICc3LjAnLCAnLXRuJywgJzgnLCAnLW1hJywgJzIwMCcsICctaW1hZScsICc8aW5maWxlLm1hZT4nLCAnLW9tYWUnLCAnPG91dGZpbGUubWFlPic=

>  <r_epik_Ionization_Penalty>  (388) 
0.00407671

>  <r_epik_Ionization_Penalty_Charging>  (388) 
0

>  <r_epik_Ionization_Penalty_Neutral>  (388) 
0.00407671

>  <r_epik_State_Penalty>  (388) 
0.00292268

>  <r_epik_Charging_Adjusted_Penalty>  (388) 
0.00292268

>  <i_epik_Tot_Q>  (388) 
0

>  <i_epik_Tot_abs_Q>  (388) 
0

>  <s_epik_Chemistry_Notes>  (388) 
This compound has an ester and may undergo hydrolysis at high or low pH.

>  <s_lp_Force_Field>  (388) 
OPLS3e

>  <r_lp_Energy>  (388) 
123.787

>  <b_lp_Chiralities_Consistent>  (388) 
1

>  <s_lp_Variant>  (388) 
115:0-1

>  <s_i_glide_gridfile>  (388) 
pfpi4k_grid

>  <i_i_glide_lignum>  (388) 
39

>  <i_i_glide_rotatable_bonds>  (388) 
1

>  <r_i_docking_score>  (388) 
-2.29351

>  <r_i_glide_ligand_efficiency>  (388) 
-0.0695002

>  <r_i_glide_ligand_efficiency_sa>  (388) 
-0.222924

>  <r_i_glide_ligand_efficiency_ln>  (388) 
-0.510064

>  <r_i_glide_gscore>  (388) 
-2.29351

>  <r_i_glide_lipo>  (388) 
-0.333252

>  <r_i_glide_hbond>  (388) 
0

>  <r_i_glide_metal>  (388) 
-0

>  <r_i_glide_rewards>  (388) 
-0.39392

>  <r_i_glide_evdw>  (388) 
-29.2297

>  <r_i_glide_ecoul>  (388) 
-0.621245

>  <r_i_glide_erotb>  (388) 
0

>  <r_i_glide_esite>  (388) 
-0.011661

>  <r_i_glide_emodel>  (388) 
-34.4677

>  <r_i_glide_energy>  (388) 
-29.851

>  <r_i_glide_einternal>  (388) 
0.02591

>  <r_i_glide_intrahb_reward>  (388) 
-0

>  <i_i_glide_confnum>  (388) 
1

>  <i_i_glide_posenum>  (388) 
13

>  <r_i_glide_eff_state_penalty>  (388) 
0

>  <ligand_id>  (388) 
115

>  <original_smiles>  (388) 
CC1C(=O)OC2C3OC1(C)COC14OC5C=C(C3=O)C(C3(C)COC6C(=C5OC63)C1C)C24O

>  <smiles>  (388) 
[H]OC12C3([H])OC(=O)C([H])(C([H])([H])[H])C4(C([H])([H])[H])OC3([H])C(=O)C3=C([H])C5([H])OC1(OC4([H])[H])C([H])(C([H])([H])[H])C1=C5OC4([H])C1([H])OC([H])([H])C4(C([H])([H])[H])C32[H]

$$$$
115:0:2
     RDKit          3D

 59 66  0  0  1  0  0  0  0  0999 V2000
    4.0789   -2.1829   -0.3259 C   0  0  0  0  0  0  0  0  0  0  0  0
    3.9417   -3.6390    0.2100 C   0  0  2  0  0  0  0  0  0  0  0  0
    2.6124   -4.2378   -0.2838 C   0  0  0  0  0  0  0  0  0  0  0  0
    1.9326   -3.6512   -1.1250 O   0  0  0  0  0  0  0  0  0  0  0  0
    2.1871   -5.4218    0.2058 O   0  0  0  0  0  0  0  0  0  0  0  0
    2.8342   -6.3020    1.1249 C   0  0  1  0  0  0  0  0  0  0  0  0
    4.3627   -6.2092    1.3147 C   0  0  1  0  0  0  0  0  0  0  0  0
    4.6860   -5.0684    2.1105 O   0  0  0  0  0  0  0  0  0  0  0  0
    4.1727   -3.7767    1.7519 C   0  0  1  0  0  0  0  0  0  0  0  0
    5.3657   -2.9002    2.1945 C   0  0  0  0  0  0  0  0  0  0  0  0
    2.9372   -3.3504    2.6269 C   0  0  0  0  0  0  0  0  0  0  0  0
    1.8216   -4.2537    2.7489 O   0  0  0  0  0  0  0  0  0  0  0  0
    2.0053   -5.4330    3.4926 C   0  0  1  0  0  0  0  0  0  0  0  0
    3.1749   -5.3011    4.2877 O   0  0  0  0  0  0  0  0  0  0  0  0
    3.5957   -6.3323    5.1717 C   0  0  2  0  0  0  0  0  0  0  0  0
    4.5145   -7.2003    4.3490 C   0  0  0  0  0  0  0  0  0  0  0  0
    4.0654   -7.8200    3.2433 C   0  0  0  0  0  0  0  0  0  0  0  0
    4.8527   -7.4824    2.0431 C   0  0  0  0  0  0  0  0  0  0  0  0
    5.8061   -8.1359    1.6213 O   0  0  0  0  0  0  0  0  0  0  0  0
    2.5807   -8.0385    2.9354 C   0  0  1  0  0  0  0  0  0  0  0  0
    1.8061   -9.2043    3.7552 C   0  0  2  0  0  0  0  0  0  0  0  0
    2.5401  -10.5542    3.5453 C   0  0  0  0  0  0  0  0  0  0  0  0
    0.3290   -9.3196    3.3555 C   0  0  0  0  0  0  0  0  0  0  0  0
   -0.3163   -8.2713    4.0882 O   0  0  0  0  0  0  0  0  0  0  0  0
    0.3725   -8.0664    5.3211 C   0  0  2  0  0  0  0  0  0  0  0  0
    1.1531   -6.7887    5.3974 C   0  0  0  0  0  0  0  0  0  0  0  0
    2.4164   -7.0823    5.7206 C   0  0  0  0  0  0  0  0  0  0  0  0
    2.6396   -8.4069    5.8777 O   0  0  0  0  0  0  0  0  0  0  0  0
    1.5433   -9.0414    5.2711 C   0  0  2  0  0  0  0  0  0  0  0  0
    0.8427   -5.5805    4.5273 C   0  0  1  0  0  0  0  0  0  0  0  0
    0.6864   -4.3144    5.3951 C   0  0  0  0  0  0  0  0  0  0  0  0
    2.0028   -6.6416    2.4211 C   0  0  2  0  0  0  0  0  0  0  0  0
    0.6930   -6.8423    1.9031 O   0  0  0  0  0  0  0  0  0  0  0  0
    3.9241   -2.1365   -1.4078 H   0  0  0  0  0  0  0  0  0  0  0  0
    5.0758   -1.7716   -0.1597 H   0  0  0  0  0  0  0  0  0  0  0  0
    3.3505   -1.5046    0.1288 H   0  0  0  0  0  0  0  0  0  0  0  0
    4.7243   -4.1907   -0.3068 H   0  0  0  0  0  0  0  0  0  0  0  0
    2.7640   -7.1947    0.5132 H   0  0  0  0  0  0  0  0  0  0  0  0
    4.8662   -6.1605    0.3520 H   0  0  0  0  0  0  0  0  0  0  0  0
    5.1356   -1.8346    2.1430 H   0  0  0  0  0  0  0  0  0  0  0  0
    6.2503   -3.0838    1.5817 H   0  0  0  0  0  0  0  0  0  0  0  0
    5.6405   -3.1094    3.2296 H   0  0  0  0  0  0  0  0  0  0  0  0
    3.2609   -3.0466    3.6241 H   0  0  0  0  0  0  0  0  0  0  0  0
    2.5309   -2.4331    2.2031 H   0  0  0  0  0  0  0  0  0  0  0  0
    4.1688   -5.9048    5.9964 H   0  0  0  0  0  0  0  0  0  0  0  0
    5.5475   -6.8896    4.3923 H   0  0  0  0  0  0  0  0  0  0  0  0
    2.6245   -8.6046    2.0050 H   0  0  0  0  0  0  0  0  0  0  0  0
    2.0395  -11.3789    4.0597 H   0  0  0  0  0  0  0  0  0  0  0  0
    3.5577  -10.5171    3.9384 H   0  0  0  0  0  0  0  0  0  0  0  0
    2.6049  -10.8313    2.4923 H   0  0  0  0  0  0  0  0  0  0  0  0
    0.1591   -9.2677    2.2796 H   0  0  0  0  0  0  0  0  0  0  0  0
   -0.0818  -10.2783    3.6839 H   0  0  0  0  0  0  0  0  0  0  0  0
   -0.2593   -8.2014    6.1987 H   0  0  0  0  0  0  0  0  0  0  0  0
    1.2987   -9.9796    5.7725 H   0  0  0  0  0  0  0  0  0  0  0  0
   -0.0998   -5.7322    4.0015 H   0  0  0  0  0  0  0  0  0  0  0  0
   -0.1296   -4.4455    6.1083 H   0  0  0  0  0  0  0  0  0  0  0  0
    0.4553   -3.4324    4.7933 H   0  0  0  0  0  0  0  0  0  0  0  0
    1.5907   -4.0998    5.9717 H   0  0  0  0  0  0  0  0  0  0  0  0
    0.6685   -7.6611    1.4296 H   0  0  0  0  0  0  0  0  0  0  0  0
  1  2  1  0
  1 34  1  0
  1 35  1  0
  1 36  1  0
  2  9  1  0
  2  3  1  0
  2 37  1  6
  3  4  2  0
  3  5  1  0
  5  6  1  0
  6 32  1  0
  6  7  1  0
  6 38  1  6
  7 18  1  0
  7  8  1  0
  7 39  1  6
  8  9  1  0
  9 10  1  1
  9 11  1  0
 10 40  1  0
 10 41  1  0
 10 42  1  0
 11 12  1  0
 11 43  1  0
 11 44  1  0
 13 12  1  6
 13 30  1  0
 13 32  1  0
 13 14  1  0
 14 15  1  0
 15 27  1  0
 15 16  1  0
 15 45  1  1
 16 17  2  0
 16 46  1  0
 17 18  1  0
 17 20  1  0
 18 19  2  0
 20 21  1  0
 20 32  1  0
 20 47  1  6
 21 29  1  0
 21 22  1  1
 21 23  1  0
 22 48  1  0
 22 49  1  0
 22 50  1  0
 23 24  1  0
 23 51  1  0
 23 52  1  0
 24 25  1  0
 25 29  1  0
 25 26  1  0
 25 53  1  1
 26 27  2  0
 26 30  1  0
 27 28  1  0
 28 29  1  0
 29 54  1  1
 30 31  1  0
 30 55  1  6
 31 56  1  0
 31 57  1  0
 31 58  1  0
 32 33  1  6
 33 59  1  0
M  END
>  <i_m_ct_stereo_status>  (389) 
1

>  <s_m_source_file>  (389) 
/var/tmp/pbs.5076255.sched01/tmpzqmxgpmu/1265eqpa8lp.sdf

>  <i_m_source_file_index>  (389) 
39

>  <i_lp_mmshare_version>  (389) 
48012

>  <i_f3d_flags>  (389) 
1

>  <s_epik_input>  (389) 
Tz1DKE8xKVtDQEBIXShbQ0gzXSlbQ0BAXShbQ0gzXSkoW0NIMl1PMilPW0NASF0oW0NASF0xW0NAQF0zKFtDQF0yNDUpW09IXSlDKD1PKUM2W0NASF0zW0NAQF03KFtDSDNdKVtDQEBIXThbQ0BIXShPW0NIMl03KUMoW0NASF01W0NIM10pPUMoTzgpW0NASF0oTzQpW0NIXT02

>  <s_epik_cmdline>  (389) 
J2VwaWtfcHl0aG9uJywgJy1waHQnLCAnMi4wJywgJy1waCcsICc3LjAnLCAnLXRuJywgJzgnLCAnLW1hJywgJzIwMCcsICctaW1hZScsICc8aW5maWxlLm1hZT4nLCAnLW9tYWUnLCAnPG91dGZpbGUubWFlPic=

>  <r_epik_Ionization_Penalty>  (389) 
0.00407671

>  <r_epik_Ionization_Penalty_Charging>  (389) 
0

>  <r_epik_Ionization_Penalty_Neutral>  (389) 
0.00407671

>  <r_epik_State_Penalty>  (389) 
0.00292268

>  <r_epik_Charging_Adjusted_Penalty>  (389) 
0.00292268

>  <i_epik_Tot_Q>  (389) 
0

>  <i_epik_Tot_abs_Q>  (389) 
0

>  <s_epik_Chemistry_Notes>  (389) 
This compound has an ester and may undergo hydrolysis at high or low pH.

>  <s_lp_Force_Field>  (389) 
OPLS3e

>  <r_lp_Energy>  (389) 
123.787

>  <b_lp_Chiralities_Consistent>  (389) 
1

>  <s_lp_Variant>  (389) 
115:0-1

>  <s_i_glide_gridfile>  (389) 
pfpi4k_grid

>  <i_i_glide_lignum>  (389) 
39

>  <i_i_glide_rotatable_bonds>  (389) 
1

>  <r_i_docking_score>  (389) 
-2.24214

>  <r_i_glide_ligand_efficiency>  (389) 
-0.0679438

>  <r_i_glide_ligand_efficiency_sa>  (389) 
-0.217932

>  <r_i_glide_ligand_efficiency_ln>  (389) 
-0.498641

>  <r_i_glide_gscore>  (389) 
-2.24214

>  <r_i_glide_lipo>  (389) 
-0.135066

>  <r_i_glide_hbond>  (389) 
-0.00859656

>  <r_i_glide_metal>  (389) 
-0

>  <r_i_glide_rewards>  (389) 
-0.322025

>  <r_i_glide_evdw>  (389) 
-28.06

>  <r_i_glide_ecoul>  (389) 
-2.13712

>  <r_i_glide_erotb>  (389) 
0

>  <r_i_glide_esite>  (389) 
-0.0528869

>  <r_i_glide_emodel>  (389) 
-34.6375

>  <r_i_glide_energy>  (389) 
-30.1972

>  <r_i_glide_einternal>  (389) 
0.19903

>  <r_i_glide_intrahb_reward>  (389) 
-0

>  <i_i_glide_confnum>  (389) 
2

>  <i_i_glide_posenum>  (389) 
11

>  <r_i_glide_eff_state_penalty>  (389) 
0

>  <ligand_id>  (389) 
115

>  <original_smiles>  (389) 
CC1C(=O)OC2C3OC1(C)COC14OC5C=C(C3=O)C(C3(C)COC6C(=C5OC63)C1C)C24O

>  <smiles>  (389) 
[H]OC12C3([H])OC(=O)C([H])(C([H])([H])[H])C4(C([H])([H])[H])OC3([H])C(=O)C3=C([H])C5([H])OC1(OC4([H])[H])C([H])(C([H])([H])[H])C1=C5OC4([H])C1([H])OC([H])([H])C4(C([H])([H])[H])C32[H]

$$$$
